MODEL 1
REMARK VINA RESULT:      -9.1      0.000      0.000
REMARK  Name = 
REMARK  4 active torsions:
REMARK  status: ('A' for Active; 'I' for Inactive)
REMARK    1  A    between atoms: C_2  and  C_17
REMARK    2  A    between atoms: C_6  and  C_7
REMARK    3  A    between atoms: C_21  and  C_22
REMARK    4  A    between atoms: C_22  and  N_23
REMARK                            x       y       z     vdW  Elec       q    Type
REMARK                         _______ _______ _______ _____ _____    ______ ____
ROOT
ATOM      1  O   UNL     1       1.996   8.724  19.245  0.00  0.00    +0.000 OA
ATOM      2  C   UNL     1       1.458   8.361  20.287  0.00  0.00    +0.000 C 
ATOM      3  N   UNL     1       1.521   7.115  20.866  0.00  0.00    +0.000 N 
ATOM      4  C   UNL     1       2.259   6.108  20.305  0.00  0.00    +0.000 A 
ATOM      5  N   UNL     1       3.135   6.167  19.338  0.00  0.00    +0.000 NA
ATOM      6  C   UNL     1       3.633   4.904  19.073  0.00  0.00    +0.000 A 
ATOM      7  C   UNL     1       3.070   3.894  19.832  0.00  0.00    +0.000 A 
ATOM      8  S   UNL     1       1.968   4.564  20.970  0.00  0.00    +0.000 S 
ATOM      9  H   UNL     1       0.923   6.863  21.638  0.00  0.00    +0.000 HD
ENDROOT
BRANCH   6  10
ATOM     10  C   UNL     1       4.662   4.714  18.056  0.00  0.00    +0.000 A 
ATOM     11  C   UNL     1       4.294   4.673  16.699  0.00  0.00    +0.000 A 
ATOM     12  C   UNL     1       5.259   4.525  15.697  0.00  0.00    +0.000 A 
ATOM     13  C   UNL     1       6.599   4.426  16.050  0.00  0.00    +0.000 A 
ATOM     14  F   UNL     1       7.526   4.291  15.091  0.00  0.00    +0.000 F 
ATOM     15  C   UNL     1       6.975   4.473  17.386  0.00  0.00    +0.000 A 
ATOM     16  F   UNL     1       8.269   4.390  17.726  0.00  0.00    +0.000 F 
ATOM     17  C   UNL     1       6.019   4.615  18.390  0.00  0.00    +0.000 A 
ENDBRANCH   6  10
BRANCH   2  18
ATOM     18  C   UNL     1       0.566   9.331  20.978  0.00  0.00    +0.000 A 
ATOM     19  C   UNL     1       0.374   9.175  22.356  0.00  0.00    +0.000 A 
ATOM     20  C   UNL     1      -0.459  10.050  23.051  0.00  0.00    +0.000 A 
ATOM     21  C   UNL     1      -1.091  11.093  22.376  0.00  0.00    +0.000 A 
ATOM     22  C   UNL     1      -0.900  11.271  20.996  0.00  0.00    +0.000 A 
ATOM     23  C   UNL     1      -0.083  10.368  20.295  0.00  0.00    +0.000 A 
BRANCH  22  24
ATOM     24  C   UNL     1      -1.554  12.422  20.274  0.00  0.00    +0.000 C 
BRANCH  24  25
ATOM     25  N   UNL     1      -2.847  12.093  19.711  0.00  0.00    +0.000 N 
ATOM     26  C   UNL     1      -4.075  12.665  20.210  0.00  0.00    +0.000 C 
ATOM     27  C   UNL     1      -5.133  12.049  19.318  0.00  0.00    +0.000 C 
ATOM     28  C   UNL     1      -4.422  11.888  17.983  0.00  0.00    +0.000 C 
ATOM     29  C   UNL     1      -2.981  11.689  18.386  0.00  0.00    +0.000 C 
ATOM     30  O   UNL     1      -2.086  11.315  17.647  0.00  0.00    +0.000 OA
ENDBRANCH  24  25
ENDBRANCH  22  24
ENDBRANCH   2  18
TORSDOF 4
ENDMDL
MODEL 2
REMARK VINA RESULT:      -9.0      0.942      1.190
REMARK  Name = 
REMARK  4 active torsions:
REMARK  status: ('A' for Active; 'I' for Inactive)
REMARK    1  A    between atoms: C_2  and  C_17
REMARK    2  A    between atoms: C_6  and  C_7
REMARK    3  A    between atoms: C_21  and  C_22
REMARK    4  A    between atoms: C_22  and  N_23
REMARK                            x       y       z     vdW  Elec       q    Type
REMARK                         _______ _______ _______ _____ _____    ______ ____
ROOT
ATOM      1  O   UNL     1       2.012   8.763  19.286  0.00  0.00    +0.000 OA
ATOM      2  C   UNL     1       1.487   8.396  20.333  0.00  0.00    +0.000 C 
ATOM      3  N   UNL     1       1.558   7.148  20.908  0.00  0.00    +0.000 N 
ATOM      4  C   UNL     1       2.291   6.144  20.336  0.00  0.00    +0.000 A 
ATOM      5  N   UNL     1       3.156   6.207  19.359  0.00  0.00    +0.000 NA
ATOM      6  C   UNL     1       3.653   4.945  19.084  0.00  0.00    +0.000 A 
ATOM      7  C   UNL     1       3.099   3.932  19.847  0.00  0.00    +0.000 A 
ATOM      8  S   UNL     1       2.010   4.597  20.999  0.00  0.00    +0.000 S 
ATOM      9  H   UNL     1       0.970   6.893  21.685  0.00  0.00    +0.000 HD
ENDROOT
BRANCH   6  10
ATOM     10  C   UNL     1       4.670   4.760  18.055  0.00  0.00    +0.000 A 
ATOM     11  C   UNL     1       4.296   4.793  16.699  0.00  0.00    +0.000 A 
ATOM     12  C   UNL     1       5.252   4.651  15.686  0.00  0.00    +0.000 A 
ATOM     13  C   UNL     1       6.588   4.484  16.029  0.00  0.00    +0.000 A 
ATOM     14  F   UNL     1       7.506   4.355  15.060  0.00  0.00    +0.000 F 
ATOM     15  C   UNL     1       6.969   4.458  17.364  0.00  0.00    +0.000 A 
ATOM     16  F   UNL     1       8.260   4.311  17.693  0.00  0.00    +0.000 F 
ATOM     17  C   UNL     1       6.023   4.594  18.377  0.00  0.00    +0.000 A 
ENDBRANCH   6  10
BRANCH   2  18
ATOM     18  C   UNL     1       0.601   9.363  21.037  0.00  0.00    +0.000 A 
ATOM     19  C   UNL     1       0.241   9.075  22.360  0.00  0.00    +0.000 A 
ATOM     20  C   UNL     1      -0.593   9.942  23.063  0.00  0.00    +0.000 A 
ATOM     21  C   UNL     1      -1.060  11.106  22.453  0.00  0.00    +0.000 A 
ATOM     22  C   UNL     1      -0.699  11.415  21.132  0.00  0.00    +0.000 A 
ATOM     23  C   UNL     1       0.118  10.522  20.418  0.00  0.00    +0.000 A 
BRANCH  22  24
ATOM     24  C   UNL     1      -1.173  12.692  20.486  0.00  0.00    +0.000 C 
BRANCH  24  25
ATOM     25  N   UNL     1      -2.482  12.582  19.876  0.00  0.00    +0.000 N 
ATOM     26  C   UNL     1      -2.765  11.644  18.816  0.00  0.00    +0.000 C 
ATOM     27  C   UNL     1      -4.232  11.881  18.523  0.00  0.00    +0.000 C 
ATOM     28  C   UNL     1      -4.807  12.263  19.879  0.00  0.00    +0.000 C 
ATOM     29  C   UNL     1      -3.639  12.919  20.572  0.00  0.00    +0.000 C 
ATOM     30  O   UNL     1      -3.702  13.563  21.607  0.00  0.00    +0.000 OA
ENDBRANCH  24  25
ENDBRANCH  22  24
ENDBRANCH   2  18
TORSDOF 4
ENDMDL
MODEL 3
REMARK VINA RESULT:      -9.0      4.353      9.359
REMARK  Name = 
REMARK  4 active torsions:
REMARK  status: ('A' for Active; 'I' for Inactive)
REMARK    1  A    between atoms: C_2  and  C_17
REMARK    2  A    between atoms: C_6  and  C_7
REMARK    3  A    between atoms: C_21  and  C_22
REMARK    4  A    between atoms: C_22  and  N_23
REMARK                            x       y       z     vdW  Elec       q    Type
REMARK                         _______ _______ _______ _____ _____    ______ ____
ROOT
ATOM      1  O   UNL     1       2.822   8.733  17.392  0.00  0.00    +0.000 OA
ATOM      2  C   UNL     1       2.689   7.732  18.090  0.00  0.00    +0.000 C 
ATOM      3  N   UNL     1       2.078   7.651  19.320  0.00  0.00    +0.000 N 
ATOM      4  C   UNL     1       1.505   8.748  19.902  0.00  0.00    +0.000 A 
ATOM      5  N   UNL     1       1.247   9.918  19.382  0.00  0.00    +0.000 NA
ATOM      6  C   UNL     1       0.676  10.745  20.333  0.00  0.00    +0.000 A 
ATOM      7  C   UNL     1       0.559  10.177  21.589  0.00  0.00    +0.000 A 
ATOM      8  S   UNL     1       1.085   8.540  21.543  0.00  0.00    +0.000 S 
ATOM      9  H   UNL     1       2.152   6.822  19.890  0.00  0.00    +0.000 HD
ENDROOT
BRANCH   6  10
ATOM     10  C   UNL     1       0.258  12.098  19.982  0.00  0.00    +0.000 A 
ATOM     11  C   UNL     1      -1.006  12.560  20.393  0.00  0.00    +0.000 A 
ATOM     12  C   UNL     1      -1.424  13.863  20.101  0.00  0.00    +0.000 A 
ATOM     13  C   UNL     1      -0.573  14.711  19.404  0.00  0.00    +0.000 A 
ATOM     14  F   UNL     1      -0.968  15.963  19.129  0.00  0.00    +0.000 F 
ATOM     15  C   UNL     1       0.680  14.269  19.001  0.00  0.00    +0.000 A 
ATOM     16  F   UNL     1       1.506  15.092  18.340  0.00  0.00    +0.000 F 
ATOM     17  C   UNL     1       1.101  12.971  19.284  0.00  0.00    +0.000 A 
ENDBRANCH   6  10
BRANCH   2  18
ATOM     18  C   UNL     1       3.322   6.471  17.617  0.00  0.00    +0.000 A 
ATOM     19  C   UNL     1       4.505   6.572  16.874  0.00  0.00    +0.000 A 
ATOM     20  C   UNL     1       5.134   5.423  16.399  0.00  0.00    +0.000 A 
ATOM     21  C   UNL     1       4.592   4.168  16.677  0.00  0.00    +0.000 A 
ATOM     22  C   UNL     1       3.414   4.049  17.430  0.00  0.00    +0.000 A 
ATOM     23  C   UNL     1       2.768   5.212  17.881  0.00  0.00    +0.000 A 
BRANCH  22  24
ATOM     24  C   UNL     1       2.850   2.690  17.762  0.00  0.00    +0.000 C 
BRANCH  24  25
ATOM     25  N   UNL     1       2.503   2.531  19.160  0.00  0.00    +0.000 N 
ATOM     26  C   UNL     1       3.404   2.899  20.226  0.00  0.00    +0.000 C 
ATOM     27  C   UNL     1       2.613   2.575  21.477  0.00  0.00    +0.000 C 
ATOM     28  C   UNL     1       1.173   2.848  21.068  0.00  0.00    +0.000 C 
ATOM     29  C   UNL     1       1.179   2.558  19.587  0.00  0.00    +0.000 C 
ATOM     30  O   UNL     1       0.187   2.447  18.885  0.00  0.00    +0.000 OA
ENDBRANCH  24  25
ENDBRANCH  22  24
ENDBRANCH   2  18
TORSDOF 4
ENDMDL
MODEL 4
REMARK VINA RESULT:      -8.9      0.611      1.294
REMARK  Name = 
REMARK  4 active torsions:
REMARK  status: ('A' for Active; 'I' for Inactive)
REMARK    1  A    between atoms: C_2  and  C_17
REMARK    2  A    between atoms: C_6  and  C_7
REMARK    3  A    between atoms: C_21  and  C_22
REMARK    4  A    between atoms: C_22  and  N_23
REMARK                            x       y       z     vdW  Elec       q    Type
REMARK                         _______ _______ _______ _____ _____    ______ ____
ROOT
ATOM      1  O   UNL     1       1.977   8.808  19.196  0.00  0.00    +0.000 OA
ATOM      2  C   UNL     1       1.465   8.420  20.242  0.00  0.00    +0.000 C 
ATOM      3  N   UNL     1       1.568   7.168  20.805  0.00  0.00    +0.000 N 
ATOM      4  C   UNL     1       2.319   6.187  20.220  0.00  0.00    +0.000 A 
ATOM      5  N   UNL     1       3.178   6.278  19.240  0.00  0.00    +0.000 NA
ATOM      6  C   UNL     1       3.702   5.030  18.950  0.00  0.00    +0.000 A 
ATOM      7  C   UNL     1       3.175   3.998  19.707  0.00  0.00    +0.000 A 
ATOM      8  S   UNL     1       2.076   4.628  20.871  0.00  0.00    +0.000 S 
ATOM      9  H   UNL     1       0.989   6.893  21.583  0.00  0.00    +0.000 HD
ENDROOT
BRANCH   6  10
ATOM     10  C   UNL     1       4.718   4.877  17.915  0.00  0.00    +0.000 A 
ATOM     11  C   UNL     1       6.079   4.958  18.264  0.00  0.00    +0.000 A 
ATOM     12  C   UNL     1       7.079   4.784  17.302  0.00  0.00    +0.000 A 
ATOM     13  C   UNL     1       6.720   4.518  15.986  0.00  0.00    +0.000 A 
ATOM     14  F   UNL     1       7.677   4.343  15.063  0.00  0.00    +0.000 F 
ATOM     15  C   UNL     1       5.380   4.427  15.632  0.00  0.00    +0.000 A 
ATOM     16  F   UNL     1       5.035   4.158  14.365  0.00  0.00    +0.000 F 
ATOM     17  C   UNL     1       4.379   4.605  16.584  0.00  0.00    +0.000 A 
ENDBRANCH   6  10
BRANCH   2  18
ATOM     18  C   UNL     1       0.562   9.360  20.959  0.00  0.00    +0.000 A 
ATOM     19  C   UNL     1       0.375   9.166  22.334  0.00  0.00    +0.000 A 
ATOM     20  C   UNL     1      -0.467  10.012  23.052  0.00  0.00    +0.000 A 
ATOM     21  C   UNL     1      -1.115  11.063  22.404  0.00  0.00    +0.000 A 
ATOM     22  C   UNL     1      -0.930  11.279  21.030  0.00  0.00    +0.000 A 
ATOM     23  C   UNL     1      -0.103  10.405  20.304  0.00  0.00    +0.000 A 
BRANCH  22  24
ATOM     24  C   UNL     1      -1.601  12.438  20.337  0.00  0.00    +0.000 C 
BRANCH  24  25
ATOM     25  N   UNL     1      -3.008  12.220  20.072  0.00  0.00    +0.000 N 
ATOM     26  C   UNL     1      -4.047  12.947  20.761  0.00  0.00    +0.000 C 
ATOM     27  C   UNL     1      -5.320  12.399  20.149  0.00  0.00    +0.000 C 
ATOM     28  C   UNL     1      -4.919  12.088  18.715  0.00  0.00    +0.000 C 
ATOM     29  C   UNL     1      -3.451  11.759  18.836  0.00  0.00    +0.000 C 
ATOM     30  O   UNL     1      -2.767  11.250  17.963  0.00  0.00    +0.000 OA
ENDBRANCH  24  25
ENDBRANCH  22  24
ENDBRANCH   2  18
TORSDOF 4
ENDMDL
MODEL 5
REMARK VINA RESULT:      -8.8      2.364      3.091
REMARK  Name = 
REMARK  4 active torsions:
REMARK  status: ('A' for Active; 'I' for Inactive)
REMARK    1  A    between atoms: C_2  and  C_17
REMARK    2  A    between atoms: C_6  and  C_7
REMARK    3  A    between atoms: C_21  and  C_22
REMARK    4  A    between atoms: C_22  and  N_23
REMARK                            x       y       z     vdW  Elec       q    Type
REMARK                         _______ _______ _______ _____ _____    ______ ____
ROOT
ATOM      1  O   UNL     1       1.607   9.222  19.232  0.00  0.00    +0.000 OA
ATOM      2  C   UNL     1       1.293   8.800  20.341  0.00  0.00    +0.000 C 
ATOM      3  N   UNL     1       1.520   7.541  20.849  0.00  0.00    +0.000 N 
ATOM      4  C   UNL     1       2.182   6.592  20.120  0.00  0.00    +0.000 A 
ATOM      5  N   UNL     1       2.856   6.725  19.008  0.00  0.00    +0.000 NA
ATOM      6  C   UNL     1       3.350   5.497  18.604  0.00  0.00    +0.000 A 
ATOM      7  C   UNL     1       2.986   4.437  19.415  0.00  0.00    +0.000 A 
ATOM      8  S   UNL     1       2.091   5.015  20.766  0.00  0.00    +0.000 S 
ATOM      9  H   UNL     1       1.091   7.236  21.708  0.00  0.00    +0.000 HD
ENDROOT
BRANCH   6  10
ATOM     10  C   UNL     1       4.175   5.391  17.405  0.00  0.00    +0.000 A 
ATOM     11  C   UNL     1       4.530   6.559  16.705  0.00  0.00    +0.000 A 
ATOM     12  C   UNL     1       5.346   6.495  15.570  0.00  0.00    +0.000 A 
ATOM     13  C   UNL     1       5.818   5.263  15.138  0.00  0.00    +0.000 A 
ATOM     14  F   UNL     1       6.607   5.200  14.056  0.00  0.00    +0.000 F 
ATOM     15  C   UNL     1       5.482   4.104  15.827  0.00  0.00    +0.000 A 
ATOM     16  F   UNL     1       5.949   2.917  15.417  0.00  0.00    +0.000 F 
ATOM     17  C   UNL     1       4.665   4.159  16.955  0.00  0.00    +0.000 A 
ENDBRANCH   6  10
BRANCH   2  18
ATOM     18  C   UNL     1       0.506   9.702  21.226  0.00  0.00    +0.000 A 
ATOM     19  C   UNL     1      -0.100   9.142  22.357  0.00  0.00    +0.000 A 
ATOM     20  C   UNL     1      -0.856   9.939  23.214  0.00  0.00    +0.000 A 
ATOM     21  C   UNL     1      -0.998  11.301  22.952  0.00  0.00    +0.000 A 
ATOM     22  C   UNL     1      -0.387  11.881  21.829  0.00  0.00    +0.000 A 
ATOM     23  C   UNL     1       0.349  11.067  20.952  0.00  0.00    +0.000 A 
BRANCH  22  24
ATOM     24  C   UNL     1      -0.510  13.362  21.568  0.00  0.00    +0.000 C 
BRANCH  24  25
ATOM     25  N   UNL     1       0.480  13.871  20.642  0.00  0.00    +0.000 N 
ATOM     26  C   UNL     1       0.148  14.261  19.292  0.00  0.00    +0.000 C 
ATOM     27  C   UNL     1       1.474  14.732  18.730  0.00  0.00    +0.000 C 
ATOM     28  C   UNL     1       2.180  15.328  19.938  0.00  0.00    +0.000 C 
ATOM     29  C   UNL     1       1.624  14.525  21.088  0.00  0.00    +0.000 C 
ATOM     30  O   UNL     1       2.064  14.524  22.226  0.00  0.00    +0.000 OA
ENDBRANCH  24  25
ENDBRANCH  22  24
ENDBRANCH   2  18
TORSDOF 4
ENDMDL
MODEL 6
REMARK VINA RESULT:      -8.8      1.554      2.232
REMARK  Name = 
REMARK  4 active torsions:
REMARK  status: ('A' for Active; 'I' for Inactive)
REMARK    1  A    between atoms: C_2  and  C_17
REMARK    2  A    between atoms: C_6  and  C_7
REMARK    3  A    between atoms: C_21  and  C_22
REMARK    4  A    between atoms: C_22  and  N_23
REMARK                            x       y       z     vdW  Elec       q    Type
REMARK                         _______ _______ _______ _____ _____    ______ ____
ROOT
ATOM      1  O   UNL     1       1.943   8.865  19.338  0.00  0.00    +0.000 OA
ATOM      2  C   UNL     1       1.434   8.428  20.366  0.00  0.00    +0.000 C 
ATOM      3  N   UNL     1       1.536   7.150  20.867  0.00  0.00    +0.000 N 
ATOM      4  C   UNL     1       2.281   6.196  20.231  0.00  0.00    +0.000 A 
ATOM      5  N   UNL     1       3.136   6.332  19.252  0.00  0.00    +0.000 NA
ATOM      6  C   UNL     1       3.654   5.098  18.900  0.00  0.00    +0.000 A 
ATOM      7  C   UNL     1       3.128   4.033  19.608  0.00  0.00    +0.000 A 
ATOM      8  S   UNL     1       2.037   4.608  20.806  0.00  0.00    +0.000 S 
ATOM      9  H   UNL     1       0.959   6.839  21.633  0.00  0.00    +0.000 HD
ENDROOT
BRANCH   6  10
ATOM     10  C   UNL     1       4.665   4.993  17.854  0.00  0.00    +0.000 A 
ATOM     11  C   UNL     1       4.537   3.999  16.866  0.00  0.00    +0.000 A 
ATOM     12  C   UNL     1       5.471   3.891  15.830  0.00  0.00    +0.000 A 
ATOM     13  C   UNL     1       6.534   4.784  15.775  0.00  0.00    +0.000 A 
ATOM     14  F   UNL     1       7.426   4.687  14.779  0.00  0.00    +0.000 F 
ATOM     15  C   UNL     1       6.666   5.774  16.740  0.00  0.00    +0.000 A 
ATOM     16  F   UNL     1       7.684   6.644  16.678  0.00  0.00    +0.000 F 
ATOM     17  C   UNL     1       5.742   5.885  17.777  0.00  0.00    +0.000 A 
ENDBRANCH   6  10
BRANCH   2  18
ATOM     18  C   UNL     1       0.537   9.335  21.133  0.00  0.00    +0.000 A 
ATOM     19  C   UNL     1       0.333   9.057  22.490  0.00  0.00    +0.000 A 
ATOM     20  C   UNL     1      -0.505   9.869  23.252  0.00  0.00    +0.000 A 
ATOM     21  C   UNL     1      -1.130  10.968  22.666  0.00  0.00    +0.000 A 
ATOM     22  C   UNL     1      -0.926  11.268  21.309  0.00  0.00    +0.000 A 
ATOM     23  C   UNL     1      -0.104  10.429  20.538  0.00  0.00    +0.000 A 
BRANCH  22  24
ATOM     24  C   UNL     1      -1.573  12.479  20.685  0.00  0.00    +0.000 C 
BRANCH  24  25
ATOM     25  N   UNL     1      -0.623  13.477  20.238  0.00  0.00    +0.000 N 
ATOM     26  C   UNL     1       0.383  14.033  21.111  0.00  0.00    +0.000 C 
ATOM     27  C   UNL     1       1.130  14.997  20.212  0.00  0.00    +0.000 C 
ATOM     28  C   UNL     1       1.060  14.334  18.845  0.00  0.00    +0.000 C 
ATOM     29  C   UNL     1      -0.238  13.567  18.904  0.00  0.00    +0.000 C 
ATOM     30  O   UNL     1      -0.798  13.052  17.950  0.00  0.00    +0.000 OA
ENDBRANCH  24  25
ENDBRANCH  22  24
ENDBRANCH   2  18
TORSDOF 4
ENDMDL
MODEL 7
REMARK VINA RESULT:      -8.8      1.584      2.546
REMARK  Name = 
REMARK  4 active torsions:
REMARK  status: ('A' for Active; 'I' for Inactive)
REMARK    1  A    between atoms: C_2  and  C_17
REMARK    2  A    between atoms: C_6  and  C_7
REMARK    3  A    between atoms: C_21  and  C_22
REMARK    4  A    between atoms: C_22  and  N_23
REMARK                            x       y       z     vdW  Elec       q    Type
REMARK                         _______ _______ _______ _____ _____    ______ ____
ROOT
ATOM      1  O   UNL     1       2.046   8.679  19.241  0.00  0.00    +0.000 OA
ATOM      2  C   UNL     1       1.579   8.266  20.298  0.00  0.00    +0.000 C 
ATOM      3  N   UNL     1       1.723   7.008  20.836  0.00  0.00    +0.000 N 
ATOM      4  C   UNL     1       2.470   6.049  20.209  0.00  0.00    +0.000 A 
ATOM      5  N   UNL     1       3.291   6.171  19.200  0.00  0.00    +0.000 NA
ATOM      6  C   UNL     1       3.825   4.937  18.872  0.00  0.00    +0.000 A 
ATOM      7  C   UNL     1       3.343   3.884  19.630  0.00  0.00    +0.000 A 
ATOM      8  S   UNL     1       2.277   4.476  20.842  0.00  0.00    +0.000 S 
ATOM      9  H   UNL     1       1.177   6.711  21.629  0.00  0.00    +0.000 HD
ENDROOT
BRANCH   6  10
ATOM     10  C   UNL     1       4.806   4.818  17.799  0.00  0.00    +0.000 A 
ATOM     11  C   UNL     1       6.177   4.914  18.101  0.00  0.00    +0.000 A 
ATOM     12  C   UNL     1       7.144   4.772  17.101  0.00  0.00    +0.000 A 
ATOM     13  C   UNL     1       6.743   4.525  15.794  0.00  0.00    +0.000 A 
ATOM     14  F   UNL     1       7.669   4.381  14.835  0.00  0.00    +0.000 F 
ATOM     15  C   UNL     1       5.393   4.420  15.485  0.00  0.00    +0.000 A 
ATOM     16  F   UNL     1       5.007   4.168  14.227  0.00  0.00    +0.000 F 
ATOM     17  C   UNL     1       4.423   4.565  16.476  0.00  0.00    +0.000 A 
ENDBRANCH   6  10
BRANCH   2  18
ATOM     18  C   UNL     1       0.686   9.179  21.062  0.00  0.00    +0.000 A 
ATOM     19  C   UNL     1       0.443   8.879  22.408  0.00  0.00    +0.000 A 
ATOM     20  C   UNL     1      -0.393   9.695  23.168  0.00  0.00    +0.000 A 
ATOM     21  C   UNL     1      -0.977  10.822  22.590  0.00  0.00    +0.000 A 
ATOM     22  C   UNL     1      -0.734  11.144  21.246  0.00  0.00    +0.000 A 
ATOM     23  C   UNL     1       0.086  10.301  20.476  0.00  0.00    +0.000 A 
BRANCH  22  24
ATOM     24  C   UNL     1      -1.336  12.384  20.633  0.00  0.00    +0.000 C 
BRANCH  24  25
ATOM     25  N   UNL     1      -0.350  13.336  20.165  0.00  0.00    +0.000 N 
ATOM     26  C   UNL     1       0.750  13.777  20.988  0.00  0.00    +0.000 C 
ATOM     27  C   UNL     1       1.501  14.733  20.084  0.00  0.00    +0.000 C 
ATOM     28  C   UNL     1       1.292  14.146  18.696  0.00  0.00    +0.000 C 
ATOM     29  C   UNL     1      -0.051  13.466  18.812  0.00  0.00    +0.000 C 
ATOM     30  O   UNL     1      -0.709  13.040  17.878  0.00  0.00    +0.000 OA
ENDBRANCH  24  25
ENDBRANCH  22  24
ENDBRANCH   2  18
TORSDOF 4
ENDMDL
MODEL 8
REMARK VINA RESULT:      -8.7      2.026      2.748
REMARK  Name = 
REMARK  4 active torsions:
REMARK  status: ('A' for Active; 'I' for Inactive)
REMARK    1  A    between atoms: C_2  and  C_17
REMARK    2  A    between atoms: C_6  and  C_7
REMARK    3  A    between atoms: C_21  and  C_22
REMARK    4  A    between atoms: C_22  and  N_23
REMARK                            x       y       z     vdW  Elec       q    Type
REMARK                         _______ _______ _______ _____ _____    ______ ____
ROOT
ATOM      1  O   UNL     1       1.924   8.977  19.353  0.00  0.00    +0.000 OA
ATOM      2  C   UNL     1       1.432   8.541  20.389  0.00  0.00    +0.000 C 
ATOM      3  N   UNL     1       1.535   7.262  20.886  0.00  0.00    +0.000 N 
ATOM      4  C   UNL     1       2.263   6.305  20.235  0.00  0.00    +0.000 A 
ATOM      5  N   UNL     1       3.101   6.438  19.241  0.00  0.00    +0.000 NA
ATOM      6  C   UNL     1       3.606   5.202  18.878  0.00  0.00    +0.000 A 
ATOM      7  C   UNL     1       3.086   4.138  19.592  0.00  0.00    +0.000 A 
ATOM      8  S   UNL     1       2.020   4.717  20.811  0.00  0.00    +0.000 S 
ATOM      9  H   UNL     1       0.970   6.953  21.661  0.00  0.00    +0.000 HD
ENDROOT
BRANCH   6  10
ATOM     10  C   UNL     1       4.598   5.093  17.813  0.00  0.00    +0.000 A 
ATOM     11  C   UNL     1       4.403   4.158  16.780  0.00  0.00    +0.000 A 
ATOM     12  C   UNL     1       5.318   4.050  15.727  0.00  0.00    +0.000 A 
ATOM     13  C   UNL     1       6.428   4.884  15.700  0.00  0.00    +0.000 A 
ATOM     14  F   UNL     1       7.302   4.788  14.689  0.00  0.00    +0.000 F 
ATOM     15  C   UNL     1       6.626   5.817  16.711  0.00  0.00    +0.000 A 
ATOM     16  F   UNL     1       7.691   6.630  16.677  0.00  0.00    +0.000 F 
ATOM     17  C   UNL     1       5.722   5.926  17.765  0.00  0.00    +0.000 A 
ENDBRANCH   6  10
BRANCH   2  18
ATOM     18  C   UNL     1       0.554   9.452  21.173  0.00  0.00    +0.000 A 
ATOM     19  C   UNL     1       0.119   9.016  22.431  0.00  0.00    +0.000 A 
ATOM     20  C   UNL     1      -0.713   9.825  23.203  0.00  0.00    +0.000 A 
ATOM     21  C   UNL     1      -1.100  11.078  22.728  0.00  0.00    +0.000 A 
ATOM     22  C   UNL     1      -0.663  11.534  21.475  0.00  0.00    +0.000 A 
ATOM     23  C   UNL     1       0.150  10.702  20.688  0.00  0.00    +0.000 A 
BRANCH  22  24
ATOM     24  C   UNL     1      -1.052  12.905  20.979  0.00  0.00    +0.000 C 
BRANCH  24  25
ATOM     25  N   UNL     1       0.035  13.622  20.345  0.00  0.00    +0.000 N 
ATOM     26  C   UNL     1      -0.034  14.079  18.978  0.00  0.00    +0.000 C 
ATOM     27  C   UNL     1       1.297  14.772  18.775  0.00  0.00    +0.000 C 
ATOM     28  C   UNL     1       1.608  15.352  20.147  0.00  0.00    +0.000 C 
ATOM     29  C   UNL     1       0.932  14.384  21.087  0.00  0.00    +0.000 C 
ATOM     30  O   UNL     1       1.094  14.344  22.295  0.00  0.00    +0.000 OA
ENDBRANCH  24  25
ENDBRANCH  22  24
ENDBRANCH   2  18
TORSDOF 4
ENDMDL
MODEL 9
REMARK VINA RESULT:      -8.7      1.876      2.422
REMARK  Name = 
REMARK  4 active torsions:
REMARK  status: ('A' for Active; 'I' for Inactive)
REMARK    1  A    between atoms: C_2  and  C_17
REMARK    2  A    between atoms: C_6  and  C_7
REMARK    3  A    between atoms: C_21  and  C_22
REMARK    4  A    between atoms: C_22  and  N_23
REMARK                            x       y       z     vdW  Elec       q    Type
REMARK                         _______ _______ _______ _____ _____    ______ ____
ROOT
ATOM      1  O   UNL     1       1.471   9.047  19.220  0.00  0.00    +0.000 OA
ATOM      2  C   UNL     1       1.187   8.621  20.336  0.00  0.00    +0.000 C 
ATOM      3  N   UNL     1       1.484   7.382  20.855  0.00  0.00    +0.000 N 
ATOM      4  C   UNL     1       2.191   6.461  20.132  0.00  0.00    +0.000 A 
ATOM      5  N   UNL     1       2.851   6.618  19.015  0.00  0.00    +0.000 NA
ATOM      6  C   UNL     1       3.408   5.414  18.620  0.00  0.00    +0.000 A 
ATOM      7  C   UNL     1       3.106   4.345  19.445  0.00  0.00    +0.000 A 
ATOM      8  S   UNL     1       2.189   4.889  20.795  0.00  0.00    +0.000 S 
ATOM      9  H   UNL     1       1.077   7.063  21.720  0.00  0.00    +0.000 HD
ENDROOT
BRANCH   6  10
ATOM     10  C   UNL     1       4.231   5.339  17.418  0.00  0.00    +0.000 A 
ATOM     11  C   UNL     1       4.586   6.525  16.749  0.00  0.00    +0.000 A 
ATOM     12  C   UNL     1       5.401   6.491  15.612  0.00  0.00    +0.000 A 
ATOM     13  C   UNL     1       5.869   5.270  15.145  0.00  0.00    +0.000 A 
ATOM     14  F   UNL     1       6.656   5.235  14.060  0.00  0.00    +0.000 F 
ATOM     15  C   UNL     1       5.532   4.094  15.802  0.00  0.00    +0.000 A 
ATOM     16  F   UNL     1       5.995   2.917  15.359  0.00  0.00    +0.000 F 
ATOM     17  C   UNL     1       4.717   4.119  16.932  0.00  0.00    +0.000 A 
ENDBRANCH   6  10
BRANCH   2  18
ATOM     18  C   UNL     1       0.357   9.489  21.215  0.00  0.00    +0.000 A 
ATOM     19  C   UNL     1       0.329   9.195  22.584  0.00  0.00    +0.000 A 
ATOM     20  C   UNL     1      -0.438   9.970  23.451  0.00  0.00    +0.000 A 
ATOM     21  C   UNL     1      -1.168  11.050  22.957  0.00  0.00    +0.000 A 
ATOM     22  C   UNL     1      -1.142  11.366  21.590  0.00  0.00    +0.000 A 
ATOM     23  C   UNL     1      -0.390  10.563  20.716  0.00  0.00    +0.000 A 
BRANCH  22  24
ATOM     24  C   UNL     1      -1.902  12.557  21.063  0.00  0.00    +0.000 C 
BRANCH  24  25
ATOM     25  N   UNL     1      -2.540  13.342  22.099  0.00  0.00    +0.000 N 
ATOM     26  C   UNL     1      -2.031  14.626  22.520  0.00  0.00    +0.000 C 
ATOM     27  C   UNL     1      -3.017  15.059  23.586  0.00  0.00    +0.000 C 
ATOM     28  C   UNL     1      -4.335  14.464  23.113  0.00  0.00    +0.000 C 
ATOM     29  C   UNL     1      -3.901  13.230  22.361  0.00  0.00    +0.000 C 
ATOM     30  O   UNL     1      -4.642  12.336  21.985  0.00  0.00    +0.000 OA
ENDBRANCH  24  25
ENDBRANCH  22  24
ENDBRANCH   2  18
TORSDOF 4
ENDMDL
