MODEL 1
REMARK VINA RESULT:      -9.0      0.000      0.000
REMARK  Name = 
REMARK  5 active torsions:
REMARK  status: ('A' for Active; 'I' for Inactive)
REMARK    1  A    between atoms: C_1  and  C_2
REMARK    2  A    between atoms: C_7  and  C_8
REMARK    3  A    between atoms: N_10  and  C_11
REMARK    4  A    between atoms: N_15  and  C_16
REMARK    5  A    between atoms: C_16  and  C_17
REMARK                            x       y       z     vdW  Elec       q    Type
REMARK                         _______ _______ _______ _____ _____    ______ ____
ROOT
ATOM      1  C   UNL     1       2.753   6.990  17.850  0.00  0.00    +0.000 C 
ATOM      2  O   UNL     1       2.195   5.938  17.603  0.00  0.00    +0.000 OA
ATOM      3  N   UNL     1       4.164   7.174  17.612  0.00  0.00    +0.000 N 
ATOM      4  H   UNL     1       4.616   8.008  17.972  0.00  0.00    +0.000 HD
ENDROOT
BRANCH   1  11
ATOM      5  C   UNL     1      -1.151  12.004  22.995  0.00  0.00    +0.000 C 
ATOM      6  C   UNL     1      -0.753  10.894  22.026  0.00  0.00    +0.000 C 
ATOM      7  S   UNL     1       0.021  11.664  20.575  0.00  0.00    +0.000 S 
ATOM      8  C   UNL     1       0.714  10.224  19.804  0.00  0.00    +0.000 A 
ATOM      9  C   UNL     1       1.014  10.301  18.438  0.00  0.00    +0.000 A 
ATOM     10  C   UNL     1       1.656   9.246  17.785  0.00  0.00    +0.000 A 
ATOM     11  C   UNL     1       2.027   8.110  18.506  0.00  0.00    +0.000 A 
ATOM     12  C   UNL     1       1.702   8.011  19.869  0.00  0.00    +0.000 A 
ATOM     13  C   UNL     1       1.046   9.067  20.519  0.00  0.00    +0.000 A 
ATOM     14  N   UNL     1       0.809   8.955  21.898  0.00  0.00    +0.000 N 
ATOM     15  C   UNL     1       0.142   9.854  22.690  0.00  0.00    +0.000 C 
ATOM     16  O   UNL     1       0.189   9.697  23.912  0.00  0.00    +0.000 OA
ATOM     17  H   UNL     1       1.230   8.192  22.417  0.00  0.00    +0.000 HD
ENDBRANCH   1  11
BRANCH   3  18
ATOM     18  C   UNL     1       4.963   6.231  16.962  0.00  0.00    +0.000 A 
ATOM     19  C   UNL     1       5.333   6.227  15.634  0.00  0.00    +0.000 A 
ATOM     20  C   UNL     1       6.149   5.095  15.472  0.00  0.00    +0.000 A 
ATOM     21  N   UNL     1       6.304   4.418  16.609  0.00  0.00    +0.000 NA
ATOM     22  N   UNL     1       5.566   5.111  17.508  0.00  0.00    +0.000 N 
BRANCH  22  23
ATOM     23  C   UNL     1       5.345   4.501  18.817  0.00  0.00    +0.000 C 
BRANCH  23  24
ATOM     24  C   UNL     1       4.125   3.609  18.832  0.00  0.00    +0.000 A 
ATOM     25  C   UNL     1       4.025   2.583  17.873  0.00  0.00    +0.000 A 
ATOM     26  C   UNL     1       2.955   1.688  17.883  0.00  0.00    +0.000 A 
ATOM     27  C   UNL     1       1.967   1.794  18.858  0.00  0.00    +0.000 A 
ATOM     28  C   UNL     1       2.032   2.815  19.806  0.00  0.00    +0.000 A 
ATOM     29 CL   UNL     1       0.779   2.881  20.996  0.00  0.00    +0.000 Cl
ATOM     30  C   UNL     1       3.097   3.732  19.787  0.00  0.00    +0.000 A 
ATOM     31 CL   UNL     1       3.133   5.041  20.924  0.00  0.00    +0.000 Cl
ENDBRANCH  23  24
ENDBRANCH  22  23
ENDBRANCH   3  18
TORSDOF 4
ENDMDL
MODEL 2
REMARK VINA RESULT:      -9.0      2.343      3.830
REMARK  Name = 
REMARK  5 active torsions:
REMARK  status: ('A' for Active; 'I' for Inactive)
REMARK    1  A    between atoms: C_1  and  C_2
REMARK    2  A    between atoms: C_7  and  C_8
REMARK    3  A    between atoms: N_10  and  C_11
REMARK    4  A    between atoms: N_15  and  C_16
REMARK    5  A    between atoms: C_16  and  C_17
REMARK                            x       y       z     vdW  Elec       q    Type
REMARK                         _______ _______ _______ _____ _____    ______ ____
ROOT
ATOM      1  C   UNL     1       2.863   6.184  19.147  0.00  0.00    +0.000 C 
ATOM      2  O   UNL     1       3.849   5.969  19.826  0.00  0.00    +0.000 OA
ATOM      3  N   UNL     1       2.343   5.197  18.231  0.00  0.00    +0.000 N 
ATOM      4  H   UNL     1       1.617   5.470  17.579  0.00  0.00    +0.000 HD
ENDROOT
BRANCH   1  11
ATOM      5  C   UNL     1      -1.158  13.055  21.007  0.00  0.00    +0.000 C 
ATOM      6  C   UNL     1      -0.753  11.630  20.639  0.00  0.00    +0.000 C 
ATOM      7  S   UNL     1       0.390  11.717  19.231  0.00  0.00    +0.000 S 
ATOM      8  C   UNL     1       0.994  10.048  19.232  0.00  0.00    +0.000 A 
ATOM      9  C   UNL     1       1.558   9.563  18.045  0.00  0.00    +0.000 A 
ATOM     10  C   UNL     1       2.148   8.297  17.998  0.00  0.00    +0.000 A 
ATOM     11  C   UNL     1       2.200   7.515  19.153  0.00  0.00    +0.000 A 
ATOM     12  C   UNL     1       1.611   7.981  20.340  0.00  0.00    +0.000 A 
ATOM     13  C   UNL     1       1.008   9.247  20.381  0.00  0.00    +0.000 A 
ATOM     14  N   UNL     1       0.498   9.702  21.606  0.00  0.00    +0.000 N 
ATOM     15  C   UNL     1      -0.167  10.881  21.831  0.00  0.00    +0.000 C 
ATOM     16  O   UNL     1      -0.378  11.215  22.998  0.00  0.00    +0.000 OA
ATOM     17  H   UNL     1       0.693   9.180  22.454  0.00  0.00    +0.000 HD
ENDBRANCH   1  11
BRANCH   3  18
ATOM     18  C   UNL     1       2.831   3.891  18.151  0.00  0.00    +0.000 A 
ATOM     19  C   UNL     1       2.449   2.810  18.917  0.00  0.00    +0.000 A 
ATOM     20  C   UNL     1       3.205   1.725  18.445  0.00  0.00    +0.000 A 
ATOM     21  N   UNL     1       4.012   2.071  17.443  0.00  0.00    +0.000 NA
ATOM     22  N   UNL     1       3.787   3.395  17.281  0.00  0.00    +0.000 N 
BRANCH  22  23
ATOM     23  C   UNL     1       4.686   4.133  16.396  0.00  0.00    +0.000 C 
BRANCH  23  24
ATOM     24  C   UNL     1       5.712   4.934  17.164  0.00  0.00    +0.000 A 
ATOM     25  C   UNL     1       6.523   4.268  18.105  0.00  0.00    +0.000 A 
ATOM     26  C   UNL     1       7.532   4.944  18.792  0.00  0.00    +0.000 A 
ATOM     27  C   UNL     1       7.758   6.295  18.547  0.00  0.00    +0.000 A 
ATOM     28  C   UNL     1       6.954   6.981  17.636  0.00  0.00    +0.000 A 
ATOM     29 CL   UNL     1       7.297   8.656  17.371  0.00  0.00    +0.000 Cl
ATOM     30  C   UNL     1       5.922   6.310  16.957  0.00  0.00    +0.000 A 
ATOM     31 CL   UNL     1       4.882   7.186  15.881  0.00  0.00    +0.000 Cl
ENDBRANCH  23  24
ENDBRANCH  22  23
ENDBRANCH   3  18
TORSDOF 4
ENDMDL
MODEL 3
REMARK VINA RESULT:      -8.9      1.184      1.599
REMARK  Name = 
REMARK  5 active torsions:
REMARK  status: ('A' for Active; 'I' for Inactive)
REMARK    1  A    between atoms: C_1  and  C_2
REMARK    2  A    between atoms: C_7  and  C_8
REMARK    3  A    between atoms: N_10  and  C_11
REMARK    4  A    between atoms: N_15  and  C_16
REMARK    5  A    between atoms: C_16  and  C_17
REMARK                            x       y       z     vdW  Elec       q    Type
REMARK                         _______ _______ _______ _____ _____    ______ ____
ROOT
ATOM      1  C   UNL     1       2.612   7.156  17.901  0.00  0.00    +0.000 C 
ATOM      2  O   UNL     1       1.926   6.240  17.488  0.00  0.00    +0.000 OA
ATOM      3  N   UNL     1       4.054   7.094  17.881  0.00  0.00    +0.000 N 
ATOM      4  H   UNL     1       4.581   7.807  18.372  0.00  0.00    +0.000 HD
ENDROOT
BRANCH   1  11
ATOM      5  C   UNL     1      -1.020  12.505  22.905  0.00  0.00    +0.000 C 
ATOM      6  C   UNL     1      -0.693  11.386  21.920  0.00  0.00    +0.000 C 
ATOM      7  S   UNL     1       0.339  12.085  20.599  0.00  0.00    +0.000 S 
ATOM      8  C   UNL     1       0.886  10.586  19.822  0.00  0.00    +0.000 A 
ATOM      9  C   UNL     1       1.339  10.671  18.499  0.00  0.00    +0.000 A 
ATOM     10  C   UNL     1       1.880   9.556  17.854  0.00  0.00    +0.000 A 
ATOM     11  C   UNL     1       1.997   8.348  18.543  0.00  0.00    +0.000 A 
ATOM     12  C   UNL     1       1.517   8.245  19.860  0.00  0.00    +0.000 A 
ATOM     13  C   UNL     1       0.962   9.364  20.500  0.00  0.00    +0.000 A 
ATOM     14  N   UNL     1       0.565   9.234  21.839  0.00  0.00    +0.000 N 
ATOM     15  C   UNL     1      -0.041  10.193  22.611  0.00  0.00    +0.000 C 
ATOM     16  O   UNL     1      -0.149   9.983  23.821  0.00  0.00    +0.000 OA
ATOM     17  H   UNL     1       0.808   8.395  22.355  0.00  0.00    +0.000 HD
ENDBRANCH   1  11
BRANCH   3  18
ATOM     18  C   UNL     1       4.769   6.062  17.270  0.00  0.00    +0.000 A 
ATOM     19  C   UNL     1       5.055   5.927  15.928  0.00  0.00    +0.000 A 
ATOM     20  C   UNL     1       5.810   4.748  15.818  0.00  0.00    +0.000 A 
ATOM     21  N   UNL     1       6.007   4.163  16.998  0.00  0.00    +0.000 NA
ATOM     22  N   UNL     1       5.357   4.964  17.875  0.00  0.00    +0.000 N 
BRANCH  22  23
ATOM     23  C   UNL     1       5.193   4.479  19.243  0.00  0.00    +0.000 C 
BRANCH  23  24
ATOM     24  C   UNL     1       3.743   4.230  19.590  0.00  0.00    +0.000 A 
ATOM     25  C   UNL     1       3.126   5.055  20.551  0.00  0.00    +0.000 A 
ATOM     26  C   UNL     1       1.773   4.915  20.860  0.00  0.00    +0.000 A 
ATOM     27  C   UNL     1       1.005   3.954  20.209  0.00  0.00    +0.000 A 
ATOM     28  C   UNL     1       1.598   3.110  19.270  0.00  0.00    +0.000 A 
ATOM     29 CL   UNL     1       0.584   1.946  18.489  0.00  0.00    +0.000 Cl
ATOM     30  C   UNL     1       2.966   3.233  18.970  0.00  0.00    +0.000 A 
ATOM     31 CL   UNL     1       3.710   2.133  17.855  0.00  0.00    +0.000 Cl
ENDBRANCH  23  24
ENDBRANCH  22  23
ENDBRANCH   3  18
TORSDOF 4
ENDMDL
MODEL 4
REMARK VINA RESULT:      -8.5      2.416      3.881
REMARK  Name = 
REMARK  5 active torsions:
REMARK  status: ('A' for Active; 'I' for Inactive)
REMARK    1  A    between atoms: C_1  and  C_2
REMARK    2  A    between atoms: C_7  and  C_8
REMARK    3  A    between atoms: N_10  and  C_11
REMARK    4  A    between atoms: N_15  and  C_16
REMARK    5  A    between atoms: C_16  and  C_17
REMARK                            x       y       z     vdW  Elec       q    Type
REMARK                         _______ _______ _______ _____ _____    ______ ____
ROOT
ATOM      1  C   UNL     1       2.165   6.012  19.635  0.00  0.00    +0.000 C 
ATOM      2  O   UNL     1       2.495   5.619  20.738  0.00  0.00    +0.000 OA
ATOM      3  N   UNL     1       2.062   5.114  18.510  0.00  0.00    +0.000 N 
ATOM      4  H   UNL     1       1.935   5.504  17.583  0.00  0.00    +0.000 HD
ENDROOT
BRANCH   1  11
ATOM      5  C   UNL     1       0.197  13.942  19.913  0.00  0.00    +0.000 C 
ATOM      6  C   UNL     1       0.199  12.421  19.789  0.00  0.00    +0.000 C 
ATOM      7  S   UNL     1       1.518  11.954  18.631  0.00  0.00    +0.000 S 
ATOM      8  C   UNL     1       1.576  10.206  18.932  0.00  0.00    +0.000 A 
ATOM      9  C   UNL     1       2.142   9.396  17.938  0.00  0.00    +0.000 A 
ATOM     10  C   UNL     1       2.317   8.026  18.145  0.00  0.00    +0.000 A 
ATOM     11  C   UNL     1       1.948   7.458  19.366  0.00  0.00    +0.000 A 
ATOM     12  C   UNL     1       1.352   8.257  20.356  0.00  0.00    +0.000 A 
ATOM     13  C   UNL     1       1.166   9.630  20.141  0.00  0.00    +0.000 A 
ATOM     14  N   UNL     1       0.636  10.402  21.186  0.00  0.00    +0.000 N 
ATOM     15  C   UNL     1       0.337  11.740  21.146  0.00  0.00    +0.000 C 
ATOM     16  O   UNL     1       0.060  12.305  22.206  0.00  0.00    +0.000 OA
ATOM     17  H   UNL     1       0.529   9.991  22.107  0.00  0.00    +0.000 HD
ENDBRANCH   1  11
BRANCH   3  18
ATOM     18  C   UNL     1       2.192   3.727  18.620  0.00  0.00    +0.000 A 
ATOM     19  C   UNL     1       1.178   2.793  18.612  0.00  0.00    +0.000 A 
ATOM     20  C   UNL     1       1.813   1.545  18.726  0.00  0.00    +0.000 A 
ATOM     21  N   UNL     1       3.138   1.658  18.796  0.00  0.00    +0.000 NA
ATOM     22  N   UNL     1       3.358   2.992  18.744  0.00  0.00    +0.000 N 
BRANCH  22  23
ATOM     23  C   UNL     1       4.712   3.467  19.022  0.00  0.00    +0.000 C 
BRANCH  23  24
ATOM     24  C   UNL     1       5.282   4.269  17.874  0.00  0.00    +0.000 A 
ATOM     25  C   UNL     1       4.851   3.976  16.565  0.00  0.00    +0.000 A 
ATOM     26  C   UNL     1       5.292   4.729  15.476  0.00  0.00    +0.000 A 
ATOM     27  C   UNL     1       6.165   5.795  15.673  0.00  0.00    +0.000 A 
ATOM     28  C   UNL     1       6.623   6.091  16.957  0.00  0.00    +0.000 A 
ATOM     29 CL   UNL     1       7.696   7.436  17.133  0.00  0.00    +0.000 Cl
ATOM     30  C   UNL     1       6.198   5.322  18.055  0.00  0.00    +0.000 A 
ATOM     31 CL   UNL     1       6.828   5.651  19.637  0.00  0.00    +0.000 Cl
ENDBRANCH  23  24
ENDBRANCH  22  23
ENDBRANCH   3  18
TORSDOF 4
ENDMDL
MODEL 5
REMARK VINA RESULT:      -8.5      1.361      1.597
REMARK  Name = 
REMARK  5 active torsions:
REMARK  status: ('A' for Active; 'I' for Inactive)
REMARK    1  A    between atoms: C_1  and  C_2
REMARK    2  A    between atoms: C_7  and  C_8
REMARK    3  A    between atoms: N_10  and  C_11
REMARK    4  A    between atoms: N_15  and  C_16
REMARK    5  A    between atoms: C_16  and  C_17
REMARK                            x       y       z     vdW  Elec       q    Type
REMARK                         _______ _______ _______ _____ _____    ______ ____
ROOT
ATOM      1  C   UNL     1       3.926   6.491  18.289  0.00  0.00    +0.000 C 
ATOM      2  O   UNL     1       4.570   5.864  19.109  0.00  0.00    +0.000 OA
ATOM      3  N   UNL     1       4.185   6.379  16.874  0.00  0.00    +0.000 N 
ATOM      4  H   UNL     1       3.732   7.028  16.241  0.00  0.00    +0.000 HD
ENDROOT
BRANCH   1  11
ATOM      5  C   UNL     1      -1.377  11.206  22.350  0.00  0.00    +0.000 C 
ATOM      6  C   UNL     1      -0.660  10.071  21.625  0.00  0.00    +0.000 C 
ATOM      7  S   UNL     1      -0.059  10.711  20.035  0.00  0.00    +0.000 S 
ATOM      8  C   UNL     1       1.023   9.384  19.567  0.00  0.00    +0.000 A 
ATOM      9  C   UNL     1       1.348   9.262  18.209  0.00  0.00    +0.000 A 
ATOM     10  C   UNL     1       2.273   8.308  17.778  0.00  0.00    +0.000 A 
ATOM     11  C   UNL     1       2.902   7.483  18.711  0.00  0.00    +0.000 A 
ATOM     12  C   UNL     1       2.560   7.578  20.070  0.00  0.00    +0.000 A 
ATOM     13  C   UNL     1       1.621   8.528  20.499  0.00  0.00    +0.000 A 
ATOM     14  N   UNL     1       1.366   8.638  21.875  0.00  0.00    +0.000 N 
ATOM     15  C   UNL     1       0.452   9.466  22.475  0.00  0.00    +0.000 C 
ATOM     16  O   UNL     1       0.488   9.578  23.702  0.00  0.00    +0.000 OA
ATOM     17  H   UNL     1       1.953   8.137  22.534  0.00  0.00    +0.000 HD
ENDBRANCH   1  11
BRANCH   3  18
ATOM     18  C   UNL     1       5.082   5.457  16.328  0.00  0.00    +0.000 A 
ATOM     19  C   UNL     1       6.329   5.719  15.803  0.00  0.00    +0.000 A 
ATOM     20  C   UNL     1       6.842   4.473  15.407  0.00  0.00    +0.000 A 
ATOM     21  N   UNL     1       5.997   3.475  15.661  0.00  0.00    +0.000 NA
ATOM     22  N   UNL     1       4.922   4.087  16.210  0.00  0.00    +0.000 N 
BRANCH  22  23
ATOM     23  C   UNL     1       3.713   3.289  16.403  0.00  0.00    +0.000 C 
BRANCH  23  24
ATOM     24  C   UNL     1       3.389   3.089  17.866  0.00  0.00    +0.000 A 
ATOM     25  C   UNL     1       4.291   2.359  18.665  0.00  0.00    +0.000 A 
ATOM     26  C   UNL     1       4.077   2.201  20.035  0.00  0.00    +0.000 A 
ATOM     27  C   UNL     1       2.962   2.778  20.636  0.00  0.00    +0.000 A 
ATOM     28  C   UNL     1       2.043   3.487  19.863  0.00  0.00    +0.000 A 
ATOM     29 CL   UNL     1       0.686   4.188  20.676  0.00  0.00    +0.000 Cl
ATOM     30  C   UNL     1       2.243   3.630  18.478  0.00  0.00    +0.000 A 
ATOM     31 CL   UNL     1       1.059   4.451  17.513  0.00  0.00    +0.000 Cl
ENDBRANCH  23  24
ENDBRANCH  22  23
ENDBRANCH   3  18
TORSDOF 4
ENDMDL
MODEL 6
REMARK VINA RESULT:      -8.4      2.149      2.664
REMARK  Name = 
REMARK  5 active torsions:
REMARK  status: ('A' for Active; 'I' for Inactive)
REMARK    1  A    between atoms: C_1  and  C_2
REMARK    2  A    between atoms: C_7  and  C_8
REMARK    3  A    between atoms: N_10  and  C_11
REMARK    4  A    between atoms: N_15  and  C_16
REMARK    5  A    between atoms: C_16  and  C_17
REMARK                            x       y       z     vdW  Elec       q    Type
REMARK                         _______ _______ _______ _____ _____    ______ ____
ROOT
ATOM      1  C   UNL     1       2.548   7.027  18.153  0.00  0.00    +0.000 C 
ATOM      2  O   UNL     1       1.858   6.169  17.634  0.00  0.00    +0.000 OA
ATOM      3  N   UNL     1       3.989   6.963  18.120  0.00  0.00    +0.000 N 
ATOM      4  H   UNL     1       4.519   7.611  18.691  0.00  0.00    +0.000 HD
ENDROOT
BRANCH   1  11
ATOM      5  C   UNL     1      -0.800  14.013  20.766  0.00  0.00    +0.000 C 
ATOM      6  C   UNL     1       0.141  12.908  20.293  0.00  0.00    +0.000 C 
ATOM      7  S   UNL     1      -0.170  11.433  21.305  0.00  0.00    +0.000 S 
ATOM      8  C   UNL     1       0.725  10.227  20.359  0.00  0.00    +0.000 A 
ATOM      9  C   UNL     1       1.116   9.051  21.013  0.00  0.00    +0.000 A 
ATOM     10  C   UNL     1       1.732   8.012  20.311  0.00  0.00    +0.000 A 
ATOM     11  C   UNL     1       1.938   8.133  18.936  0.00  0.00    +0.000 A 
ATOM     12  C   UNL     1       1.576   9.320  18.278  0.00  0.00    +0.000 A 
ATOM     13  C   UNL     1       0.969  10.367  18.988  0.00  0.00    +0.000 A 
ATOM     14  N   UNL     1       0.558  11.504  18.275  0.00  0.00    +0.000 N 
ATOM     15  C   UNL     1      -0.003  12.641  18.798  0.00  0.00    +0.000 C 
ATOM     16  O   UNL     1      -0.483  13.465  18.017  0.00  0.00    +0.000 OA
ATOM     17  H   UNL     1       0.577  11.492  17.261  0.00  0.00    +0.000 HD
ENDBRANCH   1  11
BRANCH   3  18
ATOM     18  C   UNL     1       4.699   6.011  17.386  0.00  0.00    +0.000 A 
ATOM     19  C   UNL     1       4.944   6.018  16.029  0.00  0.00    +0.000 A 
ATOM     20  C   UNL     1       5.712   4.869  15.777  0.00  0.00    +0.000 A 
ATOM     21  N   UNL     1       5.956   4.172  16.886  0.00  0.00    +0.000 NA
ATOM     22  N   UNL     1       5.323   4.869  17.858  0.00  0.00    +0.000 N 
BRANCH  22  23
ATOM     23  C   UNL     1       5.210   4.246  19.175  0.00  0.00    +0.000 C 
BRANCH  23  24
ATOM     24  C   UNL     1       3.771   4.012  19.574  0.00  0.00    +0.000 A 
ATOM     25  C   UNL     1       3.227   4.779  20.624  0.00  0.00    +0.000 A 
ATOM     26  C   UNL     1       1.886   4.653  20.988  0.00  0.00    +0.000 A 
ATOM     27  C   UNL     1       1.059   3.766  20.306  0.00  0.00    +0.000 A 
ATOM     28  C   UNL     1       1.579   2.980  19.278  0.00  0.00    +0.000 A 
ATOM     29 CL   UNL     1       0.493   1.907  18.465  0.00  0.00    +0.000 Cl
ATOM     30  C   UNL     1       2.935   3.087  18.921  0.00  0.00    +0.000 A 
ATOM     31 CL   UNL     1       3.590   2.055  17.691  0.00  0.00    +0.000 Cl
ENDBRANCH  23  24
ENDBRANCH  22  23
ENDBRANCH   3  18
TORSDOF 4
ENDMDL
MODEL 7
REMARK VINA RESULT:      -8.4      2.042      2.431
REMARK  Name = 
REMARK  5 active torsions:
REMARK  status: ('A' for Active; 'I' for Inactive)
REMARK    1  A    between atoms: C_1  and  C_2
REMARK    2  A    between atoms: C_7  and  C_8
REMARK    3  A    between atoms: N_10  and  C_11
REMARK    4  A    between atoms: N_15  and  C_16
REMARK    5  A    between atoms: C_16  and  C_17
REMARK                            x       y       z     vdW  Elec       q    Type
REMARK                         _______ _______ _______ _____ _____    ______ ____
ROOT
ATOM      1  C   UNL     1       3.615   7.389  17.470  0.00  0.00    +0.000 C 
ATOM      2  O   UNL     1       3.573   7.552  16.265  0.00  0.00    +0.000 OA
ATOM      3  N   UNL     1       4.529   6.452  18.078  0.00  0.00    +0.000 N 
ATOM      4  H   UNL     1       4.425   6.237  19.063  0.00  0.00    +0.000 HD
ENDROOT
BRANCH   1  11
ATOM      5  C   UNL     1      -1.714  12.471  21.023  0.00  0.00    +0.000 C 
ATOM      6  C   UNL     1      -0.469  11.777  20.475  0.00  0.00    +0.000 C 
ATOM      7  S   UNL     1      -0.493  10.052  21.044  0.00  0.00    +0.000 S 
ATOM      8  C   UNL     1       0.785   9.379  20.013  0.00  0.00    +0.000 A 
ATOM      9  C   UNL     1       1.396   8.190  20.431  0.00  0.00    +0.000 A 
ATOM     10  C   UNL     1       2.336   7.546  19.624  0.00  0.00    +0.000 A 
ATOM     11  C   UNL     1       2.654   8.076  18.373  0.00  0.00    +0.000 A 
ATOM     12  C   UNL     1       2.069   9.284  17.958  0.00  0.00    +0.000 A 
ATOM     13  C   UNL     1       1.134   9.936  18.776  0.00  0.00    +0.000 A 
ATOM     14  N   UNL     1       0.521  11.100  18.289  0.00  0.00    +0.000 N 
ATOM     15  C   UNL     1      -0.373  11.897  18.958  0.00  0.00    +0.000 C 
ATOM     16  O   UNL     1      -0.962  12.772  18.321  0.00  0.00    +0.000 OA
ATOM     17  H   UNL     1       0.654  11.368  17.320  0.00  0.00    +0.000 HD
ENDBRANCH   1  11
BRANCH   3  18
ATOM     18  C   UNL     1       5.517   5.771  17.364  0.00  0.00    +0.000 A 
ATOM     19  C   UNL     1       6.746   6.258  16.971  0.00  0.00    +0.000 A 
ATOM     20  C   UNL     1       7.380   5.194  16.308  0.00  0.00    +0.000 A 
ATOM     21  N   UNL     1       6.626   4.097  16.278  0.00  0.00    +0.000 NA
ATOM     22  N   UNL     1       5.487   4.462  16.912  0.00  0.00    +0.000 N 
BRANCH  22  23
ATOM     23  C   UNL     1       4.354   3.542  16.855  0.00  0.00    +0.000 C 
BRANCH  23  24
ATOM     24  C   UNL     1       3.786   3.251  18.225  0.00  0.00    +0.000 A 
ATOM     25  C   UNL     1       4.571   2.524  19.142  0.00  0.00    +0.000 A 
ATOM     26  C   UNL     1       4.125   2.286  20.443  0.00  0.00    +0.000 A 
ATOM     27  C   UNL     1       2.890   2.776  20.857  0.00  0.00    +0.000 A 
ATOM     28  C   UNL     1       2.085   3.480  19.960  0.00  0.00    +0.000 A 
ATOM     29 CL   UNL     1       0.568   4.071  20.544  0.00  0.00    +0.000 Cl
ATOM     30  C   UNL     1       2.520   3.704  18.643  0.00  0.00    +0.000 A 
ATOM     31 CL   UNL     1       1.484   4.516  17.515  0.00  0.00    +0.000 Cl
ENDBRANCH  23  24
ENDBRANCH  22  23
ENDBRANCH   3  18
TORSDOF 4
ENDMDL
MODEL 8
REMARK VINA RESULT:      -8.3      4.125      8.611
REMARK  Name = 
REMARK  5 active torsions:
REMARK  status: ('A' for Active; 'I' for Inactive)
REMARK    1  A    between atoms: C_1  and  C_2
REMARK    2  A    between atoms: C_7  and  C_8
REMARK    3  A    between atoms: N_10  and  C_11
REMARK    4  A    between atoms: N_15  and  C_16
REMARK    5  A    between atoms: C_16  and  C_17
REMARK                            x       y       z     vdW  Elec       q    Type
REMARK                         _______ _______ _______ _____ _____    ______ ____
ROOT
ATOM      1  C   UNL     1       1.089   9.123  21.358  0.00  0.00    +0.000 C 
ATOM      2  O   UNL     1       1.717   9.488  22.334  0.00  0.00    +0.000 OA
ATOM      3  N   UNL     1      -0.194   9.694  21.025  0.00  0.00    +0.000 N 
ATOM      4  H   UNL     1      -0.749   9.258  20.298  0.00  0.00    +0.000 HD
ENDROOT
BRANCH   1  11
ATOM      5  C   UNL     1       3.251   1.876  18.253  0.00  0.00    +0.000 C 
ATOM      6  C   UNL     1       3.175   3.198  19.011  0.00  0.00    +0.000 C 
ATOM      7  S   UNL     1       2.795   4.511  17.815  0.00  0.00    +0.000 S 
ATOM      8  C   UNL     1       2.394   5.828  18.934  0.00  0.00    +0.000 A 
ATOM      9  C   UNL     1       2.473   7.139  18.446  0.00  0.00    +0.000 A 
ATOM     10  C   UNL     1       2.074   8.222  19.233  0.00  0.00    +0.000 A 
ATOM     11  C   UNL     1       1.566   7.996  20.513  0.00  0.00    +0.000 A 
ATOM     12  C   UNL     1       1.511   6.688  21.022  0.00  0.00    +0.000 A 
ATOM     13  C   UNL     1       1.924   5.603  20.234  0.00  0.00    +0.000 A 
ATOM     14  N   UNL     1       1.782   4.309  20.756  0.00  0.00    +0.000 N 
ATOM     15  C   UNL     1       2.173   3.137  20.159  0.00  0.00    +0.000 C 
ATOM     16  O   UNL     1       1.802   2.076  20.665  0.00  0.00    +0.000 OA
ATOM     17  H   UNL     1       1.265   4.171  21.618  0.00  0.00    +0.000 HD
ENDBRANCH   1  11
BRANCH   3  18
ATOM     18  C   UNL     1      -0.746  10.787  21.698  0.00  0.00    +0.000 A 
ATOM     19  C   UNL     1      -1.174  10.830  23.008  0.00  0.00    +0.000 A 
ATOM     20  C   UNL     1      -1.622  12.144  23.217  0.00  0.00    +0.000 A 
ATOM     21  N   UNL     1      -1.489  12.902  22.129  0.00  0.00    +0.000 NA
ATOM     22  N   UNL     1      -0.967  12.062  21.205  0.00  0.00    +0.000 N 
BRANCH  22  23
ATOM     23  C   UNL     1      -0.904  12.530  19.822  0.00  0.00    +0.000 C 
BRANCH  23  24
ATOM     24  C   UNL     1      -1.761  11.695  18.898  0.00  0.00    +0.000 A 
ATOM     25  C   UNL     1      -1.129  10.786  18.027  0.00  0.00    +0.000 A 
ATOM     26  C   UNL     1      -1.873   9.942  17.202  0.00  0.00    +0.000 A 
ATOM     27  C   UNL     1      -3.264   9.983  17.236  0.00  0.00    +0.000 A 
ATOM     28  C   UNL     1      -3.913  10.890  18.074  0.00  0.00    +0.000 A 
ATOM     29 CL   UNL     1      -5.643  10.879  18.076  0.00  0.00    +0.000 Cl
ATOM     30  C   UNL     1      -3.168  11.757  18.892  0.00  0.00    +0.000 A 
ATOM     31 CL   UNL     1      -3.981  12.930  19.877  0.00  0.00    +0.000 Cl
ENDBRANCH  23  24
ENDBRANCH  22  23
ENDBRANCH   3  18
TORSDOF 4
ENDMDL
MODEL 9
REMARK VINA RESULT:      -8.3      4.494      8.776
REMARK  Name = 
REMARK  5 active torsions:
REMARK  status: ('A' for Active; 'I' for Inactive)
REMARK    1  A    between atoms: C_1  and  C_2
REMARK    2  A    between atoms: C_7  and  C_8
REMARK    3  A    between atoms: N_10  and  C_11
REMARK    4  A    between atoms: N_15  and  C_16
REMARK    5  A    between atoms: C_16  and  C_17
REMARK                            x       y       z     vdW  Elec       q    Type
REMARK                         _______ _______ _______ _____ _____    ______ ____
ROOT
ATOM      1  C   UNL     1       1.488   8.650  20.044  0.00  0.00    +0.000 C 
ATOM      2  O   UNL     1       0.923   8.587  21.120  0.00  0.00    +0.000 OA
ATOM      3  N   UNL     1       1.406   9.826  19.212  0.00  0.00    +0.000 N 
ATOM      4  H   UNL     1       1.762   9.780  18.264  0.00  0.00    +0.000 HD
ENDROOT
BRANCH   1  11
ATOM      5  C   UNL     1       5.979   3.451  15.612  0.00  0.00    +0.000 C 
ATOM      6  C   UNL     1       4.887   4.359  16.171  0.00  0.00    +0.000 C 
ATOM      7  S   UNL     1       4.639   3.929  17.918  0.00  0.00    +0.000 S 
ATOM      8  C   UNL     1       3.647   5.309  18.429  0.00  0.00    +0.000 A 
ATOM      9  C   UNL     1       2.867   5.155  19.582  0.00  0.00    +0.000 A 
ATOM     10  C   UNL     1       2.141   6.228  20.104  0.00  0.00    +0.000 A 
ATOM     11  C   UNL     1       2.212   7.477  19.486  0.00  0.00    +0.000 A 
ATOM     12  C   UNL     1       2.967   7.634  18.312  0.00  0.00    +0.000 A 
ATOM     13  C   UNL     1       3.686   6.551  17.783  0.00  0.00    +0.000 A 
ATOM     14  N   UNL     1       4.486   6.773  16.652  0.00  0.00    +0.000 N 
ATOM     15  C   UNL     1       5.215   5.834  15.967  0.00  0.00    +0.000 C 
ATOM     16  O   UNL     1       6.013   6.227  15.114  0.00  0.00    +0.000 OA
ATOM     17  H   UNL     1       4.639   7.721  16.325  0.00  0.00    +0.000 HD
ENDBRANCH   1  11
BRANCH   3  18
ATOM     18  C   UNL     1       0.802  11.017  19.622  0.00  0.00    +0.000 A 
ATOM     19  C   UNL     1       1.432  12.159  20.069  0.00  0.00    +0.000 A 
ATOM     20  C   UNL     1       0.404  13.078  20.337  0.00  0.00    +0.000 A 
ATOM     21  N   UNL     1      -0.802  12.575  20.077  0.00  0.00    +0.000 NA
ATOM     22  N   UNL     1      -0.549  11.315  19.655  0.00  0.00    +0.000 N 
BRANCH  22  23
ATOM     23  C   UNL     1      -1.687  10.412  19.497  0.00  0.00    +0.000 C 
BRANCH  23  24
ATOM     24  C   UNL     1      -2.446  10.668  18.214  0.00  0.00    +0.000 A 
ATOM     25  C   UNL     1      -1.985  10.071  17.025  0.00  0.00    +0.000 A 
ATOM     26  C   UNL     1      -2.684  10.218  15.826  0.00  0.00    +0.000 A 
ATOM     27  C   UNL     1      -3.863  10.957  15.793  0.00  0.00    +0.000 A 
ATOM     28  C   UNL     1      -4.328  11.577  16.953  0.00  0.00    +0.000 A 
ATOM     29 CL   UNL     1      -5.805  12.470  16.844  0.00  0.00    +0.000 Cl
ATOM     30  C   UNL     1      -3.616  11.449  18.159  0.00  0.00    +0.000 A 
ATOM     31 CL   UNL     1      -4.162  12.282  19.579  0.00  0.00    +0.000 Cl
ENDBRANCH  23  24
ENDBRANCH  22  23
ENDBRANCH   3  18
TORSDOF 4
ENDMDL
