MODEL 1
REMARK VINA RESULT:      -9.3      0.000      0.000
REMARK  Name = 
REMARK  4 active torsions:
REMARK  status: ('A' for Active; 'I' for Inactive)
REMARK    1  A    between atoms: C_2  and  C_3
REMARK    2  A    between atoms: C_3  and  C_4
REMARK    3  A    between atoms: C_4  and  C_5
REMARK    4  A    between atoms: C_8  and  C_9
REMARK                            x       y       z     vdW  Elec       q    Type
REMARK                         _______ _______ _______ _____ _____    ______ ____
ROOT
ATOM      1  O   UNL     1       7.633   7.757  16.961  0.00  0.00    +0.000 OA
ATOM      2  C   UNL     1       7.970   7.503  18.111  0.00  0.00    +0.000 C 
ATOM      3  N   UNL     1       8.530   8.363  19.021  0.00  0.00    +0.000 N 
ATOM      4  C   UNL     1       8.760   9.692  18.817  0.00  0.00    +0.000 A 
ATOM      5  N   UNL     1       8.273  10.552  17.959  0.00  0.00    +0.000 NA
ATOM      6  C   UNL     1       8.856  11.807  18.175  0.00  0.00    +0.000 A 
ATOM      7  C   UNL     1       8.602  13.025  17.496  0.00  0.00    +0.000 A 
ATOM      8  F   UNL     1       7.656  13.102  16.549  0.00  0.00    +0.000 F 
ATOM      9  C   UNL     1       9.327  14.182  17.799  0.00  0.00    +0.000 A 
ATOM     10  C   UNL     1      10.307  14.138  18.777  0.00  0.00    +0.000 A 
ATOM     11  F   UNL     1      11.019  15.241  19.047  0.00  0.00    +0.000 F 
ATOM     12  C   UNL     1      10.565  12.980  19.500  0.00  0.00    +0.000 A 
ATOM     13  C   UNL     1       9.818  11.833  19.190  0.00  0.00    +0.000 A 
ATOM     14  S   UNL     1       9.888  10.297  19.947  0.00  0.00    +0.000 S 
ATOM     15  H   UNL     1       9.012   7.964  19.823  0.00  0.00    +0.000 HD
ENDROOT
BRANCH   2  16
ATOM     16  C   UNL     1       7.841   6.087  18.670  0.00  0.00    +0.000 C 
BRANCH  16  17
ATOM     17  C   UNL     1       7.647   5.022  17.589  0.00  0.00    +0.000 C 
BRANCH  17  18
ATOM     18  C   UNL     1       6.245   4.529  17.514  0.00  0.00    +0.000 A 
ATOM     19  N   UNL     1       5.544   4.230  16.435  0.00  0.00    +0.000 NA
ATOM     20  C   UNL     1       4.327   3.848  16.941  0.00  0.00    +0.000 A 
ATOM     21  C   UNL     1       4.319   3.944  18.317  0.00  0.00    +0.000 A 
ATOM     22  O   UNL     1       5.564   4.383  18.693  0.00  0.00    +0.000 OA
BRANCH  21  23
ATOM     23  C   UNL     1       3.324   3.696  19.350  0.00  0.00    +0.000 A 
ATOM     24  C   UNL     1       3.528   2.796  20.401  0.00  0.00    +0.000 A 
ATOM     25  F   UNL     1       4.687   2.130  20.520  0.00  0.00    +0.000 F 
ATOM     26  C   UNL     1       2.532   2.533  21.347  0.00  0.00    +0.000 A 
ATOM     27  C   UNL     1       1.297   3.178  21.263  0.00  0.00    +0.000 A 
ATOM     28  C   UNL     1       1.076   4.091  20.238  0.00  0.00    +0.000 A 
ATOM     29  C   UNL     1       2.078   4.339  19.299  0.00  0.00    +0.000 A 
ATOM     30  F   UNL     1       1.815   5.227  18.327  0.00  0.00    +0.000 F 
ENDBRANCH  21  23
ENDBRANCH  17  18
ENDBRANCH  16  17
ENDBRANCH   2  16
TORSDOF 4
ENDMDL
MODEL 2
REMARK VINA RESULT:      -9.1      2.385     10.599
REMARK  Name = 
REMARK  4 active torsions:
REMARK  status: ('A' for Active; 'I' for Inactive)
REMARK    1  A    between atoms: C_2  and  C_3
REMARK    2  A    between atoms: C_3  and  C_4
REMARK    3  A    between atoms: C_4  and  C_5
REMARK    4  A    between atoms: C_8  and  C_9
REMARK                            x       y       z     vdW  Elec       q    Type
REMARK                         _______ _______ _______ _____ _____    ______ ____
ROOT
ATOM      1  O   UNL     1       7.983   5.251  18.641  0.00  0.00    +0.000 OA
ATOM      2  C   UNL     1       7.418   6.210  18.128  0.00  0.00    +0.000 C 
ATOM      3  N   UNL     1       6.072   6.364  17.917  0.00  0.00    +0.000 N 
ATOM      4  C   UNL     1       5.104   5.482  18.300  0.00  0.00    +0.000 A 
ATOM      5  N   UNL     1       5.088   4.516  19.183  0.00  0.00    +0.000 NA
ATOM      6  C   UNL     1       3.829   3.903  19.181  0.00  0.00    +0.000 A 
ATOM      7  C   UNL     1       3.365   2.837  19.992  0.00  0.00    +0.000 A 
ATOM      8  F   UNL     1       4.139   2.319  20.957  0.00  0.00    +0.000 F 
ATOM      9  C   UNL     1       2.087   2.300  19.812  0.00  0.00    +0.000 A 
ATOM     10  C   UNL     1       1.261   2.815  18.829  0.00  0.00    +0.000 A 
ATOM     11  F   UNL     1       0.046   2.282  18.640  0.00  0.00    +0.000 F 
ATOM     12  C   UNL     1       1.651   3.887  18.035  0.00  0.00    +0.000 A 
ATOM     13  C   UNL     1       2.933   4.421  18.239  0.00  0.00    +0.000 A 
ATOM     14  S   UNL     1       3.651   5.763  17.449  0.00  0.00    +0.000 S 
ATOM     15  H   UNL     1       5.770   7.063  17.242  0.00  0.00    +0.000 HD
ENDROOT
BRANCH   2  16
ATOM     16  C   UNL     1       8.219   7.393  17.587  0.00  0.00    +0.000 C 
BRANCH  16  17
ATOM     17  C   UNL     1       7.532   8.742  17.806  0.00  0.00    +0.000 C 
BRANCH  17  18
ATOM     18  C   UNL     1       8.452   9.771  18.364  0.00  0.00    +0.000 A 
ATOM     19  N   UNL     1       9.209   9.687  19.443  0.00  0.00    +0.000 NA
ATOM     20  C   UNL     1       9.829  10.910  19.495  0.00  0.00    +0.000 A 
ATOM     21  C   UNL     1       9.414  11.711  18.451  0.00  0.00    +0.000 A 
ATOM     22  O   UNL     1       8.522  10.973  17.713  0.00  0.00    +0.000 OA
BRANCH  21  23
ATOM     23  C   UNL     1       9.712  13.072  18.029  0.00  0.00    +0.000 A 
ATOM     24  C   UNL     1      10.868  13.410  17.320  0.00  0.00    +0.000 A 
ATOM     25  F   UNL     1      11.757  12.470  16.964  0.00  0.00    +0.000 F 
ATOM     26  C   UNL     1      11.160  14.736  16.979  0.00  0.00    +0.000 A 
ATOM     27  C   UNL     1      10.285  15.761  17.340  0.00  0.00    +0.000 A 
ATOM     28  C   UNL     1       9.120  15.448  18.031  0.00  0.00    +0.000 A 
ATOM     29  C   UNL     1       8.845  14.122  18.368  0.00  0.00    +0.000 A 
ATOM     30  F   UNL     1       7.709  13.871  19.036  0.00  0.00    +0.000 F 
ENDBRANCH  21  23
ENDBRANCH  17  18
ENDBRANCH  16  17
ENDBRANCH   2  16
TORSDOF 4
ENDMDL
MODEL 3
REMARK VINA RESULT:      -9.1      2.546     10.632
REMARK  Name = 
REMARK  4 active torsions:
REMARK  status: ('A' for Active; 'I' for Inactive)
REMARK    1  A    between atoms: C_2  and  C_3
REMARK    2  A    between atoms: C_3  and  C_4
REMARK    3  A    between atoms: C_4  and  C_5
REMARK    4  A    between atoms: C_8  and  C_9
REMARK                            x       y       z     vdW  Elec       q    Type
REMARK                         _______ _______ _______ _____ _____    ______ ____
ROOT
ATOM      1  O   UNL     1       7.351   5.956  19.961  0.00  0.00    +0.000 OA
ATOM      2  C   UNL     1       7.145   6.324  18.811  0.00  0.00    +0.000 C 
ATOM      3  N   UNL     1       6.041   6.062  18.040  0.00  0.00    +0.000 N 
ATOM      4  C   UNL     1       4.933   5.378  18.450  0.00  0.00    +0.000 A 
ATOM      5  N   UNL     1       4.458   5.095  19.636  0.00  0.00    +0.000 NA
ATOM      6  C   UNL     1       3.279   4.353  19.500  0.00  0.00    +0.000 A 
ATOM      7  C   UNL     1       2.424   3.861  20.519  0.00  0.00    +0.000 A 
ATOM      8  F   UNL     1       2.657   4.142  21.809  0.00  0.00    +0.000 F 
ATOM      9  C   UNL     1       1.311   3.075  20.206  0.00  0.00    +0.000 A 
ATOM     10  C   UNL     1       1.037   2.771  18.883  0.00  0.00    +0.000 A 
ATOM     11  F   UNL     1      -0.015   1.996  18.587  0.00  0.00    +0.000 F 
ATOM     12  C   UNL     1       1.820   3.263  17.845  0.00  0.00    +0.000 A 
ATOM     13  C   UNL     1       2.925   4.061  18.178  0.00  0.00    +0.000 A 
ATOM     14  S   UNL     1       4.021   4.836  17.112  0.00  0.00    +0.000 S 
ATOM     15  H   UNL     1       6.120   6.184  17.033  0.00  0.00    +0.000 HD
ENDROOT
BRANCH   2  16
ATOM     16  C   UNL     1       8.195   7.129  18.046  0.00  0.00    +0.000 C 
BRANCH  16  17
ATOM     17  C   UNL     1       7.732   8.540  17.682  0.00  0.00    +0.000 C 
BRANCH  17  18
ATOM     18  C   UNL     1       8.531   9.599  18.357  0.00  0.00    +0.000 A 
ATOM     19  N   UNL     1       9.103   9.552  19.547  0.00  0.00    +0.000 NA
ATOM     20  C   UNL     1       9.686  10.788  19.670  0.00  0.00    +0.000 A 
ATOM     21  C   UNL     1       9.433  11.560  18.554  0.00  0.00    +0.000 A 
ATOM     22  O   UNL     1       8.685  10.789  17.699  0.00  0.00    +0.000 OA
BRANCH  21  23
ATOM     23  C   UNL     1       9.773  12.917  18.156  0.00  0.00    +0.000 A 
ATOM     24  C   UNL     1       8.944  14.014  18.411  0.00  0.00    +0.000 A 
ATOM     25  F   UNL     1       7.788  13.862  19.075  0.00  0.00    +0.000 F 
ATOM     26  C   UNL     1       9.267  15.299  17.963  0.00  0.00    +0.000 A 
ATOM     27  C   UNL     1      10.445  15.517  17.247  0.00  0.00    +0.000 A 
ATOM     28  C   UNL     1      11.295  14.446  16.996  0.00  0.00    +0.000 A 
ATOM     29  C   UNL     1      10.956  13.168  17.445  0.00  0.00    +0.000 A 
ATOM     30  F   UNL     1      11.808  12.167  17.175  0.00  0.00    +0.000 F 
ENDBRANCH  21  23
ENDBRANCH  17  18
ENDBRANCH  16  17
ENDBRANCH   2  16
TORSDOF 4
ENDMDL
MODEL 4
REMARK VINA RESULT:      -8.6      1.654      2.018
REMARK  Name = 
REMARK  4 active torsions:
REMARK  status: ('A' for Active; 'I' for Inactive)
REMARK    1  A    between atoms: C_2  and  C_3
REMARK    2  A    between atoms: C_3  and  C_4
REMARK    3  A    between atoms: C_4  and  C_5
REMARK    4  A    between atoms: C_8  and  C_9
REMARK                            x       y       z     vdW  Elec       q    Type
REMARK                         _______ _______ _______ _____ _____    ______ ____
ROOT
ATOM      1  O   UNL     1       8.551   7.761  18.927  0.00  0.00    +0.000 OA
ATOM      2  C   UNL     1       7.909   8.246  18.003  0.00  0.00    +0.000 C 
ATOM      3  N   UNL     1       7.935   9.546  17.566  0.00  0.00    +0.000 N 
ATOM      4  C   UNL     1       8.739  10.531  18.059  0.00  0.00    +0.000 A 
ATOM      5  N   UNL     1       9.845  10.502  18.758  0.00  0.00    +0.000 NA
ATOM      6  C   UNL     1      10.269  11.812  19.015  0.00  0.00    +0.000 A 
ATOM      7  C   UNL     1      11.426  12.244  19.710  0.00  0.00    +0.000 A 
ATOM      8  F   UNL     1      12.324  11.361  20.169  0.00  0.00    +0.000 F 
ATOM      9  C   UNL     1      11.666  13.604  19.933  0.00  0.00    +0.000 A 
ATOM     10  C   UNL     1      10.761  14.543  19.467  0.00  0.00    +0.000 A 
ATOM     11  F   UNL     1      10.979  15.843  19.704  0.00  0.00    +0.000 F 
ATOM     12  C   UNL     1       9.633  14.174  18.743  0.00  0.00    +0.000 A 
ATOM     13  C   UNL     1       9.417  12.805  18.519  0.00  0.00    +0.000 A 
ATOM     14  S   UNL     1       8.151  12.074  17.625  0.00  0.00    +0.000 S 
ATOM     15  H   UNL     1       7.163   9.872  16.989  0.00  0.00    +0.000 HD
ENDROOT
BRANCH   2  16
ATOM     16  C   UNL     1       6.904   7.402  17.220  0.00  0.00    +0.000 C 
BRANCH  16  17
ATOM     17  C   UNL     1       7.309   5.931  17.100  0.00  0.00    +0.000 C 
BRANCH  17  18
ATOM     18  C   UNL     1       6.136   5.016  17.042  0.00  0.00    +0.000 A 
ATOM     19  N   UNL     1       5.762   4.236  16.044  0.00  0.00    +0.000 NA
ATOM     20  C   UNL     1       4.623   3.635  16.518  0.00  0.00    +0.000 A 
ATOM     21  C   UNL     1       4.327   4.085  17.789  0.00  0.00    +0.000 A 
ATOM     22  O   UNL     1       5.309   4.981  18.132  0.00  0.00    +0.000 OA
BRANCH  21  23
ATOM     23  C   UNL     1       3.261   3.818  18.742  0.00  0.00    +0.000 A 
ATOM     24  C   UNL     1       2.875   2.525  19.108  0.00  0.00    +0.000 A 
ATOM     25  F   UNL     1       3.505   1.452  18.605  0.00  0.00    +0.000 F 
ATOM     26  C   UNL     1       1.806   2.296  19.981  0.00  0.00    +0.000 A 
ATOM     27  C   UNL     1       1.097   3.371  20.518  0.00  0.00    +0.000 A 
ATOM     28  C   UNL     1       1.473   4.667  20.185  0.00  0.00    +0.000 A 
ATOM     29  C   UNL     1       2.538   4.880  19.308  0.00  0.00    +0.000 A 
ATOM     30  F   UNL     1       2.860   6.149  19.015  0.00  0.00    +0.000 F 
ENDBRANCH  21  23
ENDBRANCH  17  18
ENDBRANCH  16  17
ENDBRANCH   2  16
TORSDOF 4
ENDMDL
MODEL 5
REMARK VINA RESULT:      -8.6      2.140      2.574
REMARK  Name = 
REMARK  4 active torsions:
REMARK  status: ('A' for Active; 'I' for Inactive)
REMARK    1  A    between atoms: C_2  and  C_3
REMARK    2  A    between atoms: C_3  and  C_4
REMARK    3  A    between atoms: C_4  and  C_5
REMARK    4  A    between atoms: C_8  and  C_9
REMARK                            x       y       z     vdW  Elec       q    Type
REMARK                         _______ _______ _______ _____ _____    ______ ____
ROOT
ATOM      1  O   UNL     1       8.697   7.999  18.962  0.00  0.00    +0.000 OA
ATOM      2  C   UNL     1       8.173   8.436  17.945  0.00  0.00    +0.000 C 
ATOM      3  N   UNL     1       8.168   9.735  17.505  0.00  0.00    +0.000 N 
ATOM      4  C   UNL     1       8.809  10.777  18.109  0.00  0.00    +0.000 A 
ATOM      5  N   UNL     1       9.791  10.830  18.972  0.00  0.00    +0.000 NA
ATOM      6  C   UNL     1      10.070  12.167  19.280  0.00  0.00    +0.000 A 
ATOM      7  C   UNL     1      11.068  12.684  20.143  0.00  0.00    +0.000 A 
ATOM      8  F   UNL     1      11.948  11.870  20.745  0.00  0.00    +0.000 F 
ATOM      9  C   UNL     1      11.167  14.058  20.389  0.00  0.00    +0.000 A 
ATOM     10  C   UNL     1      10.278  14.927  19.779  0.00  0.00    +0.000 A 
ATOM     11  F   UNL     1      10.357  16.239  20.035  0.00  0.00    +0.000 F 
ATOM     12  C   UNL     1       9.308  14.475  18.892  0.00  0.00    +0.000 A 
ATOM     13  C   UNL     1       9.233  13.095  18.649  0.00  0.00    +0.000 A 
ATOM     14  S   UNL     1       8.181  12.272  17.574  0.00  0.00    +0.000 S 
ATOM     15  H   UNL     1       7.474  10.004  16.813  0.00  0.00    +0.000 HD
ENDROOT
BRANCH   2  16
ATOM     16  C   UNL     1       7.369   7.520  17.022  0.00  0.00    +0.000 C 
BRANCH  16  17
ATOM     17  C   UNL     1       6.805   6.288  17.731  0.00  0.00    +0.000 C 
BRANCH  17  18
ATOM     18  C   UNL     1       5.319   6.309  17.825  0.00  0.00    +0.000 A 
ATOM     19  N   UNL     1       4.498   7.292  17.505  0.00  0.00    +0.000 NA
ATOM     20  C   UNL     1       3.259   6.784  17.804  0.00  0.00    +0.000 A 
ATOM     21  C   UNL     1       3.367   5.508  18.317  0.00  0.00    +0.000 A 
ATOM     22  O   UNL     1       4.704   5.196  18.330  0.00  0.00    +0.000 OA
BRANCH  21  23
ATOM     23  C   UNL     1       2.415   4.523  18.810  0.00  0.00    +0.000 A 
ATOM     24  C   UNL     1       1.776   4.638  20.048  0.00  0.00    +0.000 A 
ATOM     25  F   UNL     1       1.995   5.700  20.838  0.00  0.00    +0.000 F 
ATOM     26  C   UNL     1       0.911   3.647  20.523  0.00  0.00    +0.000 A 
ATOM     27  C   UNL     1       0.660   2.509  19.757  0.00  0.00    +0.000 A 
ATOM     28  C   UNL     1       1.270   2.379  18.514  0.00  0.00    +0.000 A 
ATOM     29  C   UNL     1       2.135   3.374  18.055  0.00  0.00    +0.000 A 
ATOM     30  F   UNL     1       2.700   3.201  16.851  0.00  0.00    +0.000 F 
ENDBRANCH  21  23
ENDBRANCH  17  18
ENDBRANCH  16  17
ENDBRANCH   2  16
TORSDOF 4
ENDMDL
MODEL 6
REMARK VINA RESULT:      -8.5      6.034      9.070
REMARK  Name = 
REMARK  4 active torsions:
REMARK  status: ('A' for Active; 'I' for Inactive)
REMARK    1  A    between atoms: C_2  and  C_3
REMARK    2  A    between atoms: C_3  and  C_4
REMARK    3  A    between atoms: C_4  and  C_5
REMARK    4  A    between atoms: C_8  and  C_9
REMARK                            x       y       z     vdW  Elec       q    Type
REMARK                         _______ _______ _______ _____ _____    ______ ____
ROOT
ATOM      1  O   UNL     1       1.824   5.595  21.158  0.00  0.00    +0.000 OA
ATOM      2  C   UNL     1       1.601   6.690  20.655  0.00  0.00    +0.000 C 
ATOM      3  N   UNL     1       2.101   7.179  19.476  0.00  0.00    +0.000 N 
ATOM      4  C   UNL     1       2.906   6.494  18.612  0.00  0.00    +0.000 A 
ATOM      5  N   UNL     1       3.146   5.218  18.451  0.00  0.00    +0.000 NA
ATOM      6  C   UNL     1       4.070   5.045  17.414  0.00  0.00    +0.000 A 
ATOM      7  C   UNL     1       4.590   3.835  16.888  0.00  0.00    +0.000 A 
ATOM      8  F   UNL     1       4.157   2.648  17.336  0.00  0.00    +0.000 F 
ATOM      9  C   UNL     1       5.564   3.846  15.885  0.00  0.00    +0.000 A 
ATOM     10  C   UNL     1       6.028   5.055  15.396  0.00  0.00    +0.000 A 
ATOM     11  F   UNL     1       6.981   5.065  14.453  0.00  0.00    +0.000 F 
ATOM     12  C   UNL     1       5.522   6.268  15.848  0.00  0.00    +0.000 A 
ATOM     13  C   UNL     1       4.536   6.236  16.846  0.00  0.00    +0.000 A 
ATOM     14  S   UNL     1       3.705   7.562  17.546  0.00  0.00    +0.000 S 
ATOM     15  H   UNL     1       2.064   8.183  19.320  0.00  0.00    +0.000 HD
ENDROOT
BRANCH   2  16
ATOM     16  C   UNL     1       0.720   7.714  21.369  0.00  0.00    +0.000 C 
BRANCH  16  17
ATOM     17  C   UNL     1       1.384   9.084  21.520  0.00  0.00    +0.000 C 
BRANCH  17  18
ATOM     18  C   UNL     1       0.703  10.143  20.724  0.00  0.00    +0.000 A 
ATOM     19  N   UNL     1       0.971  11.436  20.693  0.00  0.00    +0.000 NA
ATOM     20  C   UNL     1       0.039  11.934  19.817  0.00  0.00    +0.000 A 
ATOM     21  C   UNL     1      -0.782  10.926  19.355  0.00  0.00    +0.000 A 
ATOM     22  O   UNL     1      -0.352   9.762  19.941  0.00  0.00    +0.000 OA
BRANCH  21  23
ATOM     23  C   UNL     1      -1.922  10.874  18.451  0.00  0.00    +0.000 A 
ATOM     24  C   UNL     1      -1.929  10.108  17.281  0.00  0.00    +0.000 A 
ATOM     25  F   UNL     1      -0.872   9.350  16.950  0.00  0.00    +0.000 F 
ATOM     26  C   UNL     1      -3.014  10.124  16.399  0.00  0.00    +0.000 A 
ATOM     27  C   UNL     1      -4.133  10.910  16.677  0.00  0.00    +0.000 A 
ATOM     28  C   UNL     1      -4.158  11.667  17.843  0.00  0.00    +0.000 A 
ATOM     29  C   UNL     1      -3.065  11.645  18.711  0.00  0.00    +0.000 A 
ATOM     30  F   UNL     1      -3.136  12.394  19.822  0.00  0.00    +0.000 F 
ENDBRANCH  21  23
ENDBRANCH  17  18
ENDBRANCH  16  17
ENDBRANCH   2  16
TORSDOF 4
ENDMDL
MODEL 7
REMARK VINA RESULT:      -8.5      1.480      1.957
REMARK  Name = 
REMARK  4 active torsions:
REMARK  status: ('A' for Active; 'I' for Inactive)
REMARK    1  A    between atoms: C_2  and  C_3
REMARK    2  A    between atoms: C_3  and  C_4
REMARK    3  A    between atoms: C_4  and  C_5
REMARK    4  A    between atoms: C_8  and  C_9
REMARK                            x       y       z     vdW  Elec       q    Type
REMARK                         _______ _______ _______ _____ _____    ______ ____
ROOT
ATOM      1  O   UNL     1       7.448   9.231  17.141  0.00  0.00    +0.000 OA
ATOM      2  C   UNL     1       8.128   8.808  18.068  0.00  0.00    +0.000 C 
ATOM      3  N   UNL     1       9.016   9.517  18.836  0.00  0.00    +0.000 N 
ATOM      4  C   UNL     1       9.258  10.856  18.736  0.00  0.00    +0.000 A 
ATOM      5  N   UNL     1       8.575  11.840  18.208  0.00  0.00    +0.000 NA
ATOM      6  C   UNL     1       9.283  13.037  18.370  0.00  0.00    +0.000 A 
ATOM      7  C   UNL     1       8.904  14.345  17.976  0.00  0.00    +0.000 A 
ATOM      8  F   UNL     1       7.706  14.578  17.420  0.00  0.00    +0.000 F 
ATOM      9  C   UNL     1       9.768  15.430  18.159  0.00  0.00    +0.000 A 
ATOM     10  C   UNL     1      11.010  15.225  18.735  0.00  0.00    +0.000 A 
ATOM     11  F   UNL     1      11.847  16.261  18.886  0.00  0.00    +0.000 F 
ATOM     12  C   UNL     1      11.412  13.970  19.177  0.00  0.00    +0.000 A 
ATOM     13  C   UNL     1      10.526  12.897  18.996  0.00  0.00    +0.000 A 
ATOM     14  S   UNL     1      10.735  11.267  19.486  0.00  0.00    +0.000 S 
ATOM     15  H   UNL     1       9.707   8.997  19.372  0.00  0.00    +0.000 HD
ENDROOT
BRANCH   2  16
ATOM     16  C   UNL     1       8.092   7.331  18.456  0.00  0.00    +0.000 C 
BRANCH  16  17
ATOM     17  C   UNL     1       7.485   6.434  17.375  0.00  0.00    +0.000 C 
BRANCH  17  18
ATOM     18  C   UNL     1       6.007   6.308  17.497  0.00  0.00    +0.000 A 
ATOM     19  N   UNL     1       5.077   6.966  16.828  0.00  0.00    +0.000 NA
ATOM     20  C   UNL     1       3.904   6.474  17.345  0.00  0.00    +0.000 A 
ATOM     21  C   UNL     1       4.159   5.543  18.330  0.00  0.00    +0.000 A 
ATOM     22  O   UNL     1       5.523   5.431  18.430  0.00  0.00    +0.000 OA
BRANCH  21  23
ATOM     23  C   UNL     1       3.326   4.736  19.210  0.00  0.00    +0.000 A 
ATOM     24  C   UNL     1       2.462   5.292  20.158  0.00  0.00    +0.000 A 
ATOM     25  F   UNL     1       2.340   6.623  20.280  0.00  0.00    +0.000 F 
ATOM     26  C   UNL     1       1.717   4.492  21.032  0.00  0.00    +0.000 A 
ATOM     27  C   UNL     1       1.819   3.102  20.969  0.00  0.00    +0.000 A 
ATOM     28  C   UNL     1       2.658   2.525  20.023  0.00  0.00    +0.000 A 
ATOM     29  C   UNL     1       3.399   3.336  19.161  0.00  0.00    +0.000 A 
ATOM     30  F   UNL     1       4.196   2.730  18.268  0.00  0.00    +0.000 F 
ENDBRANCH  21  23
ENDBRANCH  17  18
ENDBRANCH  16  17
ENDBRANCH   2  16
TORSDOF 4
ENDMDL
MODEL 8
REMARK VINA RESULT:      -8.4      2.400     10.402
REMARK  Name = 
REMARK  4 active torsions:
REMARK  status: ('A' for Active; 'I' for Inactive)
REMARK    1  A    between atoms: C_2  and  C_3
REMARK    2  A    between atoms: C_3  and  C_4
REMARK    3  A    between atoms: C_4  and  C_5
REMARK    4  A    between atoms: C_8  and  C_9
REMARK                            x       y       z     vdW  Elec       q    Type
REMARK                         _______ _______ _______ _____ _____    ______ ____
ROOT
ATOM      1  O   UNL     1       7.350   5.918  19.974  0.00  0.00    +0.000 OA
ATOM      2  C   UNL     1       7.153   6.277  18.819  0.00  0.00    +0.000 C 
ATOM      3  N   UNL     1       6.053   6.013  18.044  0.00  0.00    +0.000 N 
ATOM      4  C   UNL     1       4.940   5.339  18.452  0.00  0.00    +0.000 A 
ATOM      5  N   UNL     1       4.455   5.070  19.637  0.00  0.00    +0.000 NA
ATOM      6  C   UNL     1       3.272   4.332  19.500  0.00  0.00    +0.000 A 
ATOM      7  C   UNL     1       2.408   3.855  20.517  0.00  0.00    +0.000 A 
ATOM      8  F   UNL     1       2.634   4.146  21.807  0.00  0.00    +0.000 F 
ATOM      9  C   UNL     1       1.292   3.072  20.204  0.00  0.00    +0.000 A 
ATOM     10  C   UNL     1       1.026   2.758  18.883  0.00  0.00    +0.000 A 
ATOM     11  F   UNL     1      -0.028   1.985  18.586  0.00  0.00    +0.000 F 
ATOM     12  C   UNL     1       1.818   3.235  17.845  0.00  0.00    +0.000 A 
ATOM     13  C   UNL     1       2.926   4.031  18.179  0.00  0.00    +0.000 A 
ATOM     14  S   UNL     1       4.034   4.790  17.113  0.00  0.00    +0.000 S 
ATOM     15  H   UNL     1       6.140   6.126  17.036  0.00  0.00    +0.000 HD
ENDROOT
BRANCH   2  16
ATOM     16  C   UNL     1       8.213   7.068  18.054  0.00  0.00    +0.000 C 
BRANCH  16  17
ATOM     17  C   UNL     1       7.723   8.438  17.579  0.00  0.00    +0.000 C 
BRANCH  17  18
ATOM     18  C   UNL     1       8.443   9.564  18.235  0.00  0.00    +0.000 A 
ATOM     19  N   UNL     1       9.240   9.517  19.287  0.00  0.00    +0.000 NA
ATOM     20  C   UNL     1       9.609  10.827  19.467  0.00  0.00    +0.000 A 
ATOM     21  C   UNL     1       9.005  11.636  18.526  0.00  0.00    +0.000 A 
ATOM     22  O   UNL     1       8.249  10.819  17.723  0.00  0.00    +0.000 OA
BRANCH  21  23
ATOM     23  C   UNL     1       9.014  13.066  18.255  0.00  0.00    +0.000 A 
ATOM     24  C   UNL     1      10.115  13.884  18.526  0.00  0.00    +0.000 A 
ATOM     25  F   UNL     1      11.247  13.367  19.031  0.00  0.00    +0.000 F 
ATOM     26  C   UNL     1      10.075  15.266  18.312  0.00  0.00    +0.000 A 
ATOM     27  C   UNL     1       8.919  15.864  17.810  0.00  0.00    +0.000 A 
ATOM     28  C   UNL     1       7.816  15.071  17.516  0.00  0.00    +0.000 A 
ATOM     29  C   UNL     1       7.869  13.694  17.740  0.00  0.00    +0.000 A 
ATOM     30  F   UNL     1       6.778  12.972  17.442  0.00  0.00    +0.000 F 
ENDBRANCH  21  23
ENDBRANCH  17  18
ENDBRANCH  16  17
ENDBRANCH   2  16
TORSDOF 4
ENDMDL
MODEL 9
REMARK VINA RESULT:      -8.3      7.329      9.655
REMARK  Name = 
REMARK  4 active torsions:
REMARK  status: ('A' for Active; 'I' for Inactive)
REMARK    1  A    between atoms: C_2  and  C_3
REMARK    2  A    between atoms: C_3  and  C_4
REMARK    3  A    between atoms: C_4  and  C_5
REMARK    4  A    between atoms: C_8  and  C_9
REMARK                            x       y       z     vdW  Elec       q    Type
REMARK                         _______ _______ _______ _____ _____    ______ ____
ROOT
ATOM      1  O   UNL     1       0.678  11.194  20.180  0.00  0.00    +0.000 OA
ATOM      2  C   UNL     1       0.741  10.942  18.983  0.00  0.00    +0.000 C 
ATOM      3  N   UNL     1      -0.288  10.959  18.076  0.00  0.00    +0.000 N 
ATOM      4  C   UNL     1      -1.576  11.322  18.345  0.00  0.00    +0.000 A 
ATOM      5  N   UNL     1      -2.113  12.017  19.315  0.00  0.00    +0.000 NA
ATOM      6  C   UNL     1      -3.498  12.093  19.121  0.00  0.00    +0.000 A 
ATOM      7  C   UNL     1      -4.463  12.768  19.911  0.00  0.00    +0.000 A 
ATOM      8  F   UNL     1      -4.094  13.505  20.968  0.00  0.00    +0.000 F 
ATOM      9  C   UNL     1      -5.825  12.687  19.606  0.00  0.00    +0.000 A 
ATOM     10  C   UNL     1      -6.240  11.938  18.518  0.00  0.00    +0.000 A 
ATOM     11  F   UNL     1      -7.547  11.840  18.243  0.00  0.00    +0.000 F 
ATOM     12  C   UNL     1      -5.331  11.292  17.688  0.00  0.00    +0.000 A 
ATOM     13  C   UNL     1      -3.967  11.397  18.002  0.00  0.00    +0.000 A 
ATOM     14  S   UNL     1      -2.636  10.753  17.134  0.00  0.00    +0.000 S 
ATOM     15  H   UNL     1      -0.158  10.466  17.195  0.00  0.00    +0.000 HD
ENDROOT
BRANCH   2  16
ATOM     16  C   UNL     1       2.056  10.502  18.343  0.00  0.00    +0.000 C 
BRANCH  16  17
ATOM     17  C   UNL     1       1.954   9.168  17.601  0.00  0.00    +0.000 C 
BRANCH  17  18
ATOM     18  C   UNL     1       2.065   7.995  18.510  0.00  0.00    +0.000 A 
ATOM     19  N   UNL     1       1.994   7.978  19.829  0.00  0.00    +0.000 NA
ATOM     20  C   UNL     1       2.175   6.654  20.142  0.00  0.00    +0.000 A 
ATOM     21  C   UNL     1       2.371   5.906  18.999  0.00  0.00    +0.000 A 
ATOM     22  O   UNL     1       2.297   6.773  17.938  0.00  0.00    +0.000 OA
BRANCH  21  23
ATOM     23  C   UNL     1       2.625   4.498  18.734  0.00  0.00    +0.000 A 
ATOM     24  C   UNL     1       3.735   4.049  18.012  0.00  0.00    +0.000 A 
ATOM     25  F   UNL     1       4.649   4.916  17.548  0.00  0.00    +0.000 F 
ATOM     26  C   UNL     1       3.924   2.694  17.720  0.00  0.00    +0.000 A 
ATOM     27  C   UNL     1       2.997   1.747  18.157  0.00  0.00    +0.000 A 
ATOM     28  C   UNL     1       1.894   2.166  18.892  0.00  0.00    +0.000 A 
ATOM     29  C   UNL     1       1.716   3.522  19.171  0.00  0.00    +0.000 A 
ATOM     30  F   UNL     1       0.634   3.875  19.882  0.00  0.00    +0.000 F 
ENDBRANCH  21  23
ENDBRANCH  17  18
ENDBRANCH  16  17
ENDBRANCH   2  16
TORSDOF 4
ENDMDL
