MODEL 1
REMARK VINA RESULT:      -8.3      0.000      0.000
REMARK  Name = 
REMARK  5 active torsions:
REMARK  status: ('A' for Active; 'I' for Inactive)
REMARK    1  A    between atoms: C_2  and  C_16
REMARK    2  A    between atoms: N_3  and  C_4
REMARK    3  A    between atoms: C_7  and  C_8
REMARK    4  A    between atoms: C_8  and  C_9
REMARK    5  A    between atoms: C_23  and  C_24
REMARK                            x       y       z     vdW  Elec       q    Type
REMARK                         _______ _______ _______ _____ _____    ______ ____
ROOT
ATOM      1  O   UNL     1       1.946   8.561  19.170  0.00  0.00    +0.000 OA
ATOM      2  C   UNL     1       1.808   7.929  20.213  0.00  0.00    +0.000 C 
ATOM      3  N   UNL     1       2.105   6.588  20.367  0.00  0.00    +0.000 N 
ATOM      4  H   UNL     1       1.704   6.111  21.165  0.00  0.00    +0.000 HD
ENDROOT
BRANCH   2   5
ATOM      5  C   UNL     1       1.186   8.570  21.463  0.00  0.00    +0.000 C 
ATOM      6  C   UNL     1      -0.345   8.408  21.477  0.00  0.00    +0.000 C 
ATOM      7  C   UNL     1      -1.006   9.185  20.337  0.00  0.00    +0.000 C 
ATOM      8  N   UNL     1      -0.467  10.521  20.172  0.00  0.00    +0.000 N 
ATOM      9  C   UNL     1       0.702  10.941  20.762  0.00  0.00    +0.000 A 
ATOM     10  C   UNL     1       0.806  12.267  20.418  0.00  0.00    +0.000 A 
ATOM     11  N   UNL     1      -0.244  12.644  19.620  0.00  0.00    +0.000 NA
ATOM     12  C   UNL     1      -0.996  11.565  19.437  0.00  0.00    +0.000 A 
ATOM     13  C   UNL     1       1.546  10.057  21.613  0.00  0.00    +0.000 C 
BRANCH  12  14
ATOM     14  C   UNL     1      -2.221  11.534  18.624  0.00  0.00    +0.000 A 
ATOM     15  C   UNL     1      -2.234  11.121  17.282  0.00  0.00    +0.000 A 
ATOM     16  C   UNL     1      -3.423  11.059  16.553  0.00  0.00    +0.000 A 
ATOM     17  C   UNL     1      -4.618  11.457  17.140  0.00  0.00    +0.000 A 
ATOM     18  C   UNL     1      -4.623  11.920  18.454  0.00  0.00    +0.000 A 
ATOM     19  C   UNL     1      -3.434  11.956  19.189  0.00  0.00    +0.000 A 
ENDBRANCH  12  14
ENDBRANCH   2   5
BRANCH   3  20
ATOM     20  C   UNL     1       2.782   5.774  19.436  0.00  0.00    +0.000 A 
ATOM     21  C   UNL     1       2.169   5.207  18.316  0.00  0.00    +0.000 A 
ATOM     22  C   UNL     1       2.902   4.415  17.425  0.00  0.00    +0.000 A 
ATOM     23  C   UNL     1       4.263   4.179  17.641  0.00  0.00    +0.000 A 
ATOM     24  C   UNL     1       4.876   4.750  18.765  0.00  0.00    +0.000 A 
ATOM     25  C   UNL     1       4.147   5.554  19.643  0.00  0.00    +0.000 A 
BRANCH  23  26
ATOM     26  C   UNL     1       5.061   3.320  16.686  0.00  0.00    +0.000 C 
BRANCH  26  27
ATOM     27  C   UNL     1       6.012   4.110  15.864  0.00  0.00    +0.000 A 
ATOM     28  N   UNL     1       7.186   4.594  16.212  0.00  0.00    +0.000 NA
ATOM     29  N   UNL     1       7.652   5.283  15.118  0.00  0.00    +0.000 NA
ATOM     30  N   UNL     1       6.786   5.227  14.116  0.00  0.00    +0.000 NA
ATOM     31  N   UNL     1       5.764   4.495  14.577  0.00  0.00    +0.000 N 
ATOM     32  H   UNL     1       4.955   4.331  13.992  0.00  0.00    +0.000 HD
ENDBRANCH  26  27
ENDBRANCH  23  26
ENDBRANCH   3  20
TORSDOF 5
ENDMDL
MODEL 2
REMARK VINA RESULT:      -8.2      0.208      1.254
REMARK  Name = 
REMARK  5 active torsions:
REMARK  status: ('A' for Active; 'I' for Inactive)
REMARK    1  A    between atoms: C_2  and  C_16
REMARK    2  A    between atoms: N_3  and  C_4
REMARK    3  A    between atoms: C_7  and  C_8
REMARK    4  A    between atoms: C_8  and  C_9
REMARK    5  A    between atoms: C_23  and  C_24
REMARK                            x       y       z     vdW  Elec       q    Type
REMARK                         _______ _______ _______ _____ _____    ______ ____
ROOT
ATOM      1  O   UNL     1       1.955   8.710  19.288  0.00  0.00    +0.000 OA
ATOM      2  C   UNL     1       1.770   8.041  20.301  0.00  0.00    +0.000 C 
ATOM      3  N   UNL     1       2.079   6.700  20.428  0.00  0.00    +0.000 N 
ATOM      4  H   UNL     1       1.642   6.192  21.187  0.00  0.00    +0.000 HD
ENDROOT
BRANCH   2   5
ATOM      5  C   UNL     1       1.068   8.632  21.534  0.00  0.00    +0.000 C 
ATOM      6  C   UNL     1      -0.454   8.409  21.477  0.00  0.00    +0.000 C 
ATOM      7  C   UNL     1      -1.096   9.182  20.324  0.00  0.00    +0.000 C 
ATOM      8  N   UNL     1      -0.605  10.542  20.208  0.00  0.00    +0.000 N 
ATOM      9  C   UNL     1       0.520  10.996  20.856  0.00  0.00    +0.000 A 
ATOM     10  C   UNL     1       0.585  12.332  20.542  0.00  0.00    +0.000 A 
ATOM     11  N   UNL     1      -0.444  12.683  19.706  0.00  0.00    +0.000 NA
ATOM     12  C   UNL     1      -1.143  11.579  19.470  0.00  0.00    +0.000 A 
ATOM     13  C   UNL     1       1.362  10.129  21.728  0.00  0.00    +0.000 C 
BRANCH  12  14
ATOM     14  C   UNL     1      -2.329  11.516  18.603  0.00  0.00    +0.000 A 
ATOM     15  C   UNL     1      -3.611  11.888  19.038  0.00  0.00    +0.000 A 
ATOM     16  C   UNL     1      -4.707  11.860  18.174  0.00  0.00    +0.000 A 
ATOM     17  C   UNL     1      -4.550  11.411  16.868  0.00  0.00    +0.000 A 
ATOM     18  C   UNL     1      -3.298  10.989  16.428  0.00  0.00    +0.000 A 
ATOM     19  C   UNL     1      -2.198  11.042  17.289  0.00  0.00    +0.000 A 
ENDBRANCH  12  14
ENDBRANCH   2   5
BRANCH   3  20
ATOM     20  C   UNL     1       2.820   5.928  19.511  0.00  0.00    +0.000 A 
ATOM     21  C   UNL     1       4.211   5.797  19.557  0.00  0.00    +0.000 A 
ATOM     22  C   UNL     1       4.885   5.007  18.619  0.00  0.00    +0.000 A 
ATOM     23  C   UNL     1       4.177   4.334  17.620  0.00  0.00    +0.000 A 
ATOM     24  C   UNL     1       2.782   4.467  17.576  0.00  0.00    +0.000 A 
ATOM     25  C   UNL     1       2.109   5.241  18.523  0.00  0.00    +0.000 A 
BRANCH  23  26
ATOM     26  C   UNL     1       4.898   3.482  16.599  0.00  0.00    +0.000 C 
BRANCH  26  27
ATOM     27  C   UNL     1       5.928   4.241  15.847  0.00  0.00    +0.000 A 
ATOM     28  N   UNL     1       7.176   4.485  16.189  0.00  0.00    +0.000 NA
ATOM     29  N   UNL     1       7.701   5.259  15.183  0.00  0.00    +0.000 NA
ATOM     30  N   UNL     1       6.799   5.489  14.239  0.00  0.00    +0.000 NA
ATOM     31  N   UNL     1       5.694   4.854  14.648  0.00  0.00    +0.000 N 
ATOM     32  H   UNL     1       4.847   4.905  14.097  0.00  0.00    +0.000 HD
ENDBRANCH  26  27
ENDBRANCH  23  26
ENDBRANCH   3  20
TORSDOF 5
ENDMDL
MODEL 3
REMARK VINA RESULT:      -8.0      5.155      7.423
REMARK  Name = 
REMARK  5 active torsions:
REMARK  status: ('A' for Active; 'I' for Inactive)
REMARK    1  A    between atoms: C_2  and  C_16
REMARK    2  A    between atoms: N_3  and  C_4
REMARK    3  A    between atoms: C_7  and  C_8
REMARK    4  A    between atoms: C_8  and  C_9
REMARK    5  A    between atoms: C_23  and  C_24
REMARK                            x       y       z     vdW  Elec       q    Type
REMARK                         _______ _______ _______ _____ _____    ______ ____
ROOT
ATOM      1  O   UNL     1       8.041   4.175  16.813  0.00  0.00    +0.000 OA
ATOM      2  C   UNL     1       7.396   5.217  16.731  0.00  0.00    +0.000 C 
ATOM      3  N   UNL     1       6.779   5.674  15.581  0.00  0.00    +0.000 N 
ATOM      4  H   UNL     1       6.518   6.651  15.550  0.00  0.00    +0.000 HD
ENDROOT
BRANCH   2   5
ATOM      5  C   UNL     1       7.287   6.189  17.916  0.00  0.00    +0.000 C 
ATOM      6  C   UNL     1       6.871   5.460  19.206  0.00  0.00    +0.000 C 
ATOM      7  C   UNL     1       5.453   4.895  19.105  0.00  0.00    +0.000 C 
ATOM      8  N   UNL     1       4.510   5.828  18.519  0.00  0.00    +0.000 N 
ATOM      9  C   UNL     1       4.892   6.969  17.854  0.00  0.00    +0.000 A 
ATOM     10  C   UNL     1       3.711   7.595  17.533  0.00  0.00    +0.000 A 
ATOM     11  N   UNL     1       2.639   6.852  17.957  0.00  0.00    +0.000 NA
ATOM     12  C   UNL     1       3.130   5.755  18.520  0.00  0.00    +0.000 A 
ATOM     13  C   UNL     1       6.318   7.352  17.647  0.00  0.00    +0.000 C 
BRANCH  12  14
ATOM     14  C   UNL     1       2.309   4.678  19.096  0.00  0.00    +0.000 A 
ATOM     15  C   UNL     1       1.673   3.703  18.311  0.00  0.00    +0.000 A 
ATOM     16  C   UNL     1       0.939   2.668  18.894  0.00  0.00    +0.000 A 
ATOM     17  C   UNL     1       0.788   2.617  20.275  0.00  0.00    +0.000 A 
ATOM     18  C   UNL     1       1.367   3.602  21.071  0.00  0.00    +0.000 A 
ATOM     19  C   UNL     1       2.122   4.623  20.485  0.00  0.00    +0.000 A 
ENDBRANCH  12  14
ENDBRANCH   2   5
BRANCH   3  20
ATOM     20  C   UNL     1       6.620   4.952  14.381  0.00  0.00    +0.000 A 
ATOM     21  C   UNL     1       7.519   5.019  13.313  0.00  0.00    +0.000 A 
ATOM     22  C   UNL     1       7.306   4.269  12.152  0.00  0.00    +0.000 A 
ATOM     23  C   UNL     1       6.188   3.436  12.041  0.00  0.00    +0.000 A 
ATOM     24  C   UNL     1       5.288   3.370  13.114  0.00  0.00    +0.000 A 
ATOM     25  C   UNL     1       5.512   4.106  14.279  0.00  0.00    +0.000 A 
BRANCH  23  26
ATOM     26  C   UNL     1       5.948   2.625  10.787  0.00  0.00    +0.000 C 
BRANCH  26  27
ATOM     27  C   UNL     1       6.118   1.168  11.007  0.00  0.00    +0.000 A 
ATOM     28  N   UNL     1       5.197   0.227  10.999  0.00  0.00    +0.000 NA
ATOM     29  N   UNL     1       5.848  -0.946  11.296  0.00  0.00    +0.000 NA
ATOM     30  N   UNL     1       7.144  -0.736  11.483  0.00  0.00    +0.000 NA
ATOM     31  N   UNL     1       7.315   0.580  11.302  0.00  0.00    +0.000 N 
ATOM     32  H   UNL     1       8.232   0.991  11.419  0.00  0.00    +0.000 HD
ENDBRANCH  26  27
ENDBRANCH  23  26
ENDBRANCH   3  20
TORSDOF 5
ENDMDL
MODEL 4
REMARK VINA RESULT:      -8.0      3.705      5.312
REMARK  Name = 
REMARK  5 active torsions:
REMARK  status: ('A' for Active; 'I' for Inactive)
REMARK    1  A    between atoms: C_2  and  C_16
REMARK    2  A    between atoms: N_3  and  C_4
REMARK    3  A    between atoms: C_7  and  C_8
REMARK    4  A    between atoms: C_8  and  C_9
REMARK    5  A    between atoms: C_23  and  C_24
REMARK                            x       y       z     vdW  Elec       q    Type
REMARK                         _______ _______ _______ _____ _____    ______ ____
ROOT
ATOM      1  O   UNL     1       1.451  12.006  20.904  0.00  0.00    +0.000 OA
ATOM      2  C   UNL     1       0.301  11.594  20.778  0.00  0.00    +0.000 C 
ATOM      3  N   UNL     1      -0.052  10.429  20.124  0.00  0.00    +0.000 N 
ATOM      4  H   UNL     1      -1.019  10.328  19.843  0.00  0.00    +0.000 HD
ENDROOT
BRANCH   2   5
ATOM      5  C   UNL     1      -0.902  12.411  21.275  0.00  0.00    +0.000 C 
ATOM      6  C   UNL     1      -1.622  13.119  20.113  0.00  0.00    +0.000 C 
ATOM      7  C   UNL     1      -0.737  14.185  19.465  0.00  0.00    +0.000 C 
ATOM      8  N   UNL     1      -0.040  15.010  20.432  0.00  0.00    +0.000 N 
ATOM      9  C   UNL     1       0.060  14.687  21.765  0.00  0.00    +0.000 A 
ATOM     10  C   UNL     1       0.720  15.752  22.330  0.00  0.00    +0.000 A 
ATOM     11  N   UNL     1       1.043  16.683  21.376  0.00  0.00    +0.000 NA
ATOM     12  C   UNL     1       0.616  16.206  20.213  0.00  0.00    +0.000 A 
ATOM     13  C   UNL     1      -0.520  13.444  22.347  0.00  0.00    +0.000 C 
BRANCH  12  14
ATOM     14  C   UNL     1       0.778  16.894  18.923  0.00  0.00    +0.000 A 
ATOM     15  C   UNL     1       1.994  16.919  18.221  0.00  0.00    +0.000 A 
ATOM     16  C   UNL     1       2.100  17.542  16.976  0.00  0.00    +0.000 A 
ATOM     17  C   UNL     1       1.001  18.196  16.431  0.00  0.00    +0.000 A 
ATOM     18  C   UNL     1      -0.202  18.230  17.133  0.00  0.00    +0.000 A 
ATOM     19  C   UNL     1      -0.311  17.583  18.368  0.00  0.00    +0.000 A 
ENDBRANCH  12  14
ENDBRANCH   2   5
BRANCH   3  20
ATOM     20  C   UNL     1       0.834   9.433  19.665  0.00  0.00    +0.000 A 
ATOM     21  C   UNL     1       1.324   8.403  20.472  0.00  0.00    +0.000 A 
ATOM     22  C   UNL     1       2.195   7.440  19.951  0.00  0.00    +0.000 A 
ATOM     23  C   UNL     1       2.589   7.493  18.610  0.00  0.00    +0.000 A 
ATOM     24  C   UNL     1       2.096   8.527  17.802  0.00  0.00    +0.000 A 
ATOM     25  C   UNL     1       1.213   9.476  18.320  0.00  0.00    +0.000 A 
BRANCH  23  26
ATOM     26  C   UNL     1       3.535   6.459  18.040  0.00  0.00    +0.000 C 
BRANCH  26  27
ATOM     27  C   UNL     1       2.865   5.165  17.757  0.00  0.00    +0.000 A 
ATOM     28  N   UNL     1       3.392   4.060  17.274  0.00  0.00    +0.000 NA
ATOM     29  N   UNL     1       2.357   3.165  17.156  0.00  0.00    +0.000 NA
ATOM     30  N   UNL     1       1.214   3.703  17.557  0.00  0.00    +0.000 NA
ATOM     31  N   UNL     1       1.527   4.949  17.934  0.00  0.00    +0.000 N 
ATOM     32  H   UNL     1       0.803   5.577  18.260  0.00  0.00    +0.000 HD
ENDBRANCH  26  27
ENDBRANCH  23  26
ENDBRANCH   3  20
TORSDOF 5
ENDMDL
MODEL 5
REMARK VINA RESULT:      -7.9      3.529      5.350
REMARK  Name = 
REMARK  5 active torsions:
REMARK  status: ('A' for Active; 'I' for Inactive)
REMARK    1  A    between atoms: C_2  and  C_16
REMARK    2  A    between atoms: N_3  and  C_4
REMARK    3  A    between atoms: C_7  and  C_8
REMARK    4  A    between atoms: C_8  and  C_9
REMARK    5  A    between atoms: C_23  and  C_24
REMARK                            x       y       z     vdW  Elec       q    Type
REMARK                         _______ _______ _______ _____ _____    ______ ____
ROOT
ATOM      1  O   UNL     1       1.296  11.592  21.400  0.00  0.00    +0.000 OA
ATOM      2  C   UNL     1       0.216  11.363  20.864  0.00  0.00    +0.000 C 
ATOM      3  N   UNL     1      -0.008  10.364  19.935  0.00  0.00    +0.000 N 
ATOM      4  H   UNL     1      -0.841  10.437  19.365  0.00  0.00    +0.000 HD
ENDROOT
BRANCH   2   5
ATOM      5  C   UNL     1      -1.010  12.255  21.117  0.00  0.00    +0.000 C 
ATOM      6  C   UNL     1      -1.481  12.946  19.824  0.00  0.00    +0.000 C 
ATOM      7  C   UNL     1      -0.442  13.942  19.305  0.00  0.00    +0.000 C 
ATOM      8  N   UNL     1       0.122  14.773  20.351  0.00  0.00    +0.000 N 
ATOM      9  C   UNL     1      -0.027  14.502  21.691  0.00  0.00    +0.000 A 
ATOM     10  C   UNL     1       0.582  15.558  22.326  0.00  0.00    +0.000 A 
ATOM     11  N   UNL     1       1.114  16.432  21.412  0.00  0.00    +0.000 NA
ATOM     12  C   UNL     1       0.867  15.927  20.210  0.00  0.00    +0.000 A 
ATOM     13  C   UNL     1      -0.764  13.313  22.204  0.00  0.00    +0.000 C 
BRANCH  12  14
ATOM     14  C   UNL     1       1.285  16.552  18.945  0.00  0.00    +0.000 A 
ATOM     15  C   UNL     1       0.490  17.481  18.255  0.00  0.00    +0.000 A 
ATOM     16  C   UNL     1       0.938  18.090  17.082  0.00  0.00    +0.000 A 
ATOM     17  C   UNL     1       2.174  17.744  16.548  0.00  0.00    +0.000 A 
ATOM     18  C   UNL     1       2.959  16.788  17.187  0.00  0.00    +0.000 A 
ATOM     19  C   UNL     1       2.518  16.198  18.376  0.00  0.00    +0.000 A 
ENDBRANCH  12  14
ENDBRANCH   2   5
BRANCH   3  20
ATOM     20  C   UNL     1       0.891   9.334  19.591  0.00  0.00    +0.000 A 
ATOM     21  C   UNL     1       1.289   8.327  20.475  0.00  0.00    +0.000 A 
ATOM     22  C   UNL     1       2.179   7.328  20.066  0.00  0.00    +0.000 A 
ATOM     23  C   UNL     1       2.685   7.320  18.762  0.00  0.00    +0.000 A 
ATOM     24  C   UNL     1       2.284   8.331  17.877  0.00  0.00    +0.000 A 
ATOM     25  C   UNL     1       1.382   9.317  18.282  0.00  0.00    +0.000 A 
BRANCH  23  26
ATOM     26  C   UNL     1       3.651   6.247  18.313  0.00  0.00    +0.000 C 
BRANCH  26  27
ATOM     27  C   UNL     1       2.966   5.001  17.890  0.00  0.00    +0.000 A 
ATOM     28  N   UNL     1       3.395   4.073  17.060  0.00  0.00    +0.000 NA
ATOM     29  N   UNL     1       2.382   3.150  16.965  0.00  0.00    +0.000 NA
ATOM     30  N   UNL     1       1.349   3.498  17.718  0.00  0.00    +0.000 NA
ATOM     31  N   UNL     1       1.710   4.650  18.298  0.00  0.00    +0.000 N 
ATOM     32  H   UNL     1       1.064   5.132  18.910  0.00  0.00    +0.000 HD
ENDBRANCH  26  27
ENDBRANCH  23  26
ENDBRANCH   3  20
TORSDOF 5
ENDMDL
MODEL 6
REMARK VINA RESULT:      -7.9      1.024      1.387
REMARK  Name = 
REMARK  5 active torsions:
REMARK  status: ('A' for Active; 'I' for Inactive)
REMARK    1  A    between atoms: C_2  and  C_16
REMARK    2  A    between atoms: N_3  and  C_4
REMARK    3  A    between atoms: C_7  and  C_8
REMARK    4  A    between atoms: C_8  and  C_9
REMARK    5  A    between atoms: C_23  and  C_24
REMARK                            x       y       z     vdW  Elec       q    Type
REMARK                         _______ _______ _______ _____ _____    ______ ____
ROOT
ATOM      1  O   UNL     1       1.243   9.196  18.895  0.00  0.00    +0.000 OA
ATOM      2  C   UNL     1       1.437   8.847  20.056  0.00  0.00    +0.000 C 
ATOM      3  N   UNL     1       1.941   7.618  20.437  0.00  0.00    +0.000 N 
ATOM      4  H   UNL     1       1.803   7.336  21.399  0.00  0.00    +0.000 HD
ENDROOT
BRANCH   2   5
ATOM      5  C   UNL     1       1.038   9.743  21.239  0.00  0.00    +0.000 C 
ATOM      6  C   UNL     1      -0.445   9.560  21.610  0.00  0.00    +0.000 C 
ATOM      7  C   UNL     1      -1.372  10.045  20.495  0.00  0.00    +0.000 C 
ATOM      8  N   UNL     1      -0.967  11.319  19.933  0.00  0.00    +0.000 N 
ATOM      9  C   UNL     1       0.267  11.884  20.157  0.00  0.00    +0.000 A 
ATOM     10  C   UNL     1       0.212  13.100  19.519  0.00  0.00    +0.000 A 
ATOM     11  N   UNL     1      -1.000  13.266  18.898  0.00  0.00    +0.000 NA
ATOM     12  C   UNL     1      -1.699  12.160  19.117  0.00  0.00    +0.000 A 
ATOM     13  C   UNL     1       1.322  11.232  20.983  0.00  0.00    +0.000 C 
BRANCH  12  14
ATOM     14  C   UNL     1      -3.058  11.922  18.607  0.00  0.00    +0.000 A 
ATOM     15  C   UNL     1      -3.312  11.416  17.321  0.00  0.00    +0.000 A 
ATOM     16  C   UNL     1      -4.613  11.159  16.887  0.00  0.00    +0.000 A 
ATOM     17  C   UNL     1      -5.692  11.449  17.714  0.00  0.00    +0.000 A 
ATOM     18  C   UNL     1      -5.468  11.999  18.974  0.00  0.00    +0.000 A 
ATOM     19  C   UNL     1      -4.162  12.232  19.416  0.00  0.00    +0.000 A 
ENDBRANCH  12  14
ENDBRANCH   2   5
BRANCH   3  20
ATOM     20  C   UNL     1       2.489   6.643  19.579  0.00  0.00    +0.000 A 
ATOM     21  C   UNL     1       2.361   5.268  19.789  0.00  0.00    +0.000 A 
ATOM     22  C   UNL     1       2.923   4.353  18.892  0.00  0.00    +0.000 A 
ATOM     23  C   UNL     1       3.624   4.801  17.768  0.00  0.00    +0.000 A 
ATOM     24  C   UNL     1       3.751   6.181  17.559  0.00  0.00    +0.000 A 
ATOM     25  C   UNL     1       3.174   7.093  18.446  0.00  0.00    +0.000 A 
BRANCH  23  26
ATOM     26  C   UNL     1       4.240   3.818  16.797  0.00  0.00    +0.000 C 
BRANCH  26  27
ATOM     27  C   UNL     1       5.624   4.187  16.412  0.00  0.00    +0.000 A 
ATOM     28  N   UNL     1       6.071   4.568  15.233  0.00  0.00    +0.000 NA
ATOM     29  N   UNL     1       7.425   4.751  15.381  0.00  0.00    +0.000 NA
ATOM     30  N   UNL     1       7.808   4.490  16.623  0.00  0.00    +0.000 NA
ATOM     31  N   UNL     1       6.688   4.140  17.268  0.00  0.00    +0.000 N 
ATOM     32  H   UNL     1       6.730   3.866  18.242  0.00  0.00    +0.000 HD
ENDBRANCH  26  27
ENDBRANCH  23  26
ENDBRANCH   3  20
TORSDOF 5
ENDMDL
MODEL 7
REMARK VINA RESULT:      -7.9      2.419      3.930
REMARK  Name = 
REMARK  5 active torsions:
REMARK  status: ('A' for Active; 'I' for Inactive)
REMARK    1  A    between atoms: C_2  and  C_16
REMARK    2  A    between atoms: N_3  and  C_4
REMARK    3  A    between atoms: C_7  and  C_8
REMARK    4  A    between atoms: C_8  and  C_9
REMARK    5  A    between atoms: C_23  and  C_24
REMARK                            x       y       z     vdW  Elec       q    Type
REMARK                         _______ _______ _______ _____ _____    ______ ____
ROOT
ATOM      1  O   UNL     1       1.635   8.936  21.007  0.00  0.00    +0.000 OA
ATOM      2  C   UNL     1       1.019   8.942  19.945  0.00  0.00    +0.000 C 
ATOM      3  N   UNL     1       1.456   8.346  18.777  0.00  0.00    +0.000 N 
ATOM      4  H   UNL     1       1.018   8.640  17.913  0.00  0.00    +0.000 HD
ENDROOT
BRANCH   2   5
ATOM      5  C   UNL     1      -0.299   9.716  19.786  0.00  0.00    +0.000 C 
ATOM      6  C   UNL     1      -0.293  10.585  18.515  0.00  0.00    +0.000 C 
ATOM      7  C   UNL     1       0.746  11.704  18.599  0.00  0.00    +0.000 C 
ATOM      8  N   UNL     1       0.751  12.381  19.882  0.00  0.00    +0.000 N 
ATOM      9  C   UNL     1       0.114  11.887  20.997  0.00  0.00    +0.000 A 
ATOM     10  C   UNL     1       0.297  12.854  21.956  0.00  0.00    +0.000 A 
ATOM     11  N   UNL     1       1.045  13.892  21.461  0.00  0.00    +0.000 NA
ATOM     12  C   UNL     1       1.355  13.579  20.209  0.00  0.00    +0.000 A 
ATOM     13  C   UNL     1      -0.626  10.594  21.006  0.00  0.00    +0.000 C 
BRANCH  12  14
ATOM     14  C   UNL     1       2.167  14.423  19.319  0.00  0.00    +0.000 A 
ATOM     15  C   UNL     1       3.445  14.051  18.872  0.00  0.00    +0.000 A 
ATOM     16  C   UNL     1       4.169  14.855  17.990  0.00  0.00    +0.000 A 
ATOM     17  C   UNL     1       3.646  16.075  17.575  0.00  0.00    +0.000 A 
ATOM     18  C   UNL     1       2.402  16.490  18.044  0.00  0.00    +0.000 A 
ATOM     19  C   UNL     1       1.670  15.669  18.908  0.00  0.00    +0.000 A 
ENDBRANCH  12  14
ENDBRANCH   2   5
BRANCH   3  20
ATOM     20  C   UNL     1       2.563   7.484  18.648  0.00  0.00    +0.000 A 
ATOM     21  C   UNL     1       2.783   6.379  19.475  0.00  0.00    +0.000 A 
ATOM     22  C   UNL     1       3.900   5.558  19.288  0.00  0.00    +0.000 A 
ATOM     23  C   UNL     1       4.816   5.829  18.267  0.00  0.00    +0.000 A 
ATOM     24  C   UNL     1       4.594   6.938  17.439  0.00  0.00    +0.000 A 
ATOM     25  C   UNL     1       3.469   7.746  17.616  0.00  0.00    +0.000 A 
BRANCH  23  26
ATOM     26  C   UNL     1       6.029   4.949  18.061  0.00  0.00    +0.000 C 
BRANCH  26  27
ATOM     27  C   UNL     1       6.475   4.912  16.646  0.00  0.00    +0.000 A 
ATOM     28  N   UNL     1       7.417   5.626  16.067  0.00  0.00    +0.000 NA
ATOM     29  N   UNL     1       7.417   5.254  14.744  0.00  0.00    +0.000 NA
ATOM     30  N   UNL     1       6.496   4.330  14.510  0.00  0.00    +0.000 NA
ATOM     31  N   UNL     1       5.909   4.113  15.694  0.00  0.00    +0.000 N 
ATOM     32  H   UNL     1       5.143   3.455  15.765  0.00  0.00    +0.000 HD
ENDBRANCH  26  27
ENDBRANCH  23  26
ENDBRANCH   3  20
TORSDOF 5
ENDMDL
MODEL 8
REMARK VINA RESULT:      -7.8      2.514      4.070
REMARK  Name = 
REMARK  5 active torsions:
REMARK  status: ('A' for Active; 'I' for Inactive)
REMARK    1  A    between atoms: C_2  and  C_16
REMARK    2  A    between atoms: N_3  and  C_4
REMARK    3  A    between atoms: C_7  and  C_8
REMARK    4  A    between atoms: C_8  and  C_9
REMARK    5  A    between atoms: C_23  and  C_24
REMARK                            x       y       z     vdW  Elec       q    Type
REMARK                         _______ _______ _______ _____ _____    ______ ____
ROOT
ATOM      1  O   UNL     1       1.580   9.424  20.927  0.00  0.00    +0.000 OA
ATOM      2  C   UNL     1       0.861   9.303  19.939  0.00  0.00    +0.000 C 
ATOM      3  N   UNL     1       1.189   8.576  18.810  0.00  0.00    +0.000 N 
ATOM      4  H   UNL     1       0.663   8.764  17.966  0.00  0.00    +0.000 HD
ENDROOT
BRANCH   2   5
ATOM      5  C   UNL     1      -0.477  10.049  19.824  0.00  0.00    +0.000 C 
ATOM      6  C   UNL     1      -0.539  10.903  18.545  0.00  0.00    +0.000 C 
ATOM      7  C   UNL     1       0.479  12.044  18.577  0.00  0.00    +0.000 C 
ATOM      8  N   UNL     1       0.520  12.734  19.852  0.00  0.00    +0.000 N 
ATOM      9  C   UNL     1      -0.062  12.240  20.996  0.00  0.00    +0.000 A 
ATOM     10  C   UNL     1       0.138  13.221  21.938  0.00  0.00    +0.000 A 
ATOM     11  N   UNL     1       0.844  14.269  21.403  0.00  0.00    +0.000 NA
ATOM     12  C   UNL     1       1.112  13.949  20.143  0.00  0.00    +0.000 A 
ATOM     13  C   UNL     1      -0.774  10.932  21.047  0.00  0.00    +0.000 C 
BRANCH  12  14
ATOM     14  C   UNL     1       1.870  14.799  19.213  0.00  0.00    +0.000 A 
ATOM     15  C   UNL     1       1.399  16.043  18.761  0.00  0.00    +0.000 A 
ATOM     16  C   UNL     1       2.166  16.846  17.915  0.00  0.00    +0.000 A 
ATOM     17  C   UNL     1       3.403  16.397  17.465  0.00  0.00    +0.000 A 
ATOM     18  C   UNL     1       3.869  15.145  17.859  0.00  0.00    +0.000 A 
ATOM     19  C   UNL     1       3.109  14.355  18.726  0.00  0.00    +0.000 A 
ENDBRANCH  12  14
ENDBRANCH   2   5
BRANCH   3  20
ATOM     20  C   UNL     1       2.292   7.708  18.672  0.00  0.00    +0.000 A 
ATOM     21  C   UNL     1       2.532   6.622  19.518  0.00  0.00    +0.000 A 
ATOM     22  C   UNL     1       3.642   5.794  19.320  0.00  0.00    +0.000 A 
ATOM     23  C   UNL     1       4.531   6.040  18.269  0.00  0.00    +0.000 A 
ATOM     24  C   UNL     1       4.288   7.131  17.422  0.00  0.00    +0.000 A 
ATOM     25  C   UNL     1       3.170   7.945  17.611  0.00  0.00    +0.000 A 
BRANCH  23  26
ATOM     26  C   UNL     1       5.737   5.153  18.052  0.00  0.00    +0.000 C 
BRANCH  26  27
ATOM     27  C   UNL     1       6.155   5.095  16.629  0.00  0.00    +0.000 A 
ATOM     28  N   UNL     1       5.564   4.475  15.628  0.00  0.00    +0.000 NA
ATOM     29  N   UNL     1       6.360   4.686  14.528  0.00  0.00    +0.000 NA
ATOM     30  N   UNL     1       7.419   5.420  14.840  0.00  0.00    +0.000 NA
ATOM     31  N   UNL     1       7.293   5.679  16.148  0.00  0.00    +0.000 N 
ATOM     32  H   UNL     1       8.006   6.212  16.629  0.00  0.00    +0.000 HD
ENDBRANCH  26  27
ENDBRANCH  23  26
ENDBRANCH   3  20
TORSDOF 5
ENDMDL
MODEL 9
REMARK VINA RESULT:      -7.8      2.999      5.357
REMARK  Name = 
REMARK  5 active torsions:
REMARK  status: ('A' for Active; 'I' for Inactive)
REMARK    1  A    between atoms: C_2  and  C_16
REMARK    2  A    between atoms: N_3  and  C_4
REMARK    3  A    between atoms: C_7  and  C_8
REMARK    4  A    between atoms: C_8  and  C_9
REMARK    5  A    between atoms: C_23  and  C_24
REMARK                            x       y       z     vdW  Elec       q    Type
REMARK                         _______ _______ _______ _____ _____    ______ ____
ROOT
ATOM      1  O   UNL     1       1.054   9.929  20.707  0.00  0.00    +0.000 OA
ATOM      2  C   UNL     1       0.905  10.119  19.503  0.00  0.00    +0.000 C 
ATOM      3  N   UNL     1       1.484   9.356  18.507  0.00  0.00    +0.000 N 
ATOM      4  H   UNL     1       1.522   9.755  17.577  0.00  0.00    +0.000 HD
ENDROOT
BRANCH   2   5
ATOM      5  C   UNL     1       0.106  11.320  18.973  0.00  0.00    +0.000 C 
ATOM      6  C   UNL     1       1.006  12.298  18.196  0.00  0.00    +0.000 C 
ATOM      7  C   UNL     1       2.042  12.959  19.107  0.00  0.00    +0.000 C 
ATOM      8  N   UNL     1       1.485  13.407  20.369  0.00  0.00    +0.000 N 
ATOM      9  C   UNL     1       0.248  13.019  20.828  0.00  0.00    +0.000 A 
ATOM     10  C   UNL     1       0.079  13.719  21.999  0.00  0.00    +0.000 A 
ATOM     11  N   UNL     1       1.183  14.487  22.268  0.00  0.00    +0.000 NA
ATOM     12  C   UNL     1       2.056  14.261  21.294  0.00  0.00    +0.000 A 
ATOM     13  C   UNL     1      -0.637  12.079  20.085  0.00  0.00    +0.000 C 
BRANCH  12  14
ATOM     14  C   UNL     1       3.387  14.882  21.211  0.00  0.00    +0.000 A 
ATOM     15  C   UNL     1       3.629  16.073  20.508  0.00  0.00    +0.000 A 
ATOM     16  C   UNL     1       4.896  16.659  20.489  0.00  0.00    +0.000 A 
ATOM     17  C   UNL     1       5.959  16.037  21.134  0.00  0.00    +0.000 A 
ATOM     18  C   UNL     1       5.754  14.828  21.795  0.00  0.00    +0.000 A 
ATOM     19  C   UNL     1       4.478  14.257  21.833  0.00  0.00    +0.000 A 
ENDBRANCH  12  14
ENDBRANCH   2   5
BRANCH   3  20
ATOM     20  C   UNL     1       2.174   8.140  18.687  0.00  0.00    +0.000 A 
ATOM     21  C   UNL     1       1.982   7.298  19.786  0.00  0.00    +0.000 A 
ATOM     22  C   UNL     1       2.693   6.098  19.900  0.00  0.00    +0.000 A 
ATOM     23  C   UNL     1       3.609   5.721  18.913  0.00  0.00    +0.000 A 
ATOM     24  C   UNL     1       3.800   6.568  17.811  0.00  0.00    +0.000 A 
ATOM     25  C   UNL     1       3.076   7.755  17.691  0.00  0.00    +0.000 A 
BRANCH  23  26
ATOM     26  C   UNL     1       4.387   4.429  19.031  0.00  0.00    +0.000 C 
BRANCH  26  27
ATOM     27  C   UNL     1       5.854   4.635  18.950  0.00  0.00    +0.000 A 
ATOM     28  N   UNL     1       6.628   5.331  19.757  0.00  0.00    +0.000 NA
ATOM     29  N   UNL     1       7.895   5.250  19.232  0.00  0.00    +0.000 NA
ATOM     30  N   UNL     1       7.906   4.520  18.126  0.00  0.00    +0.000 NA
ATOM     31  N   UNL     1       6.636   4.134  17.948  0.00  0.00    +0.000 N 
ATOM     32  H   UNL     1       6.385   3.578  17.140  0.00  0.00    +0.000 HD
ENDBRANCH  26  27
ENDBRANCH  23  26
ENDBRANCH   3  20
TORSDOF 5
ENDMDL
