MODEL 1
REMARK VINA RESULT:      -9.3      0.000      0.000
REMARK  Name = 
REMARK  6 active torsions:
REMARK  status: ('A' for Active; 'I' for Inactive)
REMARK    1  A    between atoms: C_1  and  N_2
REMARK    2  A    between atoms: C_4  and  C_5
REMARK    3  A    between atoms: N_7  and  C_8
REMARK    4  A    between atoms: C_8  and  C_9
REMARK    5  A    between atoms: C_8  and  C_16
REMARK    6  A    between atoms: C_9  and  N_10
REMARK                            x       y       z     vdW  Elec       q    Type
REMARK                         _______ _______ _______ _____ _____    ______ ____
ROOT
ATOM      1  C   UNL     1       1.740   8.897  18.398  0.00  0.00    +0.000 C 
ATOM      2  O   UNL     1       1.761   8.923  17.172  0.00  0.00    +0.000 OA
ATOM      3  N   UNL     1       2.162   7.793  19.111  0.00  0.00    +0.000 N 
ATOM      4  H   UNL     1       2.376   7.899  20.101  0.00  0.00    +0.000 HD
ENDROOT
BRANCH   1   8
ATOM      5  C   UNL     1       1.727  13.773  18.841  0.00  0.00    +0.000 C 
ATOM      6  N   UNL     1       1.284  12.504  19.388  0.00  0.00    +0.000 N 
ATOM      7  C   UNL     1       1.619  11.322  18.748  0.00  0.00    +0.000 A 
ATOM      8  C   UNL     1       1.309  10.097  19.216  0.00  0.00    +0.000 A 
ATOM      9  C   UNL     1       0.632  10.026  20.541  0.00  0.00    +0.000 A 
ATOM     10  C   UNL     1       0.350   8.822  21.208  0.00  0.00    +0.000 A 
ATOM     11  C   UNL     1      -0.335   8.806  22.433  0.00  0.00    +0.000 A 
ATOM     12  C   UNL     1      -0.756   9.993  23.024  0.00  0.00    +0.000 A 
ATOM     13  C   UNL     1      -0.461  11.200  22.403  0.00  0.00    +0.000 A 
ATOM     14  C   UNL     1       0.237  11.216  21.183  0.00  0.00    +0.000 A 
ATOM     15  C   UNL     1       0.587  12.535  20.596  0.00  0.00    +0.000 A 
ATOM     16  O   UNL     1       0.288  13.571  21.178  0.00  0.00    +0.000 OA
ENDBRANCH   1   8
BRANCH   3  17
ATOM     17  C   UNL     1       2.708   6.599  18.464  0.00  0.00    +0.000 C 
BRANCH  17  18
ATOM     18  C   UNL     1       2.015   5.317  18.926  0.00  0.00    +0.000 A 
ATOM     19  C   UNL     1       1.739   4.300  17.999  0.00  0.00    +0.000 A 
ATOM     20  C   UNL     1       1.226   3.068  18.416  0.00  0.00    +0.000 A 
ATOM     21  C   UNL     1       0.974   2.835  19.766  0.00  0.00    +0.000 A 
ATOM     22  C   UNL     1       1.217   3.844  20.696  0.00  0.00    +0.000 A 
ATOM     23  C   UNL     1       1.726   5.077  20.281  0.00  0.00    +0.000 A 
ENDBRANCH  17  18
BRANCH  17  24
ATOM     24  C   UNL     1       4.234   6.450  18.714  0.00  0.00    +0.000 C 
BRANCH  24  25
ATOM     25  N   UNL     1       4.982   5.820  17.636  0.00  0.00    +0.000 N 
ATOM     26  C   UNL     1       5.098   6.389  16.318  0.00  0.00    +0.000 C 
ATOM     27  C   UNL     1       5.504   5.182  15.494  0.00  0.00    +0.000 C 
ATOM     28  C   UNL     1       6.419   4.413  16.445  0.00  0.00    +0.000 C 
ATOM     29  C   UNL     1       5.812   4.720  17.795  0.00  0.00    +0.000 C 
ATOM     30  O   UNL     1       6.047   4.151  18.849  0.00  0.00    +0.000 OA
ENDBRANCH  24  25
ENDBRANCH  17  24
ENDBRANCH   3  17
TORSDOF 5
ENDMDL
MODEL 2
REMARK VINA RESULT:      -8.9      0.920      1.470
REMARK  Name = 
REMARK  6 active torsions:
REMARK  status: ('A' for Active; 'I' for Inactive)
REMARK    1  A    between atoms: C_1  and  N_2
REMARK    2  A    between atoms: C_4  and  C_5
REMARK    3  A    between atoms: N_7  and  C_8
REMARK    4  A    between atoms: C_8  and  C_9
REMARK    5  A    between atoms: C_8  and  C_16
REMARK    6  A    between atoms: C_9  and  N_10
REMARK                            x       y       z     vdW  Elec       q    Type
REMARK                         _______ _______ _______ _____ _____    ______ ____
ROOT
ATOM      1  C   UNL     1       1.946   8.849  18.209  0.00  0.00    +0.000 C 
ATOM      2  O   UNL     1       2.149   8.959  17.004  0.00  0.00    +0.000 OA
ATOM      3  N   UNL     1       2.180   7.668  18.883  0.00  0.00    +0.000 N 
ATOM      4  H   UNL     1       2.253   7.687  19.898  0.00  0.00    +0.000 HD
ENDROOT
BRANCH   1   8
ATOM      5  C   UNL     1       1.830  13.712  18.771  0.00  0.00    +0.000 C 
ATOM      6  N   UNL     1       1.407  12.421  19.282  0.00  0.00    +0.000 N 
ATOM      7  C   UNL     1       1.772  11.262  18.617  0.00  0.00    +0.000 A 
ATOM      8  C   UNL     1       1.483  10.019  19.051  0.00  0.00    +0.000 A 
ATOM      9  C   UNL     1       0.794   9.903  20.368  0.00  0.00    +0.000 A 
ATOM     10  C   UNL     1       0.530   8.677  21.002  0.00  0.00    +0.000 A 
ATOM     11  C   UNL     1      -0.166   8.617  22.219  0.00  0.00    +0.000 A 
ATOM     12  C   UNL     1      -0.617   9.780  22.834  0.00  0.00    +0.000 A 
ATOM     13  C   UNL     1      -0.340  11.008  22.246  0.00  0.00    +0.000 A 
ATOM     14  C   UNL     1       0.369  11.068  21.035  0.00  0.00    +0.000 A 
ATOM     15  C   UNL     1       0.698  12.407  20.483  0.00  0.00    +0.000 A 
ATOM     16  O   UNL     1       0.372  13.423  21.088  0.00  0.00    +0.000 OA
ENDBRANCH   1   8
BRANCH   3  17
ATOM     17  C   UNL     1       2.732   6.482  18.226  0.00  0.00    +0.000 C 
BRANCH  17  18
ATOM     18  C   UNL     1       2.159   5.182  18.791  0.00  0.00    +0.000 A 
ATOM     19  C   UNL     1       1.938   5.059  20.172  0.00  0.00    +0.000 A 
ATOM     20  C   UNL     1       1.295   3.934  20.699  0.00  0.00    +0.000 A 
ATOM     21  C   UNL     1       0.870   2.912  19.855  0.00  0.00    +0.000 A 
ATOM     22  C   UNL     1       1.106   3.006  18.485  0.00  0.00    +0.000 A 
ATOM     23  C   UNL     1       1.751   4.127  17.957  0.00  0.00    +0.000 A 
ENDBRANCH  17  18
BRANCH  17  24
ATOM     24  C   UNL     1       4.280   6.425  18.336  0.00  0.00    +0.000 C 
BRANCH  24  25
ATOM     25  N   UNL     1       4.951   5.676  17.284  0.00  0.00    +0.000 N 
ATOM     26  C   UNL     1       5.292   4.282  17.402  0.00  0.00    +0.000 C 
ATOM     27  C   UNL     1       6.357   4.131  16.332  0.00  0.00    +0.000 C 
ATOM     28  C   UNL     1       5.856   5.052  15.220  0.00  0.00    +0.000 C 
ATOM     29  C   UNL     1       5.168   6.150  15.998  0.00  0.00    +0.000 C 
ATOM     30  O   UNL     1       4.809   7.235  15.569  0.00  0.00    +0.000 OA
ENDBRANCH  24  25
ENDBRANCH  17  24
ENDBRANCH   3  17
TORSDOF 5
ENDMDL
MODEL 3
REMARK VINA RESULT:      -8.9      0.838      2.691
REMARK  Name = 
REMARK  6 active torsions:
REMARK  status: ('A' for Active; 'I' for Inactive)
REMARK    1  A    between atoms: C_1  and  N_2
REMARK    2  A    between atoms: C_4  and  C_5
REMARK    3  A    between atoms: N_7  and  C_8
REMARK    4  A    between atoms: C_8  and  C_9
REMARK    5  A    between atoms: C_8  and  C_16
REMARK    6  A    between atoms: C_9  and  N_10
REMARK                            x       y       z     vdW  Elec       q    Type
REMARK                         _______ _______ _______ _____ _____    ______ ____
ROOT
ATOM      1  C   UNL     1       1.823   8.734  18.597  0.00  0.00    +0.000 C 
ATOM      2  O   UNL     1       1.957   8.933  17.394  0.00  0.00    +0.000 OA
ATOM      3  N   UNL     1       2.166   7.532  19.180  0.00  0.00    +0.000 N 
ATOM      4  H   UNL     1       2.290   7.491  20.190  0.00  0.00    +0.000 HD
ENDROOT
BRANCH   1   8
ATOM      5  C   UNL     1      -0.679   9.812  22.665  0.00  0.00    +0.000 C 
ATOM      6  N   UNL     1       0.125  10.315  21.567  0.00  0.00    +0.000 N 
ATOM      7  C   UNL     1       0.631   9.435  20.623  0.00  0.00    +0.000 A 
ATOM      8  C   UNL     1       1.330   9.816  19.536  0.00  0.00    +0.000 A 
ATOM      9  C   UNL     1       1.494  11.280  19.311  0.00  0.00    +0.000 A 
ATOM     10  C   UNL     1       2.098  11.828  18.166  0.00  0.00    +0.000 A 
ATOM     11  C   UNL     1       2.273  13.214  18.023  0.00  0.00    +0.000 A 
ATOM     12  C   UNL     1       1.851  14.087  19.020  0.00  0.00    +0.000 A 
ATOM     13  C   UNL     1       1.220  13.574  20.148  0.00  0.00    +0.000 A 
ATOM     14  C   UNL     1       1.033  12.188  20.284  0.00  0.00    +0.000 A 
ATOM     15  C   UNL     1       0.293  11.696  21.474  0.00  0.00    +0.000 A 
ATOM     16  O   UNL     1      -0.152  12.489  22.297  0.00  0.00    +0.000 OA
ENDBRANCH   1   8
BRANCH   3  17
ATOM     17  C   UNL     1       2.759   6.429  18.421  0.00  0.00    +0.000 C 
BRANCH  17  18
ATOM     18  C   UNL     1       2.200   5.068  18.838  0.00  0.00    +0.000 A 
ATOM     19  C   UNL     1       1.741   4.874  20.150  0.00  0.00    +0.000 A 
ATOM     20  C   UNL     1       1.107   3.684  20.521  0.00  0.00    +0.000 A 
ATOM     21  C   UNL     1       0.929   2.666  19.588  0.00  0.00    +0.000 A 
ATOM     22  C   UNL     1       1.404   2.831  18.289  0.00  0.00    +0.000 A 
ATOM     23  C   UNL     1       2.040   4.018  17.917  0.00  0.00    +0.000 A 
ENDBRANCH  17  18
BRANCH  17  24
ATOM     24  C   UNL     1       4.305   6.390  18.564  0.00  0.00    +0.000 C 
BRANCH  24  25
ATOM     25  N   UNL     1       5.015   5.758  17.461  0.00  0.00    +0.000 N 
ATOM     26  C   UNL     1       5.090   6.328  16.141  0.00  0.00    +0.000 C 
ATOM     27  C   UNL     1       5.465   5.121  15.303  0.00  0.00    +0.000 C 
ATOM     28  C   UNL     1       6.408   4.347  16.223  0.00  0.00    +0.000 C 
ATOM     29  C   UNL     1       5.846   4.656  17.592  0.00  0.00    +0.000 C 
ATOM     30  O   UNL     1       6.114   4.085  18.637  0.00  0.00    +0.000 OA
ENDBRANCH  24  25
ENDBRANCH  17  24
ENDBRANCH   3  17
TORSDOF 5
ENDMDL
MODEL 4
REMARK VINA RESULT:      -8.9      1.463      1.729
REMARK  Name = 
REMARK  6 active torsions:
REMARK  status: ('A' for Active; 'I' for Inactive)
REMARK    1  A    between atoms: C_1  and  N_2
REMARK    2  A    between atoms: C_4  and  C_5
REMARK    3  A    between atoms: N_7  and  C_8
REMARK    4  A    between atoms: C_8  and  C_9
REMARK    5  A    between atoms: C_8  and  C_16
REMARK    6  A    between atoms: C_9  and  N_10
REMARK                            x       y       z     vdW  Elec       q    Type
REMARK                         _______ _______ _______ _____ _____    ______ ____
ROOT
ATOM      1  C   UNL     1       1.855   8.445  18.187  0.00  0.00    +0.000 C 
ATOM      2  O   UNL     1       2.636   8.856  17.336  0.00  0.00    +0.000 OA
ATOM      3  N   UNL     1       1.887   7.140  18.635  0.00  0.00    +0.000 N 
ATOM      4  H   UNL     1       1.416   6.907  19.508  0.00  0.00    +0.000 HD
ENDROOT
BRANCH   1   8
ATOM      5  C   UNL     1      -1.552  11.912  17.605  0.00  0.00    +0.000 C 
ATOM      6  N   UNL     1      -0.859  11.036  18.531  0.00  0.00    +0.000 N 
ATOM      7  C   UNL     1       0.104  10.158  18.061  0.00  0.00    +0.000 A 
ATOM      8  C   UNL     1       0.844   9.356  18.852  0.00  0.00    +0.000 A 
ATOM      9  C   UNL     1       0.654   9.489  20.324  0.00  0.00    +0.000 A 
ATOM     10  C   UNL     1       1.432   8.805  21.274  0.00  0.00    +0.000 A 
ATOM     11  C   UNL     1       1.181   8.927  22.650  0.00  0.00    +0.000 A 
ATOM     12  C   UNL     1       0.148   9.735  23.112  0.00  0.00    +0.000 A 
ATOM     13  C   UNL     1      -0.615  10.449  22.196  0.00  0.00    +0.000 A 
ATOM     14  C   UNL     1      -0.355  10.338  20.820  0.00  0.00    +0.000 A 
ATOM     15  C   UNL     1      -1.153  11.174  19.888  0.00  0.00    +0.000 A 
ATOM     16  O   UNL     1      -1.998  11.950  20.321  0.00  0.00    +0.000 OA
ENDBRANCH   1   8
BRANCH   3  17
ATOM     17  C   UNL     1       2.879   6.170  18.168  0.00  0.00    +0.000 C 
BRANCH  17  18
ATOM     18  C   UNL     1       2.441   4.726  18.410  0.00  0.00    +0.000 A 
ATOM     19  C   UNL     1       1.612   4.420  19.501  0.00  0.00    +0.000 A 
ATOM     20  C   UNL     1       1.092   3.133  19.669  0.00  0.00    +0.000 A 
ATOM     21  C   UNL     1       1.397   2.129  18.754  0.00  0.00    +0.000 A 
ATOM     22  C   UNL     1       2.240   2.408  17.681  0.00  0.00    +0.000 A 
ATOM     23  C   UNL     1       2.764   3.692  17.512  0.00  0.00    +0.000 A 
ENDBRANCH  17  18
BRANCH  17  24
ATOM     24  C   UNL     1       4.261   6.383  18.842  0.00  0.00    +0.000 C 
BRANCH  24  25
ATOM     25  N   UNL     1       5.407   5.920  18.072  0.00  0.00    +0.000 N 
ATOM     26  C   UNL     1       6.013   6.691  17.017  0.00  0.00    +0.000 C 
ATOM     27  C   UNL     1       6.770   5.624  16.250  0.00  0.00    +0.000 C 
ATOM     28  C   UNL     1       7.264   4.694  17.357  0.00  0.00    +0.000 C 
ATOM     29  C   UNL     1       6.154   4.793  18.378  0.00  0.00    +0.000 C 
ATOM     30  O   UNL     1       5.975   4.057  19.336  0.00  0.00    +0.000 OA
ENDBRANCH  24  25
ENDBRANCH  17  24
ENDBRANCH   3  17
TORSDOF 5
ENDMDL
MODEL 5
REMARK VINA RESULT:      -8.6      1.671      2.063
REMARK  Name = 
REMARK  6 active torsions:
REMARK  status: ('A' for Active; 'I' for Inactive)
REMARK    1  A    between atoms: C_1  and  N_2
REMARK    2  A    between atoms: C_4  and  C_5
REMARK    3  A    between atoms: N_7  and  C_8
REMARK    4  A    between atoms: C_8  and  C_9
REMARK    5  A    between atoms: C_8  and  C_16
REMARK    6  A    between atoms: C_9  and  N_10
REMARK                            x       y       z     vdW  Elec       q    Type
REMARK                         _______ _______ _______ _____ _____    ______ ____
ROOT
ATOM      1  C   UNL     1       1.846   8.409  18.051  0.00  0.00    +0.000 C 
ATOM      2  O   UNL     1       2.656   8.836  17.235  0.00  0.00    +0.000 OA
ATOM      3  N   UNL     1       1.842   7.088  18.452  0.00  0.00    +0.000 N 
ATOM      4  H   UNL     1       1.346   6.834  19.303  0.00  0.00    +0.000 HD
ENDROOT
BRANCH   1   8
ATOM      5  C   UNL     1      -1.631  11.810  17.489  0.00  0.00    +0.000 C 
ATOM      6  N   UNL     1      -0.902  10.962  18.414  0.00  0.00    +0.000 N 
ATOM      7  C   UNL     1       0.065  10.091  17.936  0.00  0.00    +0.000 A 
ATOM      8  C   UNL     1       0.836   9.315  18.723  0.00  0.00    +0.000 A 
ATOM      9  C   UNL     1       0.678   9.471  20.197  0.00  0.00    +0.000 A 
ATOM     10  C   UNL     1       1.488   8.816  21.140  0.00  0.00    +0.000 A 
ATOM     11  C   UNL     1       1.267   8.958  22.519  0.00  0.00    +0.000 A 
ATOM     12  C   UNL     1       0.232   9.757  22.991  0.00  0.00    +0.000 A 
ATOM     13  C   UNL     1      -0.564  10.443  22.081  0.00  0.00    +0.000 A 
ATOM     14  C   UNL     1      -0.334  10.311  20.701  0.00  0.00    +0.000 A 
ATOM     15  C   UNL     1      -1.167  11.118  19.774  0.00  0.00    +0.000 A 
ATOM     16  O   UNL     1      -2.015  11.888  20.214  0.00  0.00    +0.000 OA
ENDBRANCH   1   8
BRANCH   3  17
ATOM     17  C   UNL     1       2.828   6.117  17.974  0.00  0.00    +0.000 C 
BRANCH  17  18
ATOM     18  C   UNL     1       2.445   4.679  18.323  0.00  0.00    +0.000 A 
ATOM     19  C   UNL     1       1.695   4.416  19.479  0.00  0.00    +0.000 A 
ATOM     20  C   UNL     1       1.220   3.129  19.752  0.00  0.00    +0.000 A 
ATOM     21  C   UNL     1       1.495   2.082  18.876  0.00  0.00    +0.000 A 
ATOM     22  C   UNL     1       2.262   2.319  17.737  0.00  0.00    +0.000 A 
ATOM     23  C   UNL     1       2.739   3.604  17.465  0.00  0.00    +0.000 A 
ENDBRANCH  17  18
BRANCH  17  24
ATOM     24  C   UNL     1       4.245   6.400  18.543  0.00  0.00    +0.000 C 
BRANCH  24  25
ATOM     25  N   UNL     1       5.342   5.772  17.820  0.00  0.00    +0.000 N 
ATOM     26  C   UNL     1       6.054   4.621  18.311  0.00  0.00    +0.000 C 
ATOM     27  C   UNL     1       7.336   4.682  17.501  0.00  0.00    +0.000 C 
ATOM     28  C   UNL     1       6.855   5.180  16.139  0.00  0.00    +0.000 C 
ATOM     29  C   UNL     1       5.700   6.080  16.516  0.00  0.00    +0.000 C 
ATOM     30  O   UNL     1       5.139   6.889  15.794  0.00  0.00    +0.000 OA
ENDBRANCH  24  25
ENDBRANCH  17  24
ENDBRANCH   3  17
TORSDOF 5
ENDMDL
MODEL 6
REMARK VINA RESULT:      -8.6      1.582      2.430
REMARK  Name = 
REMARK  6 active torsions:
REMARK  status: ('A' for Active; 'I' for Inactive)
REMARK    1  A    between atoms: C_1  and  N_2
REMARK    2  A    between atoms: C_4  and  C_5
REMARK    3  A    between atoms: N_7  and  C_8
REMARK    4  A    between atoms: C_8  and  C_9
REMARK    5  A    between atoms: C_8  and  C_16
REMARK    6  A    between atoms: C_9  and  N_10
REMARK                            x       y       z     vdW  Elec       q    Type
REMARK                         _______ _______ _______ _____ _____    ______ ____
ROOT
ATOM      1  C   UNL     1       1.748   8.187  18.743  0.00  0.00    +0.000 C 
ATOM      2  O   UNL     1       2.015   8.606  17.622  0.00  0.00    +0.000 OA
ATOM      3  N   UNL     1       2.083   6.909  19.143  0.00  0.00    +0.000 N 
ATOM      4  H   UNL     1       2.086   6.688  20.137  0.00  0.00    +0.000 HD
ENDROOT
BRANCH   1   8
ATOM      5  C   UNL     1       1.276   9.261  23.496  0.00  0.00    +0.000 C 
ATOM      6  N   UNL     1       0.904   9.596  22.134  0.00  0.00    +0.000 N 
ATOM      7  C   UNL     1       1.424   8.867  21.078  0.00  0.00    +0.000 A 
ATOM      8  C   UNL     1       1.087   9.062  19.788  0.00  0.00    +0.000 A 
ATOM      9  C   UNL     1       0.033  10.077  19.507  0.00  0.00    +0.000 A 
ATOM     10  C   UNL     1      -0.502  10.309  18.228  0.00  0.00    +0.000 A 
ATOM     11  C   UNL     1      -1.460  11.312  18.006  0.00  0.00    +0.000 A 
ATOM     12  C   UNL     1      -1.907  12.108  19.055  0.00  0.00    +0.000 A 
ATOM     13  C   UNL     1      -1.419  11.877  20.336  0.00  0.00    +0.000 A 
ATOM     14  C   UNL     1      -0.471  10.865  20.560  0.00  0.00    +0.000 A 
ATOM     15  C   UNL     1      -0.034  10.613  21.957  0.00  0.00    +0.000 A 
ATOM     16  O   UNL     1      -0.508  11.265  22.881  0.00  0.00    +0.000 OA
ENDBRANCH   1   8
BRANCH   3  17
ATOM     17  C   UNL     1       2.821   5.983  18.282  0.00  0.00    +0.000 C 
BRANCH  17  18
ATOM     18  C   UNL     1       2.299   4.549  18.385  0.00  0.00    +0.000 A 
ATOM     19  C   UNL     1       2.775   3.568  17.502  0.00  0.00    +0.000 A 
ATOM     20  C   UNL     1       2.414   2.226  17.657  0.00  0.00    +0.000 A 
ATOM     21  C   UNL     1       1.565   1.845  18.693  0.00  0.00    +0.000 A 
ATOM     22  C   UNL     1       1.062   2.810  19.562  0.00  0.00    +0.000 A 
ATOM     23  C   UNL     1       1.419   4.152  19.407  0.00  0.00    +0.000 A 
ENDBRANCH  17  18
BRANCH  17  24
ATOM     24  C   UNL     1       4.340   5.976  18.605  0.00  0.00    +0.000 C 
BRANCH  24  25
ATOM     25  N   UNL     1       5.214   5.677  17.480  0.00  0.00    +0.000 N 
ATOM     26  C   UNL     1       5.089   6.312  16.193  0.00  0.00    +0.000 C 
ATOM     27  C   UNL     1       5.838   5.345  15.296  0.00  0.00    +0.000 C 
ATOM     28  C   UNL     1       6.989   4.877  16.185  0.00  0.00    +0.000 C 
ATOM     29  C   UNL     1       6.364   4.906  17.562  0.00  0.00    +0.000 C 
ATOM     30  O   UNL     1       6.812   4.399  18.578  0.00  0.00    +0.000 OA
ENDBRANCH  24  25
ENDBRANCH  17  24
ENDBRANCH   3  17
TORSDOF 5
ENDMDL
MODEL 7
REMARK VINA RESULT:      -8.5      1.205      2.937
REMARK  Name = 
REMARK  6 active torsions:
REMARK  status: ('A' for Active; 'I' for Inactive)
REMARK    1  A    between atoms: C_1  and  N_2
REMARK    2  A    between atoms: C_4  and  C_5
REMARK    3  A    between atoms: N_7  and  C_8
REMARK    4  A    between atoms: C_8  and  C_9
REMARK    5  A    between atoms: C_8  and  C_16
REMARK    6  A    between atoms: C_9  and  N_10
REMARK                            x       y       z     vdW  Elec       q    Type
REMARK                         _______ _______ _______ _____ _____    ______ ____
ROOT
ATOM      1  C   UNL     1       1.866   8.695  18.500  0.00  0.00    +0.000 C 
ATOM      2  O   UNL     1       2.052   8.889  17.304  0.00  0.00    +0.000 OA
ATOM      3  N   UNL     1       2.124   7.475  19.090  0.00  0.00    +0.000 N 
ATOM      4  H   UNL     1       2.211   7.425  20.103  0.00  0.00    +0.000 HD
ENDROOT
BRANCH   1   8
ATOM      5  C   UNL     1      -0.623   9.884  22.545  0.00  0.00    +0.000 C 
ATOM      6  N   UNL     1       0.200  10.353  21.446  0.00  0.00    +0.000 N 
ATOM      7  C   UNL     1       0.685   9.450  20.513  0.00  0.00    +0.000 A 
ATOM      8  C   UNL     1       1.400   9.800  19.426  0.00  0.00    +0.000 A 
ATOM      9  C   UNL     1       1.607  11.256  19.188  0.00  0.00    +0.000 A 
ATOM     10  C   UNL     1       2.231  11.776  18.041  0.00  0.00    +0.000 A 
ATOM     11  C   UNL     1       2.446  13.155  17.886  0.00  0.00    +0.000 A 
ATOM     12  C   UNL     1       2.044  14.049  18.872  0.00  0.00    +0.000 A 
ATOM     13  C   UNL     1       1.394  13.565  20.001  0.00  0.00    +0.000 A 
ATOM     14  C   UNL     1       1.167  12.186  20.150  0.00  0.00    +0.000 A 
ATOM     15  C   UNL     1       0.408  11.728  21.341  0.00  0.00    +0.000 A 
ATOM     16  O   UNL     1      -0.019  12.540  22.154  0.00  0.00    +0.000 OA
ENDBRANCH   1   8
BRANCH   3  17
ATOM     17  C   UNL     1       2.682   6.343  18.347  0.00  0.00    +0.000 C 
BRANCH  17  18
ATOM     18  C   UNL     1       2.148   4.999  18.843  0.00  0.00    +0.000 A 
ATOM     19  C   UNL     1       2.021   4.764  20.221  0.00  0.00    +0.000 A 
ATOM     20  C   UNL     1       1.415   3.598  20.697  0.00  0.00    +0.000 A 
ATOM     21  C   UNL     1       0.932   2.644  19.804  0.00  0.00    +0.000 A 
ATOM     22  C   UNL     1       1.075   2.850  18.434  0.00  0.00    +0.000 A 
ATOM     23  C   UNL     1       1.683   4.013  17.956  0.00  0.00    +0.000 A 
ENDBRANCH  17  18
BRANCH  17  24
ATOM     24  C   UNL     1       4.233   6.311  18.417  0.00  0.00    +0.000 C 
BRANCH  24  25
ATOM     25  N   UNL     1       4.891   5.623  17.316  0.00  0.00    +0.000 N 
ATOM     26  C   UNL     1       5.209   4.218  17.340  0.00  0.00    +0.000 C 
ATOM     27  C   UNL     1       6.271   4.122  16.261  0.00  0.00    +0.000 C 
ATOM     28  C   UNL     1       5.785   5.123  15.214  0.00  0.00    +0.000 C 
ATOM     29  C   UNL     1       5.115   6.178  16.065  0.00  0.00    +0.000 C 
ATOM     30  O   UNL     1       4.774   7.295  15.709  0.00  0.00    +0.000 OA
ENDBRANCH  24  25
ENDBRANCH  17  24
ENDBRANCH   3  17
TORSDOF 5
ENDMDL
MODEL 8
REMARK VINA RESULT:      -8.4      1.981      2.560
REMARK  Name = 
REMARK  6 active torsions:
REMARK  status: ('A' for Active; 'I' for Inactive)
REMARK    1  A    between atoms: C_1  and  N_2
REMARK    2  A    between atoms: C_4  and  C_5
REMARK    3  A    between atoms: N_7  and  C_8
REMARK    4  A    between atoms: C_8  and  C_9
REMARK    5  A    between atoms: C_8  and  C_16
REMARK    6  A    between atoms: C_9  and  N_10
REMARK                            x       y       z     vdW  Elec       q    Type
REMARK                         _______ _______ _______ _____ _____    ______ ____
ROOT
ATOM      1  C   UNL     1       1.483   9.029  17.973  0.00  0.00    +0.000 C 
ATOM      2  O   UNL     1       2.249   9.299  17.053  0.00  0.00    +0.000 OA
ATOM      3  N   UNL     1       1.451   7.776  18.551  0.00  0.00    +0.000 N 
ATOM      4  H   UNL     1       1.007   7.665  19.461  0.00  0.00    +0.000 HD
ENDROOT
BRANCH   1   8
ATOM      5  C   UNL     1       0.856  12.437  21.432  0.00  0.00    +0.000 C 
ATOM      6  N   UNL     1       0.298  11.771  20.270  0.00  0.00    +0.000 N 
ATOM      7  C   UNL     1       1.026  10.786  19.622  0.00  0.00    +0.000 A 
ATOM      8  C   UNL     1       0.564  10.069  18.579  0.00  0.00    +0.000 A 
ATOM      9  C   UNL     1      -0.845  10.311  18.158  0.00  0.00    +0.000 A 
ATOM     10  C   UNL     1      -1.500   9.563  17.165  0.00  0.00    +0.000 A 
ATOM     11  C   UNL     1      -2.813   9.862  16.769  0.00  0.00    +0.000 A 
ATOM     12  C   UNL     1      -3.505  10.916  17.355  0.00  0.00    +0.000 A 
ATOM     13  C   UNL     1      -2.894  11.651  18.364  0.00  0.00    +0.000 A 
ATOM     14  C   UNL     1      -1.584  11.343  18.769  0.00  0.00    +0.000 A 
ATOM     15  C   UNL     1      -1.002  12.114  19.897  0.00  0.00    +0.000 A 
ATOM     16  O   UNL     1      -1.662  12.978  20.462  0.00  0.00    +0.000 OA
ENDBRANCH   1   8
BRANCH   3  17
ATOM     17  C   UNL     1       2.356   6.699  18.147  0.00  0.00    +0.000 C 
BRANCH  17  18
ATOM     18  C   UNL     1       1.989   5.359  18.786  0.00  0.00    +0.000 A 
ATOM     19  C   UNL     1       1.877   5.258  20.181  0.00  0.00    +0.000 A 
ATOM     20  C   UNL     1       1.416   4.082  20.782  0.00  0.00    +0.000 A 
ATOM     21  C   UNL     1       1.068   2.986  19.997  0.00  0.00    +0.000 A 
ATOM     22  C   UNL     1       1.199   3.060  18.612  0.00  0.00    +0.000 A 
ATOM     23  C   UNL     1       1.662   4.232  18.011  0.00  0.00    +0.000 A 
ENDBRANCH  17  18
BRANCH  17  24
ATOM     24  C   UNL     1       3.834   7.021  18.497  0.00  0.00    +0.000 C 
BRANCH  24  25
ATOM     25  N   UNL     1       4.829   6.308  17.708  0.00  0.00    +0.000 N 
ATOM     26  C   UNL     1       5.129   6.631  16.337  0.00  0.00    +0.000 C 
ATOM     27  C   UNL     1       5.801   5.358  15.859  0.00  0.00    +0.000 C 
ATOM     28  C   UNL     1       6.597   4.912  17.084  0.00  0.00    +0.000 C 
ATOM     29  C   UNL     1       5.722   5.381  18.224  0.00  0.00    +0.000 C 
ATOM     30  O   UNL     1       5.815   5.056  19.397  0.00  0.00    +0.000 OA
ENDBRANCH  24  25
ENDBRANCH  17  24
ENDBRANCH   3  17
TORSDOF 5
ENDMDL
MODEL 9
REMARK VINA RESULT:      -8.4      1.943      2.891
REMARK  Name = 
REMARK  6 active torsions:
REMARK  status: ('A' for Active; 'I' for Inactive)
REMARK    1  A    between atoms: C_1  and  N_2
REMARK    2  A    between atoms: C_4  and  C_5
REMARK    3  A    between atoms: N_7  and  C_8
REMARK    4  A    between atoms: C_8  and  C_9
REMARK    5  A    between atoms: C_8  and  C_16
REMARK    6  A    between atoms: C_9  and  N_10
REMARK                            x       y       z     vdW  Elec       q    Type
REMARK                         _______ _______ _______ _____ _____    ______ ____
ROOT
ATOM      1  C   UNL     1       1.840   8.343  18.422  0.00  0.00    +0.000 C 
ATOM      2  O   UNL     1       2.227   8.816  17.359  0.00  0.00    +0.000 OA
ATOM      3  N   UNL     1       2.193   7.072  18.828  0.00  0.00    +0.000 N 
ATOM      4  H   UNL     1       2.078   6.818  19.806  0.00  0.00    +0.000 HD
ENDROOT
BRANCH   1   8
ATOM      5  C   UNL     1       0.904   9.455  23.098  0.00  0.00    +0.000 C 
ATOM      6  N   UNL     1       0.584   9.704  21.704  0.00  0.00    +0.000 N 
ATOM      7  C   UNL     1       1.269   9.028  20.708  0.00  0.00    +0.000 A 
ATOM      8  C   UNL     1       0.997   9.145  19.393  0.00  0.00    +0.000 A 
ATOM      9  C   UNL     1      -0.163   9.999  19.012  0.00  0.00    +0.000 A 
ATOM     10  C   UNL     1      -0.637  10.125  17.695  0.00  0.00    +0.000 A 
ATOM     11  C   UNL     1      -1.704  10.981  17.379  0.00  0.00    +0.000 A 
ATOM     12  C   UNL     1      -2.324  11.733  18.371  0.00  0.00    +0.000 A 
ATOM     13  C   UNL     1      -1.898  11.601  19.687  0.00  0.00    +0.000 A 
ATOM     14  C   UNL     1      -0.839  10.734  20.004  0.00  0.00    +0.000 A 
ATOM     15  C   UNL     1      -0.468  10.579  21.434  0.00  0.00    +0.000 A 
ATOM     16  O   UNL     1      -1.088  11.181  22.304  0.00  0.00    +0.000 OA
ENDBRANCH   1   8
BRANCH   3  17
ATOM     17  C   UNL     1       3.091   6.218  18.048  0.00  0.00    +0.000 C 
BRANCH  17  18
ATOM     18  C   UNL     1       2.895   4.733  18.355  0.00  0.00    +0.000 A 
ATOM     19  C   UNL     1       2.837   4.297  19.688  0.00  0.00    +0.000 A 
ATOM     20  C   UNL     1       2.529   2.969  19.996  0.00  0.00    +0.000 A 
ATOM     21  C   UNL     1       2.282   2.053  18.977  0.00  0.00    +0.000 A 
ATOM     22  C   UNL     1       2.362   2.462  17.648  0.00  0.00    +0.000 A 
ATOM     23  C   UNL     1       2.673   3.789  17.338  0.00  0.00    +0.000 A 
ENDBRANCH  17  18
BRANCH  17  24
ATOM     24  C   UNL     1       4.583   6.576  18.286  0.00  0.00    +0.000 C 
BRANCH  24  25
ATOM     25  N   UNL     1       5.540   5.800  17.509  0.00  0.00    +0.000 N 
ATOM     26  C   UNL     1       6.244   4.659  18.036  0.00  0.00    +0.000 C 
ATOM     27  C   UNL     1       7.410   4.543  17.074  0.00  0.00    +0.000 C 
ATOM     28  C   UNL     1       6.786   4.928  15.734  0.00  0.00    +0.000 C 
ATOM     29  C   UNL     1       5.743   5.943  16.145  0.00  0.00    +0.000 C 
ATOM     30  O   UNL     1       5.140   6.709  15.410  0.00  0.00    +0.000 OA
ENDBRANCH  24  25
ENDBRANCH  17  24
ENDBRANCH   3  17
TORSDOF 5
ENDMDL
