MODEL 1
REMARK VINA RESULT:      -8.6      0.000      0.000
REMARK  Name = 
REMARK  7 active torsions:
REMARK  status: ('A' for Active; 'I' for Inactive)
REMARK    1  A    between atoms: C_1  and  C_2
REMARK    2  A    between atoms: C_3  and  C_4
REMARK    3  A    between atoms: N_6  and  C_7
REMARK    4  A    between atoms: C_11  and  S_12
REMARK    5  A    between atoms: S_12  and  N_15
REMARK    6  A    between atoms: N_15  and  C_16
REMARK    7  A    between atoms: N_15  and  C_17
REMARK                            x       y       z     vdW  Elec       q    Type
REMARK                         _______ _______ _______ _____ _____    ______ ____
ROOT
ATOM      1  C   UNL     1       1.961   8.644  18.463  0.00  0.00    +0.000 C 
ATOM      2  O   UNL     1       2.208   8.990  17.311  0.00  0.00    +0.000 OA
ATOM      3  N   UNL     1       2.200   7.369  18.966  0.00  0.00    +0.000 N 
ATOM      4  H   UNL     1       1.809   7.183  19.885  0.00  0.00    +0.000 HD
ENDROOT
BRANCH   1   7
ATOM      5  C   UNL     1       1.811  11.932  18.515  0.00  0.00    +0.000 C 
ATOM      6  C   UNL     1       1.245  10.933  19.462  0.00  0.00    +0.000 A 
ATOM      7  C   UNL     1       1.324   9.544  19.412  0.00  0.00    +0.000 A 
ATOM      8  O   UNL     1       0.656   8.999  20.479  0.00  0.00    +0.000 OA
ATOM      9  C   UNL     1       0.153  10.029  21.213  0.00  0.00    +0.000 A 
ATOM     10  C   UNL     1      -0.592   9.923  22.383  0.00  0.00    +0.000 A 
ATOM     11  F   UNL     1      -0.890   8.736  22.925  0.00  0.00    +0.000 F 
ATOM     12  C   UNL     1      -1.034  11.102  22.983  0.00  0.00    +0.000 A 
ATOM     13  C   UNL     1      -0.727  12.343  22.420  0.00  0.00    +0.000 A 
ATOM     14  C   UNL     1       0.033  12.431  21.244  0.00  0.00    +0.000 A 
ATOM     15  C   UNL     1       0.482  11.244  20.628  0.00  0.00    +0.000 A 
ENDBRANCH   1   7
BRANCH   3  16
ATOM     16  C   UNL     1       2.816   6.302  18.275  0.00  0.00    +0.000 A 
ATOM     17  C   UNL     1       2.182   5.069  18.084  0.00  0.00    +0.000 A 
ATOM     18  C   UNL     1       2.823   4.019  17.424  0.00  0.00    +0.000 A 
ATOM     19  C   UNL     1       4.128   4.178  16.980  0.00  0.00    +0.000 A 
ATOM     20  C   UNL     1       4.779   5.393  17.199  0.00  0.00    +0.000 A 
ATOM     21  C   UNL     1       4.113   6.482  17.784  0.00  0.00    +0.000 A 
BRANCH  20  22
ATOM     22  S   UNL     1       6.507   5.503  16.794  0.00  0.00    +0.000 S 
ATOM     23  O   UNL     1       7.087   4.192  17.009  0.00  0.00    +0.000 OA
ATOM     24  O   UNL     1       6.619   6.171  15.517  0.00  0.00    +0.000 OA
BRANCH  22  25
ATOM     25  N   UNL     1       7.103   6.544  18.010  0.00  0.00    +0.000 NA
ATOM     26  C   UNL     1       7.876   5.918  19.097  0.00  0.00    +0.000 C 
ATOM     27  C   UNL     1       7.683   7.825  17.557  0.00  0.00    +0.000 C 
ENDBRANCH  22  25
ENDBRANCH  20  22
ENDBRANCH   3  16
TORSDOF 4
ENDMDL
MODEL 2
REMARK VINA RESULT:      -8.4      1.309      1.392
REMARK  Name = 
REMARK  7 active torsions:
REMARK  status: ('A' for Active; 'I' for Inactive)
REMARK    1  A    between atoms: C_1  and  C_2
REMARK    2  A    between atoms: C_3  and  C_4
REMARK    3  A    between atoms: N_6  and  C_7
REMARK    4  A    between atoms: C_11  and  S_12
REMARK    5  A    between atoms: S_12  and  N_15
REMARK    6  A    between atoms: N_15  and  C_16
REMARK    7  A    between atoms: N_15  and  C_17
REMARK                            x       y       z     vdW  Elec       q    Type
REMARK                         _______ _______ _______ _____ _____    ______ ____
ROOT
ATOM      1  C   UNL     1       2.035   7.049  19.958  0.00  0.00    +0.000 C 
ATOM      2  O   UNL     1       2.270   6.162  20.774  0.00  0.00    +0.000 OA
ATOM      3  N   UNL     1       2.486   7.041  18.642  0.00  0.00    +0.000 N 
ATOM      4  H   UNL     1       2.343   7.906  18.128  0.00  0.00    +0.000 HD
ENDROOT
BRANCH   1   7
ATOM      5  C   UNL     1       1.049   9.592  18.114  0.00  0.00    +0.000 C 
ATOM      6  C   UNL     1       0.864   9.336  19.568  0.00  0.00    +0.000 A 
ATOM      7  C   UNL     1       1.293   8.246  20.322  0.00  0.00    +0.000 A 
ATOM      8  O   UNL     1       0.906   8.401  21.629  0.00  0.00    +0.000 OA
ATOM      9  C   UNL     1       0.238   9.582  21.718  0.00  0.00    +0.000 A 
ATOM     10  C   UNL     1      -0.325  10.129  22.868  0.00  0.00    +0.000 A 
ATOM     11  F   UNL     1      -0.246   9.512  24.053  0.00  0.00    +0.000 F 
ATOM     12  C   UNL     1      -0.988  11.349  22.751  0.00  0.00    +0.000 A 
ATOM     13  C   UNL     1      -1.075  11.995  21.516  0.00  0.00    +0.000 A 
ATOM     14  C   UNL     1      -0.494  11.434  20.370  0.00  0.00    +0.000 A 
ATOM     15  C   UNL     1       0.177  10.198  20.475  0.00  0.00    +0.000 A 
ENDBRANCH   1   7
BRANCH   3  16
ATOM     16  C   UNL     1       3.214   6.006  18.016  0.00  0.00    +0.000 A 
ATOM     17  C   UNL     1       2.638   4.769  17.703  0.00  0.00    +0.000 A 
ATOM     18  C   UNL     1       3.387   3.750  17.112  0.00  0.00    +0.000 A 
ATOM     19  C   UNL     1       4.739   3.942  16.862  0.00  0.00    +0.000 A 
ATOM     20  C   UNL     1       5.328   5.161  17.206  0.00  0.00    +0.000 A 
ATOM     21  C   UNL     1       4.565   6.220  17.720  0.00  0.00    +0.000 A 
BRANCH  20  22
ATOM     22  S   UNL     1       7.094   5.310  17.054  0.00  0.00    +0.000 S 
ATOM     23  O   UNL     1       7.677   4.080  17.551  0.00  0.00    +0.000 OA
ATOM     24  O   UNL     1       7.383   5.790  15.722  0.00  0.00    +0.000 OA
BRANCH  22  25
ATOM     25  N   UNL     1       7.454   6.550  18.173  0.00  0.00    +0.000 NA
ATOM     26  C   UNL     1       8.215   6.157  19.372  0.00  0.00    +0.000 C 
ATOM     27  C   UNL     1       7.897   7.840  17.609  0.00  0.00    +0.000 C 
ENDBRANCH  22  25
ENDBRANCH  20  22
ENDBRANCH   3  16
TORSDOF 4
ENDMDL
MODEL 3
REMARK VINA RESULT:      -8.1      2.437      3.308
REMARK  Name = 
REMARK  7 active torsions:
REMARK  status: ('A' for Active; 'I' for Inactive)
REMARK    1  A    between atoms: C_1  and  C_2
REMARK    2  A    between atoms: C_3  and  C_4
REMARK    3  A    between atoms: N_6  and  C_7
REMARK    4  A    between atoms: C_11  and  S_12
REMARK    5  A    between atoms: S_12  and  N_15
REMARK    6  A    between atoms: N_15  and  C_16
REMARK    7  A    between atoms: N_15  and  C_17
REMARK                            x       y       z     vdW  Elec       q    Type
REMARK                         _______ _______ _______ _____ _____    ______ ____
ROOT
ATOM      1  C   UNL     1       1.759   9.023  18.592  0.00  0.00    +0.000 C 
ATOM      2  O   UNL     1       1.855   9.240  17.387  0.00  0.00    +0.000 OA
ATOM      3  N   UNL     1       2.154   7.840  19.208  0.00  0.00    +0.000 N 
ATOM      4  H   UNL     1       1.879   7.743  20.181  0.00  0.00    +0.000 HD
ENDROOT
BRANCH   1   7
ATOM      5  C   UNL     1       1.713  12.313  18.484  0.00  0.00    +0.000 C 
ATOM      6  C   UNL     1       1.119  11.380  19.479  0.00  0.00    +0.000 A 
ATOM      7  C   UNL     1       1.154   9.988  19.497  0.00  0.00    +0.000 A 
ATOM      8  O   UNL     1       0.473   9.517  20.590  0.00  0.00    +0.000 OA
ATOM      9  C   UNL     1       0.005  10.596  21.274  0.00  0.00    +0.000 A 
ATOM     10  C   UNL     1      -0.739  10.572  22.449  0.00  0.00    +0.000 A 
ATOM     11  F   UNL     1      -1.072   9.422  23.049  0.00  0.00    +0.000 F 
ATOM     12  C   UNL     1      -1.142  11.791  22.992  0.00  0.00    +0.000 A 
ATOM     13  C   UNL     1      -0.799  12.993  22.368  0.00  0.00    +0.000 A 
ATOM     14  C   UNL     1      -0.040  12.999  21.189  0.00  0.00    +0.000 A 
ATOM     15  C   UNL     1       0.370  11.771  20.630  0.00  0.00    +0.000 A 
ENDBRANCH   1   7
BRANCH   3  16
ATOM     16  C   UNL     1       2.780   6.741  18.579  0.00  0.00    +0.000 A 
ATOM     17  C   UNL     1       3.821   6.899  17.658  0.00  0.00    +0.000 A 
ATOM     18  C   UNL     1       4.403   5.799  17.026  0.00  0.00    +0.000 A 
ATOM     19  C   UNL     1       3.922   4.523  17.280  0.00  0.00    +0.000 A 
ATOM     20  C   UNL     1       2.859   4.361  18.171  0.00  0.00    +0.000 A 
ATOM     21  C   UNL     1       2.326   5.451  18.875  0.00  0.00    +0.000 A 
BRANCH  20  22
ATOM     22  S   UNL     1       2.137   2.743  18.330  0.00  0.00    +0.000 S 
ATOM     23  O   UNL     1       0.699   2.900  18.233  0.00  0.00    +0.000 OA
ATOM     24  O   UNL     1       2.853   1.852  17.445  0.00  0.00    +0.000 OA
BRANCH  22  25
ATOM     25  N   UNL     1       2.512   2.331  19.944  0.00  0.00    +0.000 NA
ATOM     26  C   UNL     1       3.911   2.522  20.367  0.00  0.00    +0.000 C 
ATOM     27  C   UNL     1       1.539   2.745  20.974  0.00  0.00    +0.000 C 
ENDBRANCH  22  25
ENDBRANCH  20  22
ENDBRANCH   3  16
TORSDOF 4
ENDMDL
MODEL 4
REMARK VINA RESULT:      -8.1      1.599      2.045
REMARK  Name = 
REMARK  7 active torsions:
REMARK  status: ('A' for Active; 'I' for Inactive)
REMARK    1  A    between atoms: C_1  and  C_2
REMARK    2  A    between atoms: C_3  and  C_4
REMARK    3  A    between atoms: N_6  and  C_7
REMARK    4  A    between atoms: C_11  and  S_12
REMARK    5  A    between atoms: S_12  and  N_15
REMARK    6  A    between atoms: N_15  and  C_16
REMARK    7  A    between atoms: N_15  and  C_17
REMARK                            x       y       z     vdW  Elec       q    Type
REMARK                         _______ _______ _______ _____ _____    ______ ____
ROOT
ATOM      1  C   UNL     1       2.052   8.391  18.156  0.00  0.00    +0.000 C 
ATOM      2  O   UNL     1       2.580   8.788  17.121  0.00  0.00    +0.000 OA
ATOM      3  N   UNL     1       2.126   7.081  18.620  0.00  0.00    +0.000 N 
ATOM      4  H   UNL     1       1.519   6.863  19.404  0.00  0.00    +0.000 HD
ENDROOT
BRANCH   1   7
ATOM      5  C   UNL     1       1.370   8.269  21.374  0.00  0.00    +0.000 C 
ATOM      6  C   UNL     1       0.922   9.238  20.337  0.00  0.00    +0.000 A 
ATOM      7  C   UNL     1       1.230   9.264  18.979  0.00  0.00    +0.000 A 
ATOM      8  O   UNL     1       0.615  10.334  18.381  0.00  0.00    +0.000 OA
ATOM      9  C   UNL     1      -0.087  10.990  19.344  0.00  0.00    +0.000 A 
ATOM     10  C   UNL     1      -0.861  12.134  19.169  0.00  0.00    +0.000 A 
ATOM     11  F   UNL     1      -0.997  12.716  17.972  0.00  0.00    +0.000 F 
ATOM     12  C   UNL     1      -1.494  12.670  20.290  0.00  0.00    +0.000 A 
ATOM     13  C   UNL     1      -1.352  12.067  21.542  0.00  0.00    +0.000 A 
ATOM     14  C   UNL     1      -0.576  10.910  21.698  0.00  0.00    +0.000 A 
ATOM     15  C   UNL     1       0.072  10.361  20.571  0.00  0.00    +0.000 A 
ENDBRANCH   1   7
BRANCH   3  16
ATOM     16  C   UNL     1       2.861   6.029  18.031  0.00  0.00    +0.000 A 
ATOM     17  C   UNL     1       2.330   4.743  17.871  0.00  0.00    +0.000 A 
ATOM     18  C   UNL     1       3.087   3.711  17.314  0.00  0.00    +0.000 A 
ATOM     19  C   UNL     1       4.403   3.943  16.943  0.00  0.00    +0.000 A 
ATOM     20  C   UNL     1       4.950   5.213  17.132  0.00  0.00    +0.000 A 
ATOM     21  C   UNL     1       4.172   6.279  17.611  0.00  0.00    +0.000 A 
BRANCH  20  22
ATOM     22  S   UNL     1       6.690   5.431  16.830  0.00  0.00    +0.000 S 
ATOM     23  O   UNL     1       7.342   4.171  17.127  0.00  0.00    +0.000 OA
ATOM     24  O   UNL     1       6.837   6.063  15.539  0.00  0.00    +0.000 OA
BRANCH  22  25
ATOM     25  N   UNL     1       7.135   6.550  18.041  0.00  0.00    +0.000 NA
ATOM     26  C   UNL     1       7.865   6.011  19.203  0.00  0.00    +0.000 C 
ATOM     27  C   UNL     1       7.669   7.846  17.578  0.00  0.00    +0.000 C 
ENDBRANCH  22  25
ENDBRANCH  20  22
ENDBRANCH   3  16
TORSDOF 4
ENDMDL
MODEL 5
REMARK VINA RESULT:      -8.1      3.882      8.636
REMARK  Name = 
REMARK  7 active torsions:
REMARK  status: ('A' for Active; 'I' for Inactive)
REMARK    1  A    between atoms: C_1  and  C_2
REMARK    2  A    between atoms: C_3  and  C_4
REMARK    3  A    between atoms: N_6  and  C_7
REMARK    4  A    between atoms: C_11  and  S_12
REMARK    5  A    between atoms: S_12  and  N_15
REMARK    6  A    between atoms: N_15  and  C_16
REMARK    7  A    between atoms: N_15  and  C_17
REMARK                            x       y       z     vdW  Elec       q    Type
REMARK                         _______ _______ _______ _____ _____    ______ ____
ROOT
ATOM      1  C   UNL     1       2.376   6.907  19.258  0.00  0.00    +0.000 C 
ATOM      2  O   UNL     1       1.920   6.371  20.264  0.00  0.00    +0.000 OA
ATOM      3  N   UNL     1       2.036   8.186  18.829  0.00  0.00    +0.000 N 
ATOM      4  H   UNL     1       2.374   8.440  17.905  0.00  0.00    +0.000 HD
ENDROOT
BRANCH   1   7
ATOM      5  C   UNL     1       2.028   4.064  17.637  0.00  0.00    +0.000 C 
ATOM      6  C   UNL     1       3.176   5.010  17.672  0.00  0.00    +0.000 A 
ATOM      7  C   UNL     1       3.293   6.210  18.369  0.00  0.00    +0.000 A 
ATOM      8  O   UNL     1       4.516   6.778  18.119  0.00  0.00    +0.000 OA
ATOM      9  C   UNL     1       5.184   5.949  17.272  0.00  0.00    +0.000 A 
ATOM     10  C   UNL     1       6.465   6.144  16.763  0.00  0.00    +0.000 A 
ATOM     11  F   UNL     1       7.196   7.217  17.087  0.00  0.00    +0.000 F 
ATOM     12  C   UNL     1       6.972   5.183  15.890  0.00  0.00    +0.000 A 
ATOM     13  C   UNL     1       6.211   4.062  15.548  0.00  0.00    +0.000 A 
ATOM     14  C   UNL     1       4.926   3.878  16.077  0.00  0.00    +0.000 A 
ATOM     15  C   UNL     1       4.402   4.846  16.959  0.00  0.00    +0.000 A 
ENDBRANCH   1   7
BRANCH   3  16
ATOM     16  C   UNL     1       1.182   9.090  19.498  0.00  0.00    +0.000 A 
ATOM     17  C   UNL     1       1.084   9.134  20.894  0.00  0.00    +0.000 A 
ATOM     18  C   UNL     1       0.210  10.015  21.532  0.00  0.00    +0.000 A 
ATOM     19  C   UNL     1      -0.611  10.841  20.777  0.00  0.00    +0.000 A 
ATOM     20  C   UNL     1      -0.544  10.777  19.384  0.00  0.00    +0.000 A 
ATOM     21  C   UNL     1       0.392   9.957  18.735  0.00  0.00    +0.000 A 
BRANCH  20  22
ATOM     22  S   UNL     1      -1.739  11.701  18.444  0.00  0.00    +0.000 S 
ATOM     23  O   UNL     1      -2.840  12.014  19.333  0.00  0.00    +0.000 OA
ATOM     24  O   UNL     1      -1.031  12.742  17.735  0.00  0.00    +0.000 OA
BRANCH  22  25
ATOM     25  N   UNL     1      -2.290  10.546  17.314  0.00  0.00    +0.000 NA
ATOM     26  C   UNL     1      -3.265   9.555  17.803  0.00  0.00    +0.000 C 
ATOM     27  C   UNL     1      -2.607  11.045  15.961  0.00  0.00    +0.000 C 
ENDBRANCH  22  25
ENDBRANCH  20  22
ENDBRANCH   3  16
TORSDOF 4
ENDMDL
MODEL 6
REMARK VINA RESULT:      -8.1      1.581      1.808
REMARK  Name = 
REMARK  7 active torsions:
REMARK  status: ('A' for Active; 'I' for Inactive)
REMARK    1  A    between atoms: C_1  and  C_2
REMARK    2  A    between atoms: C_3  and  C_4
REMARK    3  A    between atoms: N_6  and  C_7
REMARK    4  A    between atoms: C_11  and  S_12
REMARK    5  A    between atoms: S_12  and  N_15
REMARK    6  A    between atoms: N_15  and  C_16
REMARK    7  A    between atoms: N_15  and  C_17
REMARK                            x       y       z     vdW  Elec       q    Type
REMARK                         _______ _______ _______ _____ _____    ______ ____
ROOT
ATOM      1  C   UNL     1       2.067   7.690  19.546  0.00  0.00    +0.000 C 
ATOM      2  O   UNL     1       2.669   7.898  18.495  0.00  0.00    +0.000 OA
ATOM      3  N   UNL     1       2.104   6.488  20.244  0.00  0.00    +0.000 N 
ATOM      4  H   UNL     1       1.442   6.410  21.011  0.00  0.00    +0.000 HD
ENDROOT
BRANCH   1   7
ATOM      5  C   UNL     1       0.393  10.154  18.144  0.00  0.00    +0.000 C 
ATOM      6  C   UNL     1       0.473   9.742  19.572  0.00  0.00    +0.000 A 
ATOM      7  C   UNL     1       1.192   8.691  20.136  0.00  0.00    +0.000 A 
ATOM      8  O   UNL     1       0.982   8.655  21.491  0.00  0.00    +0.000 OA
ATOM      9  C   UNL     1       0.139   9.678  21.799  0.00  0.00    +0.000 A 
ATOM     10  C   UNL     1      -0.333  10.007  23.066  0.00  0.00    +0.000 A 
ATOM     11  F   UNL     1       0.026   9.314  24.154  0.00  0.00    +0.000 F 
ATOM     12  C   UNL     1      -1.208  11.087  23.175  0.00  0.00    +0.000 A 
ATOM     13  C   UNL     1      -1.587  11.810  22.042  0.00  0.00    +0.000 A 
ATOM     14  C   UNL     1      -1.094  11.470  20.774  0.00  0.00    +0.000 A 
ATOM     15  C   UNL     1      -0.211  10.377  20.652  0.00  0.00    +0.000 A 
ENDBRANCH   1   7
BRANCH   3  16
ATOM     16  C   UNL     1       2.875   5.353  19.911  0.00  0.00    +0.000 A 
ATOM     17  C   UNL     1       2.697   4.115  20.540  0.00  0.00    +0.000 A 
ATOM     18  C   UNL     1       3.492   3.016  20.215  0.00  0.00    +0.000 A 
ATOM     19  C   UNL     1       4.508   3.151  19.279  0.00  0.00    +0.000 A 
ATOM     20  C   UNL     1       4.715   4.392  18.673  0.00  0.00    +0.000 A 
ATOM     21  C   UNL     1       3.865   5.479  18.930  0.00  0.00    +0.000 A 
BRANCH  20  22
ATOM     22  S   UNL     1       6.139   4.587  17.626  0.00  0.00    +0.000 S 
ATOM     23  O   UNL     1       7.314   4.417  18.458  0.00  0.00    +0.000 OA
ATOM     24  O   UNL     1       5.934   3.777  16.447  0.00  0.00    +0.000 OA
BRANCH  22  25
ATOM     25  N   UNL     1       6.045   6.234  17.182  0.00  0.00    +0.000 NA
ATOM     26  C   UNL     1       7.257   7.045  17.391  0.00  0.00    +0.000 C 
ATOM     27  C   UNL     1       5.364   6.536  15.907  0.00  0.00    +0.000 C 
ENDBRANCH  22  25
ENDBRANCH  20  22
ENDBRANCH   3  16
TORSDOF 4
ENDMDL
MODEL 7
REMARK VINA RESULT:      -8.1      2.351      3.257
REMARK  Name = 
REMARK  7 active torsions:
REMARK  status: ('A' for Active; 'I' for Inactive)
REMARK    1  A    between atoms: C_1  and  C_2
REMARK    2  A    between atoms: C_3  and  C_4
REMARK    3  A    between atoms: N_6  and  C_7
REMARK    4  A    between atoms: C_11  and  S_12
REMARK    5  A    between atoms: S_12  and  N_15
REMARK    6  A    between atoms: N_15  and  C_16
REMARK    7  A    between atoms: N_15  and  C_17
REMARK                            x       y       z     vdW  Elec       q    Type
REMARK                         _______ _______ _______ _____ _____    ______ ____
ROOT
ATOM      1  C   UNL     1       1.533   9.079  18.686  0.00  0.00    +0.000 C 
ATOM      2  O   UNL     1       1.736   9.431  17.527  0.00  0.00    +0.000 OA
ATOM      3  N   UNL     1       2.061   7.926  19.257  0.00  0.00    +0.000 N 
ATOM      4  H   UNL     1       1.688   7.684  20.171  0.00  0.00    +0.000 HD
ENDROOT
BRANCH   1   7
ATOM      5  C   UNL     1      -0.547  11.546  18.035  0.00  0.00    +0.000 C 
ATOM      6  C   UNL     1      -0.236  10.872  19.325  0.00  0.00    +0.000 A 
ATOM      7  C   UNL     1       0.651   9.827  19.569  0.00  0.00    +0.000 A 
ATOM      8  O   UNL     1       0.630   9.498  20.900  0.00  0.00    +0.000 OA
ATOM      9  C   UNL     1      -0.259  10.326  21.510  0.00  0.00    +0.000 A 
ATOM     10  C   UNL     1      -0.587  10.336  22.863  0.00  0.00    +0.000 A 
ATOM     11  F   UNL     1      -0.019   9.491  23.732  0.00  0.00    +0.000 F 
ATOM     12  C   UNL     1      -1.540  11.257  23.295  0.00  0.00    +0.000 A 
ATOM     13  C   UNL     1      -2.137  12.138  22.392  0.00  0.00    +0.000 A 
ATOM     14  C   UNL     1      -1.788  12.120  21.033  0.00  0.00    +0.000 A 
ATOM     15  C   UNL     1      -0.827  11.191  20.584  0.00  0.00    +0.000 A 
ENDBRANCH   1   7
BRANCH   3  16
ATOM     16  C   UNL     1       2.952   7.022  18.639  0.00  0.00    +0.000 A 
ATOM     17  C   UNL     1       3.711   7.370  17.516  0.00  0.00    +0.000 A 
ATOM     18  C   UNL     1       4.564   6.449  16.904  0.00  0.00    +0.000 A 
ATOM     19  C   UNL     1       4.639   5.151  17.387  0.00  0.00    +0.000 A 
ATOM     20  C   UNL     1       3.857   4.787  18.485  0.00  0.00    +0.000 A 
ATOM     21  C   UNL     1       3.064   5.728  19.159  0.00  0.00    +0.000 A 
BRANCH  20  22
ATOM     22  S   UNL     1       3.826   3.073  18.961  0.00  0.00    +0.000 S 
ATOM     23  O   UNL     1       3.651   2.292  17.753  0.00  0.00    +0.000 OA
ATOM     24  O   UNL     1       4.945   2.841  19.847  0.00  0.00    +0.000 OA
BRANCH  22  25
ATOM     25  N   UNL     1       2.381   2.971  19.866  0.00  0.00    +0.000 NA
ATOM     26  C   UNL     1       1.259   2.249  19.240  0.00  0.00    +0.000 C 
ATOM     27  C   UNL     1       2.523   2.674  21.306  0.00  0.00    +0.000 C 
ENDBRANCH  22  25
ENDBRANCH  20  22
ENDBRANCH   3  16
TORSDOF 4
ENDMDL
MODEL 8
REMARK VINA RESULT:      -8.0      1.818      2.363
REMARK  Name = 
REMARK  7 active torsions:
REMARK  status: ('A' for Active; 'I' for Inactive)
REMARK    1  A    between atoms: C_1  and  C_2
REMARK    2  A    between atoms: C_3  and  C_4
REMARK    3  A    between atoms: N_6  and  C_7
REMARK    4  A    between atoms: C_11  and  S_12
REMARK    5  A    between atoms: S_12  and  N_15
REMARK    6  A    between atoms: N_15  and  C_16
REMARK    7  A    between atoms: N_15  and  C_17
REMARK                            x       y       z     vdW  Elec       q    Type
REMARK                         _______ _______ _______ _____ _____    ______ ____
ROOT
ATOM      1  C   UNL     1       2.250   6.842  19.748  0.00  0.00    +0.000 C 
ATOM      2  O   UNL     1       2.407   5.924  20.548  0.00  0.00    +0.000 OA
ATOM      3  N   UNL     1       2.740   6.838  18.446  0.00  0.00    +0.000 N 
ATOM      4  H   UNL     1       2.665   7.722  17.950  0.00  0.00    +0.000 HD
ENDROOT
BRANCH   1   7
ATOM      5  C   UNL     1       1.546   9.515  17.960  0.00  0.00    +0.000 C 
ATOM      6  C   UNL     1       1.259   9.218  19.390  0.00  0.00    +0.000 A 
ATOM      7  C   UNL     1       1.570   8.073  20.120  0.00  0.00    +0.000 A 
ATOM      8  O   UNL     1       1.118   8.204  21.409  0.00  0.00    +0.000 OA
ATOM      9  C   UNL     1       0.526   9.425  21.510  0.00  0.00    +0.000 A 
ATOM     10  C   UNL     1      -0.066   9.964  22.648  0.00  0.00    +0.000 A 
ATOM     11  F   UNL     1      -0.098   9.299  23.809  0.00  0.00    +0.000 F 
ATOM     12  C   UNL     1      -0.638  11.232  22.546  0.00  0.00    +0.000 A 
ATOM     13  C   UNL     1      -0.609  11.929  21.336  0.00  0.00    +0.000 A 
ATOM     14  C   UNL     1      -0.000  11.373  20.202  0.00  0.00    +0.000 A 
ATOM     15  C   UNL     1       0.579  10.090  20.293  0.00  0.00    +0.000 A 
ENDBRANCH   1   7
BRANCH   3  16
ATOM     16  C   UNL     1       3.425   5.776  17.816  0.00  0.00    +0.000 A 
ATOM     17  C   UNL     1       2.948   4.460  17.840  0.00  0.00    +0.000 A 
ATOM     18  C   UNL     1       3.658   3.421  17.236  0.00  0.00    +0.000 A 
ATOM     19  C   UNL     1       4.880   3.680  16.632  0.00  0.00    +0.000 A 
ATOM     20  C   UNL     1       5.379   4.984  16.637  0.00  0.00    +0.000 A 
ATOM     21  C   UNL     1       4.632   6.048  17.165  0.00  0.00    +0.000 A 
BRANCH  20  22
ATOM     22  S   UNL     1       7.030   5.252  16.031  0.00  0.00    +0.000 S 
ATOM     23  O   UNL     1       7.386   6.623  16.340  0.00  0.00    +0.000 OA
ATOM     24  O   UNL     1       7.849   4.148  16.477  0.00  0.00    +0.000 OA
BRANCH  22  25
ATOM     25  N   UNL     1       6.824   5.133  14.340  0.00  0.00    +0.000 NA
ATOM     26  C   UNL     1       7.974   5.522  13.505  0.00  0.00    +0.000 C 
ATOM     27  C   UNL     1       6.135   3.926  13.843  0.00  0.00    +0.000 C 
ENDBRANCH  22  25
ENDBRANCH  20  22
ENDBRANCH   3  16
TORSDOF 4
ENDMDL
MODEL 9
REMARK VINA RESULT:      -7.9      1.545      2.079
REMARK  Name = 
REMARK  7 active torsions:
REMARK  status: ('A' for Active; 'I' for Inactive)
REMARK    1  A    between atoms: C_1  and  C_2
REMARK    2  A    between atoms: C_3  and  C_4
REMARK    3  A    between atoms: N_6  and  C_7
REMARK    4  A    between atoms: C_11  and  S_12
REMARK    5  A    between atoms: S_12  and  N_15
REMARK    6  A    between atoms: N_15  and  C_16
REMARK    7  A    between atoms: N_15  and  C_17
REMARK                            x       y       z     vdW  Elec       q    Type
REMARK                         _______ _______ _______ _____ _____    ______ ____
ROOT
ATOM      1  C   UNL     1       1.778   8.726  18.452  0.00  0.00    +0.000 C 
ATOM      2  O   UNL     1       1.842   8.959  17.248  0.00  0.00    +0.000 OA
ATOM      3  N   UNL     1       2.172   7.528  19.040  0.00  0.00    +0.000 N 
ATOM      4  H   UNL     1       1.923   7.422  20.019  0.00  0.00    +0.000 HD
ENDROOT
BRANCH   1   7
ATOM      5  C   UNL     1       0.095   8.254  21.241  0.00  0.00    +0.000 C 
ATOM      6  C   UNL     1       0.500   9.519  20.571  0.00  0.00    +0.000 A 
ATOM      7  C   UNL     1       1.215   9.687  19.388  0.00  0.00    +0.000 A 
ATOM      8  O   UNL     1       1.381  11.024  19.128  0.00  0.00    +0.000 OA
ATOM      9  C   UNL     1       0.774  11.712  20.132  0.00  0.00    +0.000 A 
ATOM     10  C   UNL     1       0.702  13.096  20.261  0.00  0.00    +0.000 A 
ATOM     11  F   UNL     1       1.245  13.917  19.353  0.00  0.00    +0.000 F 
ATOM     12  C   UNL     1       0.046  13.613  21.377  0.00  0.00    +0.000 A 
ATOM     13  C   UNL     1      -0.519  12.760  22.327  0.00  0.00    +0.000 A 
ATOM     14  C   UNL     1      -0.445  11.368  22.177  0.00  0.00    +0.000 A 
ATOM     15  C   UNL     1       0.219  10.833  21.053  0.00  0.00    +0.000 A 
ENDBRANCH   1   7
BRANCH   3  16
ATOM     16  C   UNL     1       2.761   6.429  18.377  0.00  0.00    +0.000 A 
ATOM     17  C   UNL     1       2.111   5.196  18.250  0.00  0.00    +0.000 A 
ATOM     18  C   UNL     1       2.726   4.114  17.618  0.00  0.00    +0.000 A 
ATOM     19  C   UNL     1       4.022   4.242  17.137  0.00  0.00    +0.000 A 
ATOM     20  C   UNL     1       4.689   5.458  17.292  0.00  0.00    +0.000 A 
ATOM     21  C   UNL     1       4.048   6.575  17.849  0.00  0.00    +0.000 A 
BRANCH  20  22
ATOM     22  S   UNL     1       6.409   5.534  16.843  0.00  0.00    +0.000 S 
ATOM     23  O   UNL     1       6.964   4.209  17.031  0.00  0.00    +0.000 OA
ATOM     24  O   UNL     1       6.502   6.211  15.569  0.00  0.00    +0.000 OA
BRANCH  22  25
ATOM     25  N   UNL     1       7.058   6.551  18.052  0.00  0.00    +0.000 NA
ATOM     26  C   UNL     1       7.809   5.893  19.135  0.00  0.00    +0.000 C 
ATOM     27  C   UNL     1       7.693   7.802  17.591  0.00  0.00    +0.000 C 
ENDBRANCH  22  25
ENDBRANCH  20  22
ENDBRANCH   3  16
TORSDOF 4
ENDMDL
