MODEL 1
REMARK VINA RESULT:      -7.9      0.000      0.000
REMARK  Name = 
REMARK  3 active torsions:
REMARK  status: ('A' for Active; 'I' for Inactive)
REMARK    1  A    between atoms: C_1  and  N_2
REMARK    2  A    between atoms: C_16  and  C_17
REMARK    3  A    between atoms: N_25  and  C_26
REMARK                            x       y       z     vdW  Elec       q    Type
REMARK                         _______ _______ _______ _____ _____    ______ ____
ROOT
ATOM      1  C   UNL     1       3.154   7.727  17.978  0.00  0.00    +0.000 C 
ATOM      2  N   UNL     1       2.293   6.580  17.685  0.00  0.00    +0.000 NA
ATOM      3  C   UNL     1       2.368   5.554  18.476  0.00  0.00    +0.000 A 
ATOM      4  C   UNL     1       1.629   4.308  18.051  0.00  0.00    +0.000 A 
ATOM      5  N   UNL     1       1.719   3.048  18.644  0.00  0.00    +0.000 N 
ATOM      6  C   UNL     1       2.374   3.350  17.504  0.00  0.00    +0.000 A 
ATOM      7  N   UNL     1       3.557   3.193  16.885  0.00  0.00    +0.000 NA
ATOM      8  C   UNL     1       4.646   3.839  17.156  0.00  0.00    +0.000 A 
ATOM      9  N   UNL     1       5.602   3.861  16.119  0.00  0.00    +0.000 N 
ATOM     10  C   UNL     1       5.290   3.210  14.842  0.00  0.00    +0.000 C 
ATOM     11  C   UNL     1       6.222   3.848  13.864  0.00  0.00    +0.000 A 
ATOM     12  C   UNL     1       6.988   4.804  14.523  0.00  0.00    +0.000 A 
ATOM     13  C   UNL     1       7.878   5.638  13.870  0.00  0.00    +0.000 A 
ATOM     14  C   UNL     1       8.023   5.473  12.496  0.00  0.00    +0.000 A 
ATOM     15  C   UNL     1       7.290   4.483  11.817  0.00  0.00    +0.000 A 
ATOM     16  C   UNL     1       6.371   3.653  12.491  0.00  0.00    +0.000 A 
ATOM     17  C   UNL     1       6.650   4.777  15.948  0.00  0.00    +0.000 C 
ATOM     18  O   UNL     1       7.252   5.451  16.769  0.00  0.00    +0.000 OA
ATOM     19  C   UNL     1       4.991   4.738  18.318  0.00  0.00    +0.000 A 
ATOM     20  C   UNL     1       4.302   4.622  19.464  0.00  0.00    +0.000 A 
ATOM     21  N   UNL     1       3.173   5.471  19.636  0.00  0.00    +0.000 N 
ATOM     22  C   UNL     1       2.403   5.412  20.887  0.00  0.00    +0.000 C 
ATOM     23  H   UNL     1       0.888   2.500  18.432  0.00  0.00    +0.000 HD
ENDROOT
BRANCH  16  24
ATOM     24  C   UNL     1       5.603   2.615  11.717  0.00  0.00    +0.000 C 
ATOM     25  F   UNL     1       4.264   2.858  11.646  0.00  0.00    +0.000 F 
ATOM     26  F   UNL     1       6.030   2.502  10.430  0.00  0.00    +0.000 F 
ATOM     27  F   UNL     1       5.725   1.373  12.263  0.00  0.00    +0.000 F 
ENDBRANCH  16  24
TORSDOF 1
ENDMDL
MODEL 2
REMARK VINA RESULT:      -7.9      5.480      7.639
REMARK  Name = 
REMARK  3 active torsions:
REMARK  status: ('A' for Active; 'I' for Inactive)
REMARK    1  A    between atoms: C_1  and  N_2
REMARK    2  A    between atoms: C_16  and  C_17
REMARK    3  A    between atoms: N_25  and  C_26
REMARK                            x       y       z     vdW  Elec       q    Type
REMARK                         _______ _______ _______ _____ _____    ______ ____
ROOT
ATOM      1  C   UNL     1      -1.512   9.752  17.117  0.00  0.00    +0.000 C 
ATOM      2  N   UNL     1      -1.620   9.786  18.576  0.00  0.00    +0.000 NA
ATOM      3  C   UNL     1      -0.826  10.585  19.221  0.00  0.00    +0.000 A 
ATOM      4  C   UNL     1      -0.808  10.465  20.725  0.00  0.00    +0.000 A 
ATOM      5  N   UNL     1       0.090  11.085  21.595  0.00  0.00    +0.000 N 
ATOM      6  C   UNL     1       0.218   9.789  21.240  0.00  0.00    +0.000 A 
ATOM      7  N   UNL     1       1.132   8.872  20.880  0.00  0.00    +0.000 NA
ATOM      8  C   UNL     1       1.699   8.783  19.720  0.00  0.00    +0.000 A 
ATOM      9  N   UNL     1       2.247   7.519  19.417  0.00  0.00    +0.000 N 
ATOM     10  C   UNL     1       2.102   6.425  20.384  0.00  0.00    +0.000 C 
ATOM     11  C   UNL     1       2.297   5.186  19.572  0.00  0.00    +0.000 A 
ATOM     12  C   UNL     1       2.510   5.541  18.244  0.00  0.00    +0.000 A 
ATOM     13  C   UNL     1       2.626   4.612  17.226  0.00  0.00    +0.000 A 
ATOM     14  C   UNL     1       2.559   3.266  17.572  0.00  0.00    +0.000 A 
ATOM     15  C   UNL     1       2.388   2.885  18.915  0.00  0.00    +0.000 A 
ATOM     16  C   UNL     1       2.249   3.841  19.942  0.00  0.00    +0.000 A 
ATOM     17  C   UNL     1       2.541   7.002  18.146  0.00  0.00    +0.000 C 
ATOM     18  O   UNL     1       2.813   7.575  17.104  0.00  0.00    +0.000 OA
ATOM     19  C   UNL     1       1.708   9.742  18.554  0.00  0.00    +0.000 A 
ATOM     20  C   UNL     1       1.449  11.041  18.772  0.00  0.00    +0.000 A 
ATOM     21  N   UNL     1       0.101  11.473  18.626  0.00  0.00    +0.000 N 
ATOM     22  C   UNL     1      -0.232  12.891  18.817  0.00  0.00    +0.000 C 
ATOM     23  H   UNL     1      -0.314  11.151  22.527  0.00  0.00    +0.000 HD
ENDROOT
BRANCH  16  24
ATOM     24  C   UNL     1       2.057   3.382  21.362  0.00  0.00    +0.000 C 
ATOM     25  F   UNL     1       2.363   4.328  22.294  0.00  0.00    +0.000 F 
ATOM     26  F   UNL     1       0.775   3.005  21.620  0.00  0.00    +0.000 F 
ATOM     27  F   UNL     1       2.832   2.303  21.662  0.00  0.00    +0.000 F 
ENDBRANCH  16  24
TORSDOF 1
ENDMDL
MODEL 3
REMARK VINA RESULT:      -7.6      5.393      8.416
REMARK  Name = 
REMARK  3 active torsions:
REMARK  status: ('A' for Active; 'I' for Inactive)
REMARK    1  A    between atoms: C_1  and  N_2
REMARK    2  A    between atoms: C_16  and  C_17
REMARK    3  A    between atoms: N_25  and  C_26
REMARK                            x       y       z     vdW  Elec       q    Type
REMARK                         _______ _______ _______ _____ _____    ______ ____
ROOT
ATOM      1  C   UNL     1       7.240   7.933  17.419  0.00  0.00    +0.000 C 
ATOM      2  N   UNL     1       7.021   6.958  18.489  0.00  0.00    +0.000 NA
ATOM      3  C   UNL     1       6.499   5.815  18.165  0.00  0.00    +0.000 A 
ATOM      4  C   UNL     1       6.094   4.902  19.297  0.00  0.00    +0.000 A 
ATOM      5  N   UNL     1       5.356   3.722  19.187  0.00  0.00    +0.000 N 
ATOM      6  C   UNL     1       4.796   4.882  19.590  0.00  0.00    +0.000 A 
ATOM      7  N   UNL     1       3.694   5.638  19.439  0.00  0.00    +0.000 NA
ATOM      8  C   UNL     1       3.417   6.377  18.413  0.00  0.00    +0.000 A 
ATOM      9  N   UNL     1       2.486   7.409  18.654  0.00  0.00    +0.000 N 
ATOM     10  C   UNL     1       1.950   7.590  20.007  0.00  0.00    +0.000 C 
ATOM     11  C   UNL     1       1.455   9.000  20.023  0.00  0.00    +0.000 A 
ATOM     12  C   UNL     1       1.710   9.586  18.788  0.00  0.00    +0.000 A 
ATOM     13  C   UNL     1       1.459  10.919  18.520  0.00  0.00    +0.000 A 
ATOM     14  C   UNL     1       0.892  11.683  19.536  0.00  0.00    +0.000 A 
ATOM     15  C   UNL     1       0.586  11.099  20.778  0.00  0.00    +0.000 A 
ATOM     16  C   UNL     1       0.867   9.744  21.046  0.00  0.00    +0.000 A 
ATOM     17  C   UNL     1       2.301   8.579  17.902  0.00  0.00    +0.000 C 
ATOM     18  O   UNL     1       2.529   8.806  16.725  0.00  0.00    +0.000 OA
ATOM     19  C   UNL     1       4.063   6.448  17.051  0.00  0.00    +0.000 A 
ATOM     20  C   UNL     1       4.772   5.399  16.605  0.00  0.00    +0.000 A 
ATOM     21  N   UNL     1       6.174   5.406  16.850  0.00  0.00    +0.000 N 
ATOM     22  C   UNL     1       7.004   4.301  16.352  0.00  0.00    +0.000 C 
ATOM     23  H   UNL     1       5.531   3.124  19.992  0.00  0.00    +0.000 HD
ENDROOT
BRANCH  16  24
ATOM     24  C   UNL     1       0.529   9.169  22.396  0.00  0.00    +0.000 C 
ATOM     25  F   UNL     1      -0.051  10.060  23.246  0.00  0.00    +0.000 F 
ATOM     26  F   UNL     1      -0.330   8.116  22.315  0.00  0.00    +0.000 F 
ATOM     27  F   UNL     1       1.632   8.702  23.045  0.00  0.00    +0.000 F 
ENDBRANCH  16  24
TORSDOF 1
ENDMDL
MODEL 4
REMARK VINA RESULT:      -7.0      9.472     12.269
REMARK  Name = 
REMARK  3 active torsions:
REMARK  status: ('A' for Active; 'I' for Inactive)
REMARK    1  A    between atoms: C_1  and  N_2
REMARK    2  A    between atoms: C_16  and  C_17
REMARK    3  A    between atoms: N_25  and  C_26
REMARK                            x       y       z     vdW  Elec       q    Type
REMARK                         _______ _______ _______ _____ _____    ______ ____
ROOT
ATOM      1  C   UNL     1      -6.248  12.850  20.510  0.00  0.00    +0.000 C 
ATOM      2  N   UNL     1      -6.035  12.255  21.831  0.00  0.00    +0.000 NA
ATOM      3  C   UNL     1      -5.642  13.038  22.788  0.00  0.00    +0.000 A 
ATOM      4  C   UNL     1      -5.236  12.383  24.085  0.00  0.00    +0.000 A 
ATOM      5  N   UNL     1      -4.616  13.005  25.170  0.00  0.00    +0.000 N 
ATOM      6  C   UNL     1      -3.925  12.256  24.285  0.00  0.00    +0.000 A 
ATOM      7  N   UNL     1      -2.776  12.225  23.588  0.00  0.00    +0.000 NA
ATOM      8  C   UNL     1      -2.513  12.920  22.528  0.00  0.00    +0.000 A 
ATOM      9  N   UNL     1      -1.478  12.407  21.718  0.00  0.00    +0.000 N 
ATOM     10  C   UNL     1      -0.827  11.150  22.098  0.00  0.00    +0.000 C 
ATOM     11  C   UNL     1      -0.209  10.654  20.831  0.00  0.00    +0.000 A 
ATOM     12  C   UNL     1      -0.505  11.544  19.803  0.00  0.00    +0.000 A 
ATOM     13  C   UNL     1      -0.157  11.314  18.485  0.00  0.00    +0.000 A 
ATOM     14  C   UNL     1       0.551  10.151  18.200  0.00  0.00    +0.000 A 
ATOM     15  C   UNL     1       0.898   9.259  19.231  0.00  0.00    +0.000 A 
ATOM     16  C   UNL     1       0.519   9.494  20.569  0.00  0.00    +0.000 A 
ATOM     17  C   UNL     1      -1.248  12.677  20.361  0.00  0.00    +0.000 C 
ATOM     18  O   UNL     1      -1.544  13.651  19.688  0.00  0.00    +0.000 OA
ATOM     19  C   UNL     1      -3.253  14.079  21.905  0.00  0.00    +0.000 A 
ATOM     20  C   UNL     1      -4.084  14.811  22.664  0.00  0.00    +0.000 A 
ATOM     21  N   UNL     1      -5.456  14.436  22.677  0.00  0.00    +0.000 N 
ATOM     22  C   UNL     1      -6.417  15.224  23.462  0.00  0.00    +0.000 C 
ATOM     23  H   UNL     1      -4.781  12.471  26.021  0.00  0.00    +0.000 HD
ENDROOT
BRANCH  16  24
ATOM     24  C   UNL     1       0.906   8.504  21.634  0.00  0.00    +0.000 C 
ATOM     25  F   UNL     1       1.808   8.985  22.534  0.00  0.00    +0.000 F 
ATOM     26  F   UNL     1      -0.161   8.080  22.365  0.00  0.00    +0.000 F 
ATOM     27  F   UNL     1       1.471   7.380  21.110  0.00  0.00    +0.000 F 
ENDBRANCH  16  24
TORSDOF 1
ENDMDL
MODEL 5
REMARK VINA RESULT:      -7.0     10.395     13.179
REMARK  Name = 
REMARK  3 active torsions:
REMARK  status: ('A' for Active; 'I' for Inactive)
REMARK    1  A    between atoms: C_1  and  N_2
REMARK    2  A    between atoms: C_16  and  C_17
REMARK    3  A    between atoms: N_25  and  C_26
REMARK                            x       y       z     vdW  Elec       q    Type
REMARK                         _______ _______ _______ _____ _____    ______ ____
ROOT
ATOM      1  C   UNL     1      -7.916  11.462  22.195  0.00  0.00    +0.000 C 
ATOM      2  N   UNL     1      -6.774  11.715  23.074  0.00  0.00    +0.000 NA
ATOM      3  C   UNL     1      -6.444  12.951  23.293  0.00  0.00    +0.000 A 
ATOM      4  C   UNL     1      -5.151  13.193  24.033  0.00  0.00    +0.000 A 
ATOM      5  N   UNL     1      -4.518  14.423  24.214  0.00  0.00    +0.000 N 
ATOM      6  C   UNL     1      -4.108  13.539  23.281  0.00  0.00    +0.000 A 
ATOM      7  N   UNL     1      -3.686  13.458  22.007  0.00  0.00    +0.000 NA
ATOM      8  C   UNL     1      -4.432  13.546  20.954  0.00  0.00    +0.000 A 
ATOM      9  N   UNL     1      -3.883  12.984  19.782  0.00  0.00    +0.000 N 
ATOM     10  C   UNL     1      -2.574  12.327  19.848  0.00  0.00    +0.000 C 
ATOM     11  C   UNL     1      -2.547  11.433  18.651  0.00  0.00    +0.000 A 
ATOM     12  C   UNL     1      -3.754  11.550  17.970  0.00  0.00    +0.000 A 
ATOM     13  C   UNL     1      -4.077  10.774  16.871  0.00  0.00    +0.000 A 
ATOM     14  C   UNL     1      -3.123   9.866  16.422  0.00  0.00    +0.000 A 
ATOM     15  C   UNL     1      -1.879   9.763  17.070  0.00  0.00    +0.000 A 
ATOM     16  C   UNL     1      -1.570  10.545  18.203  0.00  0.00    +0.000 A 
ATOM     17  C   UNL     1      -4.575  12.564  18.636  0.00  0.00    +0.000 C 
ATOM     18  O   UNL     1      -5.645  12.933  18.180  0.00  0.00    +0.000 OA
ATOM     19  C   UNL     1      -5.872  13.975  20.803  0.00  0.00    +0.000 A 
ATOM     20  C   UNL     1      -6.430  14.743  21.752  0.00  0.00    +0.000 A 
ATOM     21  N   UNL     1      -7.134  14.082  22.798  0.00  0.00    +0.000 N 
ATOM     22  C   UNL     1      -7.795  14.876  23.843  0.00  0.00    +0.000 C 
ATOM     23  H   UNL     1      -3.900  14.384  25.023  0.00  0.00    +0.000 HD
ENDROOT
BRANCH  16  24
ATOM     24  C   UNL     1      -0.228  10.390  18.867  0.00  0.00    +0.000 C 
ATOM     25  F   UNL     1      -0.294   9.896  20.135  0.00  0.00    +0.000 F 
ATOM     26  F   UNL     1       0.599   9.553  18.183  0.00  0.00    +0.000 F 
ATOM     27  F   UNL     1       0.436  11.575  18.966  0.00  0.00    +0.000 F 
ENDBRANCH  16  24
TORSDOF 1
ENDMDL
MODEL 6
REMARK VINA RESULT:      -6.9      1.338      1.723
REMARK  Name = 
REMARK  3 active torsions:
REMARK  status: ('A' for Active; 'I' for Inactive)
REMARK    1  A    between atoms: C_1  and  N_2
REMARK    2  A    between atoms: C_16  and  C_17
REMARK    3  A    between atoms: N_25  and  C_26
REMARK                            x       y       z     vdW  Elec       q    Type
REMARK                         _______ _______ _______ _____ _____    ______ ____
ROOT
ATOM      1  C   UNL     1       2.657   6.358  19.745  0.00  0.00    +0.000 C 
ATOM      2  N   UNL     1       1.817   5.384  19.045  0.00  0.00    +0.000 NA
ATOM      3  C   UNL     1       1.823   4.161  19.479  0.00  0.00    +0.000 A 
ATOM      4  C   UNL     1       1.115   3.132  18.633  0.00  0.00    +0.000 A 
ATOM      5  N   UNL     1       1.152   1.747  18.808  0.00  0.00    +0.000 N 
ATOM      6  C   UNL     1       1.897   2.370  17.870  0.00  0.00    +0.000 A 
ATOM      7  N   UNL     1       3.125   2.378  17.324  0.00  0.00    +0.000 NA
ATOM      8  C   UNL     1       4.191   2.876  17.862  0.00  0.00    +0.000 A 
ATOM      9  N   UNL     1       5.228   3.191  16.958  0.00  0.00    +0.000 N 
ATOM     10  C   UNL     1       5.015   2.979  15.523  0.00  0.00    +0.000 C 
ATOM     11  C   UNL     1       6.025   3.862  14.864  0.00  0.00    +0.000 A 
ATOM     12  C   UNL     1       6.741   4.543  15.844  0.00  0.00    +0.000 A 
ATOM     13  C   UNL     1       7.683   5.512  15.552  0.00  0.00    +0.000 A 
ATOM     14  C   UNL     1       7.937   5.778  14.210  0.00  0.00    +0.000 A 
ATOM     15  C   UNL     1       7.256   5.070  13.204  0.00  0.00    +0.000 A 
ATOM     16  C   UNL     1       6.281   4.099  13.514  0.00  0.00    +0.000 A 
ATOM     17  C   UNL     1       6.290   4.084  17.160  0.00  0.00    +0.000 C 
ATOM     18  O   UNL     1       6.828   4.451  18.193  0.00  0.00    +0.000 OA
ATOM     19  C   UNL     1       4.447   3.358  19.269  0.00  0.00    +0.000 A 
ATOM     20  C   UNL     1       3.668   2.912  20.268  0.00  0.00    +0.000 A 
ATOM     21  N   UNL     1       2.533   3.698  20.612  0.00  0.00    +0.000 N 
ATOM     22  C   UNL     1       1.666   3.276  21.721  0.00  0.00    +0.000 C 
ATOM     23  H   UNL     1       0.338   1.317  18.374  0.00  0.00    +0.000 HD
ENDROOT
BRANCH  16  24
ATOM     24  C   UNL     1       5.573   3.377  12.400  0.00  0.00    +0.000 C 
ATOM     25  F   UNL     1       5.787   2.032  12.390  0.00  0.00    +0.000 F 
ATOM     26  F   UNL     1       4.222   3.539  12.449  0.00  0.00    +0.000 F 
ATOM     27  F   UNL     1       5.959   3.822  11.172  0.00  0.00    +0.000 F 
ENDBRANCH  16  24
TORSDOF 1
ENDMDL
MODEL 7
REMARK VINA RESULT:      -6.9      9.874     11.423
REMARK  Name = 
REMARK  3 active torsions:
REMARK  status: ('A' for Active; 'I' for Inactive)
REMARK    1  A    between atoms: C_1  and  N_2
REMARK    2  A    between atoms: C_16  and  C_17
REMARK    3  A    between atoms: N_25  and  C_26
REMARK                            x       y       z     vdW  Elec       q    Type
REMARK                         _______ _______ _______ _____ _____    ______ ____
ROOT
ATOM      1  C   UNL     1       5.246  15.553  24.120  0.00  0.00    +0.000 C 
ATOM      2  N   UNL     1       5.085  14.099  24.167  0.00  0.00    +0.000 NA
ATOM      3  C   UNL     1       5.735  13.449  25.082  0.00  0.00    +0.000 A 
ATOM      4  C   UNL     1       5.720  11.943  24.994  0.00  0.00    +0.000 A 
ATOM      5  N   UNL     1       6.491  11.060  25.752  0.00  0.00    +0.000 N 
ATOM      6  C   UNL     1       6.812  11.380  24.481  0.00  0.00    +0.000 A 
ATOM      7  N   UNL     1       7.859  11.691  23.697  0.00  0.00    +0.000 NA
ATOM      8  C   UNL     1       8.472  12.831  23.668  0.00  0.00    +0.000 A 
ATOM      9  N   UNL     1       9.203  13.087  22.489  0.00  0.00    +0.000 N 
ATOM     10  C   UNL     1       9.183  12.100  21.404  0.00  0.00    +0.000 C 
ATOM     11  C   UNL     1       9.579  12.875  20.190  0.00  0.00    +0.000 A 
ATOM     12  C   UNL     1       9.784  14.204  20.547  0.00  0.00    +0.000 A 
ATOM     13  C   UNL     1      10.065  15.197  19.625  0.00  0.00    +0.000 A 
ATOM     14  C   UNL     1      10.177  14.822  18.290  0.00  0.00    +0.000 A 
ATOM     15  C   UNL     1      10.016  13.476  17.914  0.00  0.00    +0.000 A 
ATOM     16  C   UNL     1       9.709  12.477  18.860  0.00  0.00    +0.000 A 
ATOM     17  C   UNL     1       9.610  14.335  21.995  0.00  0.00    +0.000 C 
ATOM     18  O   UNL     1       9.833  15.382  22.582  0.00  0.00    +0.000 OA
ATOM     19  C   UNL     1       8.384  14.017  24.596  0.00  0.00    +0.000 A 
ATOM     20  C   UNL     1       7.937  13.838  25.849  0.00  0.00    +0.000 A 
ATOM     21  N   UNL     1       6.547  14.035  26.082  0.00  0.00    +0.000 N 
ATOM     22  C   UNL     1       6.010  13.888  27.441  0.00  0.00    +0.000 C 
ATOM     23  H   UNL     1       6.050  10.142  25.777  0.00  0.00    +0.000 HD
ENDROOT
BRANCH  16  24
ATOM     24  C   UNL     1       9.536  11.052  18.405  0.00  0.00    +0.000 C 
ATOM     25  F   UNL     1       9.760  10.130  19.381  0.00  0.00    +0.000 F 
ATOM     26  F   UNL     1       8.283  10.803  17.936  0.00  0.00    +0.000 F 
ATOM     27  F   UNL     1      10.386  10.731  17.390  0.00  0.00    +0.000 F 
ENDBRANCH  16  24
TORSDOF 1
ENDMDL
MODEL 8
REMARK VINA RESULT:      -6.7     10.479     11.772
REMARK  Name = 
REMARK  3 active torsions:
REMARK  status: ('A' for Active; 'I' for Inactive)
REMARK    1  A    between atoms: C_1  and  N_2
REMARK    2  A    between atoms: C_16  and  C_17
REMARK    3  A    between atoms: N_25  and  C_26
REMARK                            x       y       z     vdW  Elec       q    Type
REMARK                         _______ _______ _______ _____ _____    ______ ____
ROOT
ATOM      1  C   UNL     1       4.710  15.157  23.257  0.00  0.00    +0.000 C 
ATOM      2  N   UNL     1       4.970  13.739  23.511  0.00  0.00    +0.000 NA
ATOM      3  C   UNL     1       5.664  13.433  24.564  0.00  0.00    +0.000 A 
ATOM      4  C   UNL     1       6.094  11.994  24.706  0.00  0.00    +0.000 A 
ATOM      5  N   UNL     1       6.988  11.485  25.649  0.00  0.00    +0.000 N 
ATOM      6  C   UNL     1       7.356  11.730  24.374  0.00  0.00    +0.000 A 
ATOM      7  N   UNL     1       8.356  12.245  23.638  0.00  0.00    +0.000 NA
ATOM      8  C   UNL     1       8.613  13.504  23.484  0.00  0.00    +0.000 A 
ATOM      9  N   UNL     1       9.378  13.823  22.342  0.00  0.00    +0.000 N 
ATOM     10  C   UNL     1       9.775  12.752  21.423  0.00  0.00    +0.000 C 
ATOM     11  C   UNL     1      10.075  13.456  20.140  0.00  0.00    +0.000 A 
ATOM     12  C   UNL     1       9.844  14.818  20.305  0.00  0.00    +0.000 A 
ATOM     13  C   UNL     1       9.937  15.729  19.268  0.00  0.00    +0.000 A 
ATOM     14  C   UNL     1      10.314  15.246  18.019  0.00  0.00    +0.000 A 
ATOM     15  C   UNL     1      10.595  13.879  17.841  0.00  0.00    +0.000 A 
ATOM     16  C   UNL     1      10.476  12.957  18.901  0.00  0.00    +0.000 A 
ATOM     17  C   UNL     1       9.465  15.066  21.698  0.00  0.00    +0.000 C 
ATOM     18  O   UNL     1       9.304  16.195  22.134  0.00  0.00    +0.000 OA
ATOM     19  C   UNL     1       8.075  14.712  24.210  0.00  0.00    +0.000 A 
ATOM     20  C   UNL     1       7.549  14.560  25.437  0.00  0.00    +0.000 A 
ATOM     21  N   UNL     1       6.144  14.355  25.524  0.00  0.00    +0.000 N 
ATOM     22  C   UNL     1       5.511  14.219  26.843  0.00  0.00    +0.000 C 
ATOM     23  H   UNL     1       6.831  10.487  25.779  0.00  0.00    +0.000 HD
ENDROOT
BRANCH  16  24
ATOM     24  C   UNL     1      10.777  11.502  18.656  0.00  0.00    +0.000 C 
ATOM     25  F   UNL     1       9.825  10.653  19.133  0.00  0.00    +0.000 F 
ATOM     26  F   UNL     1      10.908  11.212  17.333  0.00  0.00    +0.000 F 
ATOM     27  F   UNL     1      11.945  11.115  19.241  0.00  0.00    +0.000 F 
ENDBRANCH  16  24
TORSDOF 1
ENDMDL
MODEL 9
REMARK VINA RESULT:      -6.6     10.655     13.545
REMARK  Name = 
REMARK  3 active torsions:
REMARK  status: ('A' for Active; 'I' for Inactive)
REMARK    1  A    between atoms: C_1  and  N_2
REMARK    2  A    between atoms: C_16  and  C_17
REMARK    3  A    between atoms: N_25  and  C_26
REMARK                            x       y       z     vdW  Elec       q    Type
REMARK                         _______ _______ _______ _____ _____    ______ ____
ROOT
ATOM      1  C   UNL     1      -6.129  14.427  20.046  0.00  0.00    +0.000 C 
ATOM      2  N   UNL     1      -6.462  13.452  21.086  0.00  0.00    +0.000 NA
ATOM      3  C   UNL     1      -6.530  13.876  22.310  0.00  0.00    +0.000 A 
ATOM      4  C   UNL     1      -6.675  12.831  23.389  0.00  0.00    +0.000 A 
ATOM      5  N   UNL     1      -6.583  13.042  24.766  0.00  0.00    +0.000 N 
ATOM      6  C   UNL     1      -5.562  12.524  24.052  0.00  0.00    +0.000 A 
ATOM      7  N   UNL     1      -4.227  12.588  23.908  0.00  0.00    +0.000 NA
ATOM      8  C   UNL     1      -3.573  13.535  23.316  0.00  0.00    +0.000 A 
ATOM      9  N   UNL     1      -2.278  13.185  22.879  0.00  0.00    +0.000 N 
ATOM     10  C   UNL     1      -1.799  11.814  23.082  0.00  0.00    +0.000 C 
ATOM     11  C   UNL     1      -0.694  11.657  22.089  0.00  0.00    +0.000 A 
ATOM     12  C   UNL     1      -0.568  12.835  21.358  0.00  0.00    +0.000 A 
ATOM     13  C   UNL     1       0.303  12.970  20.293  0.00  0.00    +0.000 A 
ATOM     14  C   UNL     1       1.106  11.880  19.975  0.00  0.00    +0.000 A 
ATOM     15  C   UNL     1       1.026  10.695  20.728  0.00  0.00    +0.000 A 
ATOM     16  C   UNL     1       0.118  10.560  21.799  0.00  0.00    +0.000 A 
ATOM     17  C   UNL     1      -1.515  13.819  21.887  0.00  0.00    +0.000 C 
ATOM     18  O   UNL     1      -1.540  14.972  21.488  0.00  0.00    +0.000 OA
ATOM     19  C   UNL     1      -4.028  14.893  22.838  0.00  0.00    +0.000 A 
ATOM     20  C   UNL     1      -5.124  15.445  23.381  0.00  0.00    +0.000 A 
ATOM     21  N   UNL     1      -6.364  15.220  22.721  0.00  0.00    +0.000 N 
ATOM     22  C   UNL     1      -7.591  15.831  23.251  0.00  0.00    +0.000 C 
ATOM     23  H   UNL     1      -7.067  12.300  25.267  0.00  0.00    +0.000 HD
ENDROOT
BRANCH  16  24
ATOM     24  C   UNL     1       0.063   9.267  22.568  0.00  0.00    +0.000 C 
ATOM     25  F   UNL     1      -0.001   9.430  23.918  0.00  0.00    +0.000 F 
ATOM     26  F   UNL     1      -1.014   8.506  22.231  0.00  0.00    +0.000 F 
ATOM     27  F   UNL     1       1.158   8.489  22.341  0.00  0.00    +0.000 F 
ENDBRANCH  16  24
TORSDOF 1
ENDMDL
