MODEL 1
REMARK VINA RESULT:      -8.6      0.000      0.000
REMARK  Name = 
REMARK  5 active torsions:
REMARK  status: ('A' for Active; 'I' for Inactive)
REMARK    1  A    between atoms: C_1  and  C_2
REMARK    2  A    between atoms: C_5  and  C_6
REMARK    3  A    between atoms: C_8  and  C_9
REMARK    4  A    between atoms: N_11  and  C_12
REMARK    5  A    between atoms: C_26  and  C_27
REMARK                            x       y       z     vdW  Elec       q    Type
REMARK                         _______ _______ _______ _____ _____    ______ ____
ROOT
ATOM      1  C   UNL     1       1.502   9.038  18.177  0.00  0.00    +0.000 C 
ATOM      2  O   UNL     1       1.083   8.817  17.042  0.00  0.00    +0.000 OA
ATOM      3  N   UNL     1       2.426   8.255  18.847  0.00  0.00    +0.000 N 
ATOM      4  H   UNL     1       2.546   8.438  19.841  0.00  0.00    +0.000 HD
ENDROOT
BRANCH   3   5
ATOM      5  C   UNL     1       3.086   7.131  18.286  0.00  0.00    +0.000 A 
ATOM      6  C   UNL     1       4.174   7.259  17.417  0.00  0.00    +0.000 A 
ATOM      7  C   UNL     1       4.765   6.134  16.840  0.00  0.00    +0.000 A 
ATOM      8  C   UNL     1       4.277   4.854  17.104  0.00  0.00    +0.000 A 
ATOM      9  C   UNL     1       3.232   4.711  18.025  0.00  0.00    +0.000 A 
ATOM     10  C   UNL     1       2.657   5.842  18.614  0.00  0.00    +0.000 A 
ATOM     11  F   UNL     1       1.662   5.676  19.499  0.00  0.00    +0.000 F 
ATOM     12  C   UNL     1       4.959   3.660  16.491  0.00  0.00    +0.000 C 
ATOM     13  C   UNL     1       5.713   4.016  15.216  0.00  0.00    +0.000 C 
ATOM     14  C   UNL     1       6.508   5.291  15.350  0.00  0.00    +0.000 C 
ATOM     15  O   UNL     1       7.583   5.467  14.783  0.00  0.00    +0.000 OA
ATOM     16  N   UNL     1       5.897   6.302  16.039  0.00  0.00    +0.000 N 
ATOM     17  H   UNL     1       6.353   7.205  15.993  0.00  0.00    +0.000 HD
ENDBRANCH   3   5
BRANCH   1  20
ATOM     18  C   UNL     1      -0.254  11.378  20.338  0.00  0.00    +0.000 A 
ATOM     19  N   UNL     1      -0.108  10.194  19.759  0.00  0.00    +0.000 NA
ATOM     20  C   UNL     1       1.010  10.201  18.922  0.00  0.00    +0.000 A 
ATOM     21  C   UNL     1       1.666  11.416  18.848  0.00  0.00    +0.000 A 
ATOM     22  S   UNL     1       0.960  12.539  19.905  0.00  0.00    +0.000 S 
BRANCH  18  27
ATOM     23  C   UNL     1      -4.411  13.130  24.024  0.00  0.00    +0.000 C 
ATOM     24  C   UNL     1      -3.348  12.664  23.076  0.00  0.00    +0.000 A 
ATOM     25  C   UNL     1      -3.256  13.190  21.793  0.00  0.00    +0.000 A 
ATOM     26  C   UNL     1      -2.261  12.741  20.923  0.00  0.00    +0.000 A 
ATOM     27  C   UNL     1      -1.305  11.772  21.306  0.00  0.00    +0.000 A 
ATOM     28  C   UNL     1      -1.396  11.241  22.611  0.00  0.00    +0.000 A 
ATOM     29  C   UNL     1      -0.462  10.201  23.172  0.00  0.00    +0.000 C 
ATOM     30  C   UNL     1      -2.425  11.688  23.470  0.00  0.00    +0.000 A 
ENDBRANCH  18  27
ENDBRANCH   1  20
TORSDOF 3
ENDMDL
MODEL 2
REMARK VINA RESULT:      -8.3      2.538      3.221
REMARK  Name = 
REMARK  5 active torsions:
REMARK  status: ('A' for Active; 'I' for Inactive)
REMARK    1  A    between atoms: C_1  and  C_2
REMARK    2  A    between atoms: C_5  and  C_6
REMARK    3  A    between atoms: C_8  and  C_9
REMARK    4  A    between atoms: N_11  and  C_12
REMARK    5  A    between atoms: C_26  and  C_27
REMARK                            x       y       z     vdW  Elec       q    Type
REMARK                         _______ _______ _______ _____ _____    ______ ____
ROOT
ATOM      1  C   UNL     1       1.478   9.384  18.295  0.00  0.00    +0.000 C 
ATOM      2  O   UNL     1       2.205   9.724  17.363  0.00  0.00    +0.000 OA
ATOM      3  N   UNL     1       1.598   8.201  19.002  0.00  0.00    +0.000 N 
ATOM      4  H   UNL     1       0.826   7.956  19.619  0.00  0.00    +0.000 HD
ENDROOT
BRANCH   3   5
ATOM      5  C   UNL     1       2.631   7.247  18.807  0.00  0.00    +0.000 A 
ATOM      6  C   UNL     1       3.569   7.361  17.776  0.00  0.00    +0.000 A 
ATOM      7  C   UNL     1       4.539   6.377  17.579  0.00  0.00    +0.000 A 
ATOM      8  C   UNL     1       4.588   5.247  18.395  0.00  0.00    +0.000 A 
ATOM      9  C   UNL     1       3.697   5.157  19.472  0.00  0.00    +0.000 A 
ATOM     10  C   UNL     1       2.740   6.158  19.675  0.00  0.00    +0.000 A 
ATOM     11  F   UNL     1       1.903   6.051  20.719  0.00  0.00    +0.000 F 
ATOM     12  C   UNL     1       5.668   4.221  18.176  0.00  0.00    +0.000 C 
ATOM     13  C   UNL     1       6.202   4.240  16.749  0.00  0.00    +0.000 C 
ATOM     14  C   UNL     1       6.443   5.639  16.240  0.00  0.00    +0.000 C 
ATOM     15  O   UNL     1       7.356   5.916  15.466  0.00  0.00    +0.000 OA
ATOM     16  N   UNL     1       5.502   6.568  16.586  0.00  0.00    +0.000 N 
ATOM     17  H   UNL     1       5.573   7.463  16.117  0.00  0.00    +0.000 HD
ENDBRANCH   3   5
BRANCH   1  20
ATOM     18  C   UNL     1      -1.647  11.191  18.737  0.00  0.00    +0.000 A 
ATOM     19  N   UNL     1      -0.847  10.369  18.070  0.00  0.00    +0.000 NA
ATOM     20  C   UNL     1       0.383  10.260  18.722  0.00  0.00    +0.000 A 
ATOM     21  C   UNL     1       0.506  11.045  19.854  0.00  0.00    +0.000 A 
ATOM     22  S   UNL     1      -0.949  11.851  20.181  0.00  0.00    +0.000 S 
BRANCH  18  27
ATOM     23  C   UNL     1      -7.176  12.616  17.580  0.00  0.00    +0.000 C 
ATOM     24  C   UNL     1      -5.749  12.261  17.867  0.00  0.00    +0.000 A 
ATOM     25  C   UNL     1      -5.214  12.428  19.139  0.00  0.00    +0.000 A 
ATOM     26  C   UNL     1      -3.881  12.094  19.387  0.00  0.00    +0.000 A 
ATOM     27  C   UNL     1      -3.039  11.558  18.385  0.00  0.00    +0.000 A 
ATOM     28  C   UNL     1      -3.584  11.385  17.094  0.00  0.00    +0.000 A 
ATOM     29  C   UNL     1      -2.823  10.833  15.917  0.00  0.00    +0.000 C 
ATOM     30  C   UNL     1      -4.928  11.752  16.854  0.00  0.00    +0.000 A 
ENDBRANCH  18  27
ENDBRANCH   1  20
TORSDOF 3
ENDMDL
MODEL 3
REMARK VINA RESULT:      -8.3      7.842     11.306
REMARK  Name = 
REMARK  5 active torsions:
REMARK  status: ('A' for Active; 'I' for Inactive)
REMARK    1  A    between atoms: C_1  and  C_2
REMARK    2  A    between atoms: C_5  and  C_6
REMARK    3  A    between atoms: C_8  and  C_9
REMARK    4  A    between atoms: N_11  and  C_12
REMARK    5  A    between atoms: C_26  and  C_27
REMARK                            x       y       z     vdW  Elec       q    Type
REMARK                         _______ _______ _______ _____ _____    ______ ____
ROOT
ATOM      1  C   UNL     1       8.157   9.167  18.176  0.00  0.00    +0.000 C 
ATOM      2  O   UNL     1       7.620  10.088  17.562  0.00  0.00    +0.000 OA
ATOM      3  N   UNL     1       9.085   9.326  19.190  0.00  0.00    +0.000 N 
ATOM      4  H   UNL     1       9.589   8.491  19.484  0.00  0.00    +0.000 HD
ENDROOT
BRANCH   3   5
ATOM      5  C   UNL     1       9.489  10.578  19.723  0.00  0.00    +0.000 A 
ATOM      6  C   UNL     1       8.984  11.075  20.928  0.00  0.00    +0.000 A 
ATOM      7  C   UNL     1       9.361  12.334  21.397  0.00  0.00    +0.000 A 
ATOM      8  C   UNL     1      10.239  13.136  20.668  0.00  0.00    +0.000 A 
ATOM      9  C   UNL     1      10.803  12.619  19.494  0.00  0.00    +0.000 A 
ATOM     10  C   UNL     1      10.435  11.347  19.041  0.00  0.00    +0.000 A 
ATOM     11  F   UNL     1      10.995  10.873  17.918  0.00  0.00    +0.000 F 
ATOM     12  C   UNL     1      10.651  14.475  21.218  0.00  0.00    +0.000 C 
ATOM     13  C   UNL     1       9.625  15.040  22.193  0.00  0.00    +0.000 C 
ATOM     14  C   UNL     1       9.118  14.002  23.164  0.00  0.00    +0.000 C 
ATOM     15  O   UNL     1       8.810  14.271  24.323  0.00  0.00    +0.000 OA
ATOM     16  N   UNL     1       8.892  12.760  22.642  0.00  0.00    +0.000 N 
ATOM     17  H   UNL     1       8.403  12.110  23.246  0.00  0.00    +0.000 HD
ENDBRANCH   3   5
BRANCH   1  20
ATOM     18  C   UNL     1       7.203   6.035  16.592  0.00  0.00    +0.000 A 
ATOM     19  N   UNL     1       7.338   7.354  16.604  0.00  0.00    +0.000 NA
ATOM     20  C   UNL     1       7.827   7.778  17.841  0.00  0.00    +0.000 A 
ATOM     21  C   UNL     1       8.010   6.766  18.765  0.00  0.00    +0.000 A 
ATOM     22  S   UNL     1       7.674   5.257  18.069  0.00  0.00    +0.000 S 
BRANCH  18  27
ATOM     23  C   UNL     1       5.477   2.872  12.014  0.00  0.00    +0.000 C 
ATOM     24  C   UNL     1       5.922   3.672  13.200  0.00  0.00    +0.000 A 
ATOM     25  C   UNL     1       7.122   4.374  13.179  0.00  0.00    +0.000 A 
ATOM     26  C   UNL     1       7.521   5.111  14.296  0.00  0.00    +0.000 A 
ATOM     27  C   UNL     1       6.729   5.198  15.465  0.00  0.00    +0.000 A 
ATOM     28  C   UNL     1       5.508   4.489  15.484  0.00  0.00    +0.000 A 
ATOM     29  C   UNL     1       4.554   4.473  16.649  0.00  0.00    +0.000 C 
ATOM     30  C   UNL     1       5.132   3.727  14.355  0.00  0.00    +0.000 A 
ENDBRANCH  18  27
ENDBRANCH   1  20
TORSDOF 3
ENDMDL
MODEL 4
REMARK VINA RESULT:      -8.2      1.583      2.081
REMARK  Name = 
REMARK  5 active torsions:
REMARK  status: ('A' for Active; 'I' for Inactive)
REMARK    1  A    between atoms: C_1  and  C_2
REMARK    2  A    between atoms: C_5  and  C_6
REMARK    3  A    between atoms: C_8  and  C_9
REMARK    4  A    between atoms: N_11  and  C_12
REMARK    5  A    between atoms: C_26  and  C_27
REMARK                            x       y       z     vdW  Elec       q    Type
REMARK                         _______ _______ _______ _____ _____    ______ ____
ROOT
ATOM      1  C   UNL     1       2.120   8.000  18.750  0.00  0.00    +0.000 C 
ATOM      2  O   UNL     1       2.336   8.564  17.678  0.00  0.00    +0.000 OA
ATOM      3  N   UNL     1       2.484   6.699  19.049  0.00  0.00    +0.000 N 
ATOM      4  H   UNL     1       2.084   6.295  19.893  0.00  0.00    +0.000 HD
ENDROOT
BRANCH   3   5
ATOM      5  C   UNL     1       3.234   5.855  18.190  0.00  0.00    +0.000 A 
ATOM      6  C   UNL     1       4.337   6.317  17.465  0.00  0.00    +0.000 A 
ATOM      7  C   UNL     1       5.020   5.474  16.587  0.00  0.00    +0.000 A 
ATOM      8  C   UNL     1       4.610   4.153  16.398  0.00  0.00    +0.000 A 
ATOM      9  C   UNL     1       3.549   3.663  17.170  0.00  0.00    +0.000 A 
ATOM     10  C   UNL     1       2.882   4.509  18.062  0.00  0.00    +0.000 A 
ATOM     11  F   UNL     1       1.874   4.011  18.795  0.00  0.00    +0.000 F 
ATOM     12  C   UNL     1       5.389   3.262  15.468  0.00  0.00    +0.000 C 
ATOM     13  C   UNL     1       6.156   4.052  14.416  0.00  0.00    +0.000 C 
ATOM     14  C   UNL     1       6.859   5.255  14.995  0.00  0.00    +0.000 C 
ATOM     15  O   UNL     1       7.937   5.663  14.569  0.00  0.00    +0.000 OA
ATOM     16  N   UNL     1       6.162   5.952  15.941  0.00  0.00    +0.000 N 
ATOM     17  H   UNL     1       6.558   6.845  16.212  0.00  0.00    +0.000 HD
ENDBRANCH   3   5
BRANCH   1  20
ATOM     18  C   UNL     1       0.123  10.257  20.787  0.00  0.00    +0.000 A 
ATOM     19  N   UNL     1       0.690   9.894  19.644  0.00  0.00    +0.000 NA
ATOM     20  C   UNL     1       1.420   8.716  19.821  0.00  0.00    +0.000 A 
ATOM     21  C   UNL     1       1.429   8.234  21.117  0.00  0.00    +0.000 A 
ATOM     22  S   UNL     1       0.439   9.184  22.113  0.00  0.00    +0.000 S 
BRANCH  18  27
ATOM     23  C   UNL     1      -3.257  14.866  21.915  0.00  0.00    +0.000 C 
ATOM     24  C   UNL     1      -2.381  13.689  21.613  0.00  0.00    +0.000 A 
ATOM     25  C   UNL     1      -1.446  13.238  22.538  0.00  0.00    +0.000 A 
ATOM     26  C   UNL     1      -0.636  12.142  22.236  0.00  0.00    +0.000 A 
ATOM     27  C   UNL     1      -0.744  11.437  21.015  0.00  0.00    +0.000 A 
ATOM     28  C   UNL     1      -1.696  11.892  20.077  0.00  0.00    +0.000 A 
ATOM     29  C   UNL     1      -1.934  11.259  18.732  0.00  0.00    +0.000 C 
ATOM     30  C   UNL     1      -2.491  13.019  20.388  0.00  0.00    +0.000 A 
ENDBRANCH  18  27
ENDBRANCH   1  20
TORSDOF 3
ENDMDL
MODEL 5
REMARK VINA RESULT:      -8.2      1.731      2.171
REMARK  Name = 
REMARK  5 active torsions:
REMARK  status: ('A' for Active; 'I' for Inactive)
REMARK    1  A    between atoms: C_1  and  C_2
REMARK    2  A    between atoms: C_5  and  C_6
REMARK    3  A    between atoms: C_8  and  C_9
REMARK    4  A    between atoms: N_11  and  C_12
REMARK    5  A    between atoms: C_26  and  C_27
REMARK                            x       y       z     vdW  Elec       q    Type
REMARK                         _______ _______ _______ _____ _____    ______ ____
ROOT
ATOM      1  C   UNL     1       2.126   8.280  18.429  0.00  0.00    +0.000 C 
ATOM      2  O   UNL     1       2.236   8.702  17.279  0.00  0.00    +0.000 OA
ATOM      3  N   UNL     1       2.588   7.053  18.872  0.00  0.00    +0.000 N 
ATOM      4  H   UNL     1       2.271   6.748  19.789  0.00  0.00    +0.000 HD
ENDROOT
BRANCH   3   5
ATOM      5  C   UNL     1       3.331   6.140  18.079  0.00  0.00    +0.000 A 
ATOM      6  C   UNL     1       4.427   6.539  17.307  0.00  0.00    +0.000 A 
ATOM      7  C   UNL     1       5.102   5.626  16.496  0.00  0.00    +0.000 A 
ATOM      8  C   UNL     1       4.693   4.294  16.424  0.00  0.00    +0.000 A 
ATOM      9  C   UNL     1       3.640   3.870  17.245  0.00  0.00    +0.000 A 
ATOM     10  C   UNL     1       2.981   4.787  18.069  0.00  0.00    +0.000 A 
ATOM     11  F   UNL     1       1.980   4.353  18.852  0.00  0.00    +0.000 F 
ATOM     12  C   UNL     1       5.464   3.327  15.566  0.00  0.00    +0.000 C 
ATOM     13  C   UNL     1       6.219   4.027  14.442  0.00  0.00    +0.000 C 
ATOM     14  C   UNL     1       6.926   5.275  14.910  0.00  0.00    +0.000 C 
ATOM     15  O   UNL     1       7.999   5.646  14.442  0.00  0.00    +0.000 OA
ATOM     16  N   UNL     1       6.237   6.049  15.801  0.00  0.00    +0.000 N 
ATOM     17  H   UNL     1       6.634   6.961  15.992  0.00  0.00    +0.000 HD
ENDBRANCH   3   5
BRANCH   1  20
ATOM     18  C   UNL     1       0.341  10.828  20.314  0.00  0.00    +0.000 A 
ATOM     19  N   UNL     1       0.946  10.380  19.222  0.00  0.00    +0.000 NA
ATOM     20  C   UNL     1       1.455   9.098  19.444  0.00  0.00    +0.000 A 
ATOM     21  C   UNL     1       1.264   8.618  20.726  0.00  0.00    +0.000 A 
ATOM     22  S   UNL     1       0.352   9.714  21.644  0.00  0.00    +0.000 S 
BRANCH  18  27
ATOM     23  C   UNL     1      -2.526  15.870  20.864  0.00  0.00    +0.000 C 
ATOM     24  C   UNL     1      -1.783  14.575  20.738  0.00  0.00    +0.000 A 
ATOM     25  C   UNL     1      -2.463  13.377  20.552  0.00  0.00    +0.000 A 
ATOM     26  C   UNL     1      -1.754  12.180  20.439  0.00  0.00    +0.000 A 
ATOM     27  C   UNL     1      -0.340  12.133  20.482  0.00  0.00    +0.000 A 
ATOM     28  C   UNL     1       0.350  13.350  20.667  0.00  0.00    +0.000 A 
ATOM     29  C   UNL     1       1.849  13.474  20.740  0.00  0.00    +0.000 C 
ATOM     30  C   UNL     1      -0.385  14.550  20.805  0.00  0.00    +0.000 A 
ENDBRANCH  18  27
ENDBRANCH   1  20
TORSDOF 3
ENDMDL
MODEL 6
REMARK VINA RESULT:      -8.2      2.837      3.906
REMARK  Name = 
REMARK  5 active torsions:
REMARK  status: ('A' for Active; 'I' for Inactive)
REMARK    1  A    between atoms: C_1  and  C_2
REMARK    2  A    between atoms: C_5  and  C_6
REMARK    3  A    between atoms: C_8  and  C_9
REMARK    4  A    between atoms: N_11  and  C_12
REMARK    5  A    between atoms: C_26  and  C_27
REMARK                            x       y       z     vdW  Elec       q    Type
REMARK                         _______ _______ _______ _____ _____    ______ ____
ROOT
ATOM      1  C   UNL     1       0.848  10.315  21.279  0.00  0.00    +0.000 C 
ATOM      2  O   UNL     1       1.665   9.942  22.120  0.00  0.00    +0.000 OA
ATOM      3  N   UNL     1       0.733   9.797  20.001  0.00  0.00    +0.000 N 
ATOM      4  H   UNL     1       0.149  10.316  19.348  0.00  0.00    +0.000 HD
ENDROOT
BRANCH   3   5
ATOM      5  C   UNL     1       1.487   8.702  19.506  0.00  0.00    +0.000 A 
ATOM      6  C   UNL     1       1.632   7.509  20.220  0.00  0.00    +0.000 A 
ATOM      7  C   UNL     1       2.426   6.472  19.728  0.00  0.00    +0.000 A 
ATOM      8  C   UNL     1       3.107   6.604  18.518  0.00  0.00    +0.000 A 
ATOM      9  C   UNL     1       2.914   7.768  17.763  0.00  0.00    +0.000 A 
ATOM     10  C   UNL     1       2.101   8.795  18.253  0.00  0.00    +0.000 A 
ATOM     11  F   UNL     1       1.927   9.897  17.506  0.00  0.00    +0.000 F 
ATOM     12  C   UNL     1       3.928   5.454  18.000  0.00  0.00    +0.000 C 
ATOM     13  C   UNL     1       4.388   4.523  19.116  0.00  0.00    +0.000 C 
ATOM     14  C   UNL     1       3.290   4.219  20.104  0.00  0.00    +0.000 C 
ATOM     15  O   UNL     1       3.190   3.135  20.673  0.00  0.00    +0.000 OA
ATOM     16  N   UNL     1       2.482   5.270  20.436  0.00  0.00    +0.000 N 
ATOM     17  H   UNL     1       1.852   5.113  21.214  0.00  0.00    +0.000 HD
ENDBRANCH   3   5
BRANCH   1  20
ATOM     18  C   UNL     1      -1.995  12.361  22.259  0.00  0.00    +0.000 A 
ATOM     19  N   UNL     1      -1.429  11.200  21.961  0.00  0.00    +0.000 NA
ATOM     20  C   UNL     1      -0.092  11.392  21.605  0.00  0.00    +0.000 A 
ATOM     21  C   UNL     1       0.317  12.713  21.596  0.00  0.00    +0.000 A 
ATOM     22  S   UNL     1      -0.931  13.727  22.134  0.00  0.00    +0.000 S 
BRANCH  18  27
ATOM     23  C   UNL     1      -7.441  13.115  24.185  0.00  0.00    +0.000 C 
ATOM     24  C   UNL     1      -6.040  12.937  23.685  0.00  0.00    +0.000 A 
ATOM     25  C   UNL     1      -4.996  12.675  24.564  0.00  0.00    +0.000 A 
ATOM     26  C   UNL     1      -3.696  12.515  24.079  0.00  0.00    +0.000 A 
ATOM     27  C   UNL     1      -3.392  12.584  22.699  0.00  0.00    +0.000 A 
ATOM     28  C   UNL     1      -4.454  12.846  21.806  0.00  0.00    +0.000 A 
ATOM     29  C   UNL     1      -4.300  12.955  20.312  0.00  0.00    +0.000 C 
ATOM     30  C   UNL     1      -5.759  13.030  22.316  0.00  0.00    +0.000 A 
ENDBRANCH  18  27
ENDBRANCH   1  20
TORSDOF 3
ENDMDL
MODEL 7
REMARK VINA RESULT:      -8.2      0.958      1.596
REMARK  Name = 
REMARK  5 active torsions:
REMARK  status: ('A' for Active; 'I' for Inactive)
REMARK    1  A    between atoms: C_1  and  C_2
REMARK    2  A    between atoms: C_5  and  C_6
REMARK    3  A    between atoms: C_8  and  C_9
REMARK    4  A    between atoms: N_11  and  C_12
REMARK    5  A    between atoms: C_26  and  C_27
REMARK                            x       y       z     vdW  Elec       q    Type
REMARK                         _______ _______ _______ _____ _____    ______ ____
ROOT
ATOM      1  C   UNL     1       1.281   9.471  18.674  0.00  0.00    +0.000 C 
ATOM      2  O   UNL     1       1.256   9.464  17.444  0.00  0.00    +0.000 OA
ATOM      3  N   UNL     1       1.831   8.475  19.462  0.00  0.00    +0.000 N 
ATOM      4  H   UNL     1       1.621   8.511  20.457  0.00  0.00    +0.000 HD
ENDROOT
BRANCH   3   5
ATOM      5  C   UNL     1       2.522   7.342  18.960  0.00  0.00    +0.000 A 
ATOM      6  C   UNL     1       3.439   7.430  17.908  0.00  0.00    +0.000 A 
ATOM      7  C   UNL     1       4.060   6.287  17.402  0.00  0.00    +0.000 A 
ATOM      8  C   UNL     1       3.771   5.025  17.924  0.00  0.00    +0.000 A 
ATOM      9  C   UNL     1       2.906   4.935  19.021  0.00  0.00    +0.000 A 
ATOM     10  C   UNL     1       2.302   6.087  19.535  0.00  0.00    +0.000 A 
ATOM     11  F   UNL     1       1.483   5.973  20.592  0.00  0.00    +0.000 F 
ATOM     12  C   UNL     1       4.484   3.817  17.378  0.00  0.00    +0.000 C 
ATOM     13  C   UNL     1       4.983   4.034  15.954  0.00  0.00    +0.000 C 
ATOM     14  C   UNL     1       5.635   5.382  15.770  0.00  0.00    +0.000 C 
ATOM     15  O   UNL     1       6.581   5.563  15.007  0.00  0.00    +0.000 OA
ATOM     16  N   UNL     1       5.026   6.428  16.403  0.00  0.00    +0.000 N 
ATOM     17  H   UNL     1       5.361   7.351  16.153  0.00  0.00    +0.000 HD
ENDBRANCH   3   5
BRANCH   1  20
ATOM     18  C   UNL     1      -0.771  11.700  20.687  0.00  0.00    +0.000 A 
ATOM     19  N   UNL     1      -0.545  10.552  20.062  0.00  0.00    +0.000 NA
ATOM     20  C   UNL     1       0.688  10.594  19.408  0.00  0.00    +0.000 A 
ATOM     21  C   UNL     1       1.355  11.800  19.513  0.00  0.00    +0.000 A 
ATOM     22  S   UNL     1       0.503  12.866  20.519  0.00  0.00    +0.000 S 
BRANCH  18  27
ATOM     23  C   UNL     1      -5.339  12.945  24.082  0.00  0.00    +0.000 C 
ATOM     24  C   UNL     1      -4.163  12.640  23.204  0.00  0.00    +0.000 A 
ATOM     25  C   UNL     1      -2.949  12.241  23.749  0.00  0.00    +0.000 A 
ATOM     26  C   UNL     1      -1.864  11.965  22.915  0.00  0.00    +0.000 A 
ATOM     27  C   UNL     1      -1.955  12.050  21.506  0.00  0.00    +0.000 A 
ATOM     28  C   UNL     1      -3.190  12.451  20.952  0.00  0.00    +0.000 A 
ATOM     29  C   UNL     1      -3.452  12.596  19.475  0.00  0.00    +0.000 C 
ATOM     30  C   UNL     1      -4.270  12.752  21.812  0.00  0.00    +0.000 A 
ENDBRANCH  18  27
ENDBRANCH   1  20
TORSDOF 3
ENDMDL
MODEL 8
REMARK VINA RESULT:      -8.2      1.886      2.330
REMARK  Name = 
REMARK  5 active torsions:
REMARK  status: ('A' for Active; 'I' for Inactive)
REMARK    1  A    between atoms: C_1  and  C_2
REMARK    2  A    between atoms: C_5  and  C_6
REMARK    3  A    between atoms: C_8  and  C_9
REMARK    4  A    between atoms: N_11  and  C_12
REMARK    5  A    between atoms: C_26  and  C_27
REMARK                            x       y       z     vdW  Elec       q    Type
REMARK                         _______ _______ _______ _____ _____    ______ ____
ROOT
ATOM      1  C   UNL     1       2.001   8.488  18.521  0.00  0.00    +0.000 C 
ATOM      2  O   UNL     1       2.094   8.876  17.357  0.00  0.00    +0.000 OA
ATOM      3  N   UNL     1       2.459   7.269  18.989  0.00  0.00    +0.000 N 
ATOM      4  H   UNL     1       2.156   6.993  19.920  0.00  0.00    +0.000 HD
ENDROOT
BRANCH   3   5
ATOM      5  C   UNL     1       3.179   6.327  18.209  0.00  0.00    +0.000 A 
ATOM      6  C   UNL     1       4.305   6.682  17.459  0.00  0.00    +0.000 A 
ATOM      7  C   UNL     1       4.957   5.741  16.660  0.00  0.00    +0.000 A 
ATOM      8  C   UNL     1       4.495   4.427  16.578  0.00  0.00    +0.000 A 
ATOM      9  C   UNL     1       3.410   4.047  17.378  0.00  0.00    +0.000 A 
ATOM     10  C   UNL     1       2.773   4.990  18.191  0.00  0.00    +0.000 A 
ATOM     11  F   UNL     1       1.741   4.597  18.953  0.00  0.00    +0.000 F 
ATOM     12  C   UNL     1       5.242   3.431  15.732  0.00  0.00    +0.000 C 
ATOM     13  C   UNL     1       6.047   4.100  14.625  0.00  0.00    +0.000 C 
ATOM     14  C   UNL     1       6.795   5.317  15.108  0.00  0.00    +0.000 C 
ATOM     15  O   UNL     1       7.891   5.644  14.661  0.00  0.00    +0.000 OA
ATOM     16  N   UNL     1       6.122   6.118  15.987  0.00  0.00    +0.000 N 
ATOM     17  H   UNL     1       6.553   7.013  16.187  0.00  0.00    +0.000 HD
ENDBRANCH   3   5
BRANCH   1  20
ATOM     18  C   UNL     1       0.412  11.165  20.402  0.00  0.00    +0.000 A 
ATOM     19  N   UNL     1       1.049  10.691  19.340  0.00  0.00    +0.000 NA
ATOM     20  C   UNL     1       1.356   9.341  19.524  0.00  0.00    +0.000 A 
ATOM     21  C   UNL     1       0.983   8.829  20.753  0.00  0.00    +0.000 A 
ATOM     22  S   UNL     1       0.148   9.996  21.656  0.00  0.00    +0.000 S 
BRANCH  18  27
ATOM     23  C   UNL     1      -1.443  16.609  21.332  0.00  0.00    +0.000 C 
ATOM     24  C   UNL     1      -0.966  15.211  21.077  0.00  0.00    +0.000 A 
ATOM     25  C   UNL     1       0.291  14.797  21.501  0.00  0.00    +0.000 A 
ATOM     26  C   UNL     1       0.718  13.492  21.251  0.00  0.00    +0.000 A 
ATOM     27  C   UNL     1      -0.098  12.543  20.593  0.00  0.00    +0.000 A 
ATOM     28  C   UNL     1      -1.377  12.963  20.166  0.00  0.00    +0.000 A 
ATOM     29  C   UNL     1      -2.365  12.081  19.449  0.00  0.00    +0.000 C 
ATOM     30  C   UNL     1      -1.784  14.295  20.404  0.00  0.00    +0.000 A 
ENDBRANCH  18  27
ENDBRANCH   1  20
TORSDOF 3
ENDMDL
MODEL 9
REMARK VINA RESULT:      -8.1      0.984      1.125
REMARK  Name = 
REMARK  5 active torsions:
REMARK  status: ('A' for Active; 'I' for Inactive)
REMARK    1  A    between atoms: C_1  and  C_2
REMARK    2  A    between atoms: C_5  and  C_6
REMARK    3  A    between atoms: C_8  and  C_9
REMARK    4  A    between atoms: N_11  and  C_12
REMARK    5  A    between atoms: C_26  and  C_27
REMARK                            x       y       z     vdW  Elec       q    Type
REMARK                         _______ _______ _______ _____ _____    ______ ____
ROOT
ATOM      1  C   UNL     1       0.891   9.451  18.509  0.00  0.00    +0.000 C 
ATOM      2  O   UNL     1       0.537   9.134  17.374  0.00  0.00    +0.000 OA
ATOM      3  N   UNL     1       1.800   8.748  19.280  0.00  0.00    +0.000 N 
ATOM      4  H   UNL     1       1.864   9.008  20.262  0.00  0.00    +0.000 HD
ENDROOT
BRANCH   3   5
ATOM      5  C   UNL     1       2.517   7.606  18.838  0.00  0.00    +0.000 A 
ATOM      6  C   UNL     1       3.400   7.650  17.755  0.00  0.00    +0.000 A 
ATOM      7  C   UNL     1       4.048   6.496  17.312  0.00  0.00    +0.000 A 
ATOM      8  C   UNL     1       3.821   5.266  17.930  0.00  0.00    +0.000 A 
ATOM      9  C   UNL     1       2.992   5.225  19.058  0.00  0.00    +0.000 A 
ATOM     10  C   UNL     1       2.361   6.389  19.508  0.00  0.00    +0.000 A 
ATOM     11  F   UNL     1       1.578   6.323  20.596  0.00  0.00    +0.000 F 
ATOM     12  C   UNL     1       4.562   4.047  17.449  0.00  0.00    +0.000 C 
ATOM     13  C   UNL     1       5.012   4.178  15.999  0.00  0.00    +0.000 C 
ATOM     14  C   UNL     1       5.608   5.531  15.699  0.00  0.00    +0.000 C 
ATOM     15  O   UNL     1       6.523   5.691  14.896  0.00  0.00    +0.000 OA
ATOM     16  N   UNL     1       4.979   6.599  16.276  0.00  0.00    +0.000 N 
ATOM     17  H   UNL     1       5.272   7.513  15.950  0.00  0.00    +0.000 HD
ENDBRANCH   3   5
BRANCH   1  20
ATOM     18  C   UNL     1      -1.094  11.907  20.312  0.00  0.00    +0.000 A 
ATOM     19  N   UNL     1      -0.902  10.702  19.793  0.00  0.00    +0.000 NA
ATOM     20  C   UNL     1       0.331  10.650  19.139  0.00  0.00    +0.000 A 
ATOM     21  C   UNL     1       1.031  11.842  19.136  0.00  0.00    +0.000 A 
ATOM     22  S   UNL     1       0.211  13.017  20.042  0.00  0.00    +0.000 S 
BRANCH  18  27
ATOM     23  C   UNL     1      -5.738  13.867  23.234  0.00  0.00    +0.000 C 
ATOM     24  C   UNL     1      -4.549  13.348  22.485  0.00  0.00    +0.000 A 
ATOM     25  C   UNL     1      -4.383  13.619  21.132  0.00  0.00    +0.000 A 
ATOM     26  C   UNL     1      -3.269  13.123  20.451  0.00  0.00    +0.000 A 
ATOM     27  C   UNL     1      -2.267  12.362  21.096  0.00  0.00    +0.000 A 
ATOM     28  C   UNL     1      -2.434  12.090  22.471  0.00  0.00    +0.000 A 
ATOM     29  C   UNL     1      -1.464  11.292  23.303  0.00  0.00    +0.000 C 
ATOM     30  C   UNL     1      -3.580  12.578  23.139  0.00  0.00    +0.000 A 
ENDBRANCH  18  27
ENDBRANCH   1  20
TORSDOF 3
ENDMDL
