MODEL 1
REMARK VINA RESULT:      -8.1      0.000      0.000
REMARK  Name = 
REMARK  3 active torsions:
REMARK  status: ('A' for Active; 'I' for Inactive)
REMARK    1  A    between atoms: C_4  and  C_5
REMARK    2  A    between atoms: N_10  and  S_11
REMARK    3  A    between atoms: S_11  and  C_14
REMARK                            x       y       z     vdW  Elec       q    Type
REMARK                         _______ _______ _______ _____ _____    ______ ____
ROOT
ATOM      1  C   UNL     1       0.907   9.549  19.595  0.00  0.00    +0.000 C 
ATOM      2  O   UNL     1       0.532   9.664  20.765  0.00  0.00    +0.000 OA
ATOM      3  N   UNL     1       1.702   8.474  19.190  0.00  0.00    +0.000 N 
ATOM      4  C   UNL     1       1.876   7.360  20.138  0.00  0.00    +0.000 C 
ATOM      5  C   UNL     1       3.212   6.623  19.951  0.00  0.00    +0.000 C 
ATOM      6  N   UNL     1       3.465   6.245  18.525  0.00  0.00    +0.000 NA
ATOM      7  C   UNL     1       3.372   7.451  17.649  0.00  0.00    +0.000 C 
ATOM      8  C   UNL     1       2.012   8.146  17.790  0.00  0.00    +0.000 C 
ENDROOT
BRANCH   1  12
ATOM      9  O   UNL     1       0.756  13.418  20.768  0.00  0.00    +0.000 OA
ATOM     10  C   UNL     1       0.265  12.690  19.909  0.00  0.00    +0.000 C 
ATOM     11  C   UNL     1       1.112  11.964  18.897  0.00  0.00    +0.000 C 
ATOM     12  C   UNL     1       0.539  10.597  18.534  0.00  0.00    +0.000 C 
ATOM     13  C   UNL     1      -0.946  10.688  18.264  0.00  0.00    +0.000 A 
ATOM     14  C   UNL     1      -1.582   9.734  17.453  0.00  0.00    +0.000 A 
ATOM     15  C   UNL     1      -2.949   9.833  17.206  0.00  0.00    +0.000 A 
ATOM     16  C   UNL     1      -3.675  10.871  17.777  0.00  0.00    +0.000 A 
ATOM     17  F   UNL     1      -4.986  10.976  17.516  0.00  0.00    +0.000 F 
ATOM     18  C   UNL     1      -3.071  11.804  18.613  0.00  0.00    +0.000 A 
ATOM     19  C   UNL     1      -1.705  11.706  18.857  0.00  0.00    +0.000 A 
ATOM     20  N   UNL     1      -1.087  12.613  19.723  0.00  0.00    +0.000 N 
ATOM     21  H   UNL     1      -1.650  13.218  20.311  0.00  0.00    +0.000 HD
ENDBRANCH   1  12
BRANCH   6  22
ATOM     22  S   UNL     1       2.658   4.876  17.910  0.00  0.00    +0.000 S 
ATOM     23  O   UNL     1       1.351   5.289  17.459  0.00  0.00    +0.000 OA
ATOM     24  O   UNL     1       3.568   4.196  17.013  0.00  0.00    +0.000 OA
BRANCH  22  25
ATOM     25  C   UNL     1       2.464   3.830  19.330  0.00  0.00    +0.000 A 
ATOM     26  C   UNL     1       3.572   3.165  19.864  0.00  0.00    +0.000 A 
ATOM     27  C   UNL     1       3.417   2.398  21.018  0.00  0.00    +0.000 A 
ATOM     28  C   UNL     1       2.168   2.306  21.636  0.00  0.00    +0.000 A 
ATOM     29  C   UNL     1       1.068   2.984  21.104  0.00  0.00    +0.000 A 
ATOM     30  C   UNL     1       1.214   3.749  19.949  0.00  0.00    +0.000 A 
ENDBRANCH  22  25
ENDBRANCH   6  22
TORSDOF 3
ENDMDL
MODEL 2
REMARK VINA RESULT:      -7.7      3.768      8.893
REMARK  Name = 
REMARK  3 active torsions:
REMARK  status: ('A' for Active; 'I' for Inactive)
REMARK    1  A    between atoms: C_4  and  C_5
REMARK    2  A    between atoms: N_10  and  S_11
REMARK    3  A    between atoms: S_11  and  C_14
REMARK                            x       y       z     vdW  Elec       q    Type
REMARK                         _______ _______ _______ _____ _____    ______ ____
ROOT
ATOM      1  C   UNL     1       2.163   6.812  19.459  0.00  0.00    +0.000 C 
ATOM      2  O   UNL     1       2.348   6.166  20.494  0.00  0.00    +0.000 OA
ATOM      3  N   UNL     1       1.589   8.085  19.490  0.00  0.00    +0.000 N 
ATOM      4  C   UNL     1       1.437   8.732  20.805  0.00  0.00    +0.000 C 
ATOM      5  C   UNL     1       0.255   9.714  20.851  0.00  0.00    +0.000 C 
ATOM      6  N   UNL     1       0.263  10.676  19.705  0.00  0.00    +0.000 NA
ATOM      7  C   UNL     1       0.314   9.933  18.410  0.00  0.00    +0.000 C 
ATOM      8  C   UNL     1       1.532   9.003  18.343  0.00  0.00    +0.000 C 
ENDROOT
BRANCH   1  12
ATOM      9  O   UNL     1       1.283   2.923  18.771  0.00  0.00    +0.000 OA
ATOM     10  C   UNL     1       2.082   3.774  18.388  0.00  0.00    +0.000 C 
ATOM     11  C   UNL     1       1.633   5.053  17.731  0.00  0.00    +0.000 C 
ATOM     12  C   UNL     1       2.532   6.234  18.084  0.00  0.00    +0.000 C 
ATOM     13  C   UNL     1       3.992   5.860  17.958  0.00  0.00    +0.000 A 
ATOM     14  C   UNL     1       4.964   6.848  17.735  0.00  0.00    +0.000 A 
ATOM     15  C   UNL     1       6.304   6.490  17.614  0.00  0.00    +0.000 A 
ATOM     16  C   UNL     1       6.669   5.154  17.727  0.00  0.00    +0.000 A 
ATOM     17  F   UNL     1       7.957   4.811  17.584  0.00  0.00    +0.000 F 
ATOM     18  C   UNL     1       5.726   4.164  17.985  0.00  0.00    +0.000 A 
ATOM     19  C   UNL     1       4.387   4.523  18.103  0.00  0.00    +0.000 A 
ATOM     20  N   UNL     1       3.430   3.548  18.398  0.00  0.00    +0.000 N 
ATOM     21  H   UNL     1       3.722   2.627  18.705  0.00  0.00    +0.000 HD
ENDBRANCH   1  12
BRANCH   6  22
ATOM     22  S   UNL     1       1.330  12.002  19.788  0.00  0.00    +0.000 S 
ATOM     23  O   UNL     1       2.009  11.955  21.061  0.00  0.00    +0.000 OA
ATOM     24  O   UNL     1       2.083  12.038  18.552  0.00  0.00    +0.000 OA
BRANCH  22  25
ATOM     25  C   UNL     1       0.253  13.411  19.771  0.00  0.00    +0.000 A 
ATOM     26  C   UNL     1      -0.851  13.456  20.629  0.00  0.00    +0.000 A 
ATOM     27  C   UNL     1      -1.652  14.597  20.651  0.00  0.00    +0.000 A 
ATOM     28  C   UNL     1      -1.345  15.684  19.830  0.00  0.00    +0.000 A 
ATOM     29  C   UNL     1      -0.234  15.637  18.985  0.00  0.00    +0.000 A 
ATOM     30  C   UNL     1       0.568  14.499  18.954  0.00  0.00    +0.000 A 
ENDBRANCH  22  25
ENDBRANCH   6  22
TORSDOF 3
ENDMDL
MODEL 3
REMARK VINA RESULT:      -7.6      2.578      3.796
REMARK  Name = 
REMARK  3 active torsions:
REMARK  status: ('A' for Active; 'I' for Inactive)
REMARK    1  A    between atoms: C_4  and  C_5
REMARK    2  A    between atoms: N_10  and  S_11
REMARK    3  A    between atoms: S_11  and  C_14
REMARK                            x       y       z     vdW  Elec       q    Type
REMARK                         _______ _______ _______ _____ _____    ______ ____
ROOT
ATOM      1  C   UNL     1       1.016   7.209  20.835  0.00  0.00    +0.000 C 
ATOM      2  O   UNL     1      -0.041   6.921  21.402  0.00  0.00    +0.000 OA
ATOM      3  N   UNL     1       1.868   6.219  20.341  0.00  0.00    +0.000 N 
ATOM      4  C   UNL     1       1.355   4.838  20.298  0.00  0.00    +0.000 C 
ATOM      5  C   UNL     1       2.470   3.786  20.422  0.00  0.00    +0.000 C 
ATOM      6  N   UNL     1       3.604   4.037  19.478  0.00  0.00    +0.000 NA
ATOM      7  C   UNL     1       4.129   5.423  19.661  0.00  0.00    +0.000 C 
ATOM      8  C   UNL     1       3.027   6.472  19.472  0.00  0.00    +0.000 C 
ENDROOT
BRANCH   1  12
ATOM      9  O   UNL     1       0.256   9.746  23.893  0.00  0.00    +0.000 OA
ATOM     10  C   UNL     1       0.419   9.785  22.676  0.00  0.00    +0.000 C 
ATOM     11  C   UNL     1       1.698   9.324  22.026  0.00  0.00    +0.000 C 
ATOM     12  C   UNL     1       1.457   8.671  20.669  0.00  0.00    +0.000 C 
ATOM     13  C   UNL     1       0.508   9.498  19.831  0.00  0.00    +0.000 A 
ATOM     14  C   UNL     1       0.523   9.399  18.431  0.00  0.00    +0.000 A 
ATOM     15  C   UNL     1      -0.351  10.171  17.671  0.00  0.00    +0.000 A 
ATOM     16  C   UNL     1      -1.243  11.026  18.308  0.00  0.00    +0.000 A 
ATOM     17  F   UNL     1      -2.065  11.785  17.572  0.00  0.00    +0.000 F 
ATOM     18  C   UNL     1      -1.299  11.110  19.696  0.00  0.00    +0.000 A 
ATOM     19  C   UNL     1      -0.423  10.340  20.454  0.00  0.00    +0.000 A 
ATOM     20  N   UNL     1      -0.489  10.385  21.849  0.00  0.00    +0.000 N 
ATOM     21  H   UNL     1      -1.280  10.825  22.307  0.00  0.00    +0.000 HD
ENDBRANCH   1  12
BRANCH   6  22
ATOM     22  S   UNL     1       3.396   3.582  17.848  0.00  0.00    +0.000 S 
ATOM     23  O   UNL     1       3.395   2.141  17.780  0.00  0.00    +0.000 OA
ATOM     24  O   UNL     1       2.288   4.346  17.317  0.00  0.00    +0.000 OA
BRANCH  22  25
ATOM     25  C   UNL     1       4.862   4.187  17.053  0.00  0.00    +0.000 A 
ATOM     26  C   UNL     1       6.083   4.175  17.736  0.00  0.00    +0.000 A 
ATOM     27  C   UNL     1       7.238   4.592  17.076  0.00  0.00    +0.000 A 
ATOM     28  C   UNL     1       7.172   5.009  15.744  0.00  0.00    +0.000 A 
ATOM     29  C   UNL     1       5.952   5.007  15.066  0.00  0.00    +0.000 A 
ATOM     30  C   UNL     1       4.793   4.595  15.719  0.00  0.00    +0.000 A 
ENDBRANCH  22  25
ENDBRANCH   6  22
TORSDOF 3
ENDMDL
MODEL 4
REMARK VINA RESULT:      -7.6      2.214      3.003
REMARK  Name = 
REMARK  3 active torsions:
REMARK  status: ('A' for Active; 'I' for Inactive)
REMARK    1  A    between atoms: C_4  and  C_5
REMARK    2  A    between atoms: N_10  and  S_11
REMARK    3  A    between atoms: S_11  and  C_14
REMARK                            x       y       z     vdW  Elec       q    Type
REMARK                         _______ _______ _______ _____ _____    ______ ____
ROOT
ATOM      1  C   UNL     1       0.521   8.512  20.634  0.00  0.00    +0.000 C 
ATOM      2  O   UNL     1      -0.367   8.314  21.467  0.00  0.00    +0.000 OA
ATOM      3  N   UNL     1       1.432   7.511  20.292  0.00  0.00    +0.000 N 
ATOM      4  C   UNL     1       1.154   6.144  20.768  0.00  0.00    +0.000 C 
ATOM      5  C   UNL     1       2.432   5.312  20.965  0.00  0.00    +0.000 C 
ATOM      6  N   UNL     1       3.339   5.362  19.776  0.00  0.00    +0.000 NA
ATOM      7  C   UNL     1       3.652   6.780  19.427  0.00  0.00    +0.000 C 
ATOM      8  C   UNL     1       2.376   7.590  19.167  0.00  0.00    +0.000 C 
ENDROOT
BRANCH   1  12
ATOM      9  O   UNL     1      -0.233  11.805  22.861  0.00  0.00    +0.000 OA
ATOM     10  C   UNL     1      -0.246  11.461  21.682  0.00  0.00    +0.000 C 
ATOM     11  C   UNL     1       0.992  10.965  20.980  0.00  0.00    +0.000 C 
ATOM     12  C   UNL     1       0.682   9.880  19.954  0.00  0.00    +0.000 C 
ATOM     13  C   UNL     1      -0.498  10.270  19.093  0.00  0.00    +0.000 A 
ATOM     14  C   UNL     1      -0.657   9.721  17.811  0.00  0.00    +0.000 A 
ATOM     15  C   UNL     1      -1.745  10.093  17.026  0.00  0.00    +0.000 A 
ATOM     16  C   UNL     1      -2.672  11.000  17.525  0.00  0.00    +0.000 A 
ATOM     17  F   UNL     1      -3.704  11.375  16.756  0.00  0.00    +0.000 F 
ATOM     18  C   UNL     1      -2.553  11.527  18.807  0.00  0.00    +0.000 A 
ATOM     19  C   UNL     1      -1.464  11.156  19.590  0.00  0.00    +0.000 A 
ATOM     20  N   UNL     1      -1.346  11.647  20.893  0.00  0.00    +0.000 N 
ATOM     21  H   UNL     1      -2.130  12.117  21.331  0.00  0.00    +0.000 HD
ENDBRANCH   1  12
BRANCH   6  22
ATOM     22  S   UNL     1       2.947   4.386  18.436  0.00  0.00    +0.000 S 
ATOM     23  O   UNL     1       2.675   3.052  18.914  0.00  0.00    +0.000 OA
ATOM     24  O   UNL     1       1.966   5.100  17.645  0.00  0.00    +0.000 OA
BRANCH  22  25
ATOM     25  C   UNL     1       4.444   4.354  17.486  0.00  0.00    +0.000 A 
ATOM     26  C   UNL     1       4.385   4.332  16.088  0.00  0.00    +0.000 A 
ATOM     27  C   UNL     1       5.569   4.374  15.354  0.00  0.00    +0.000 A 
ATOM     28  C   UNL     1       6.799   4.445  16.012  0.00  0.00    +0.000 A 
ATOM     29  C   UNL     1       6.850   4.480  17.407  0.00  0.00    +0.000 A 
ATOM     30  C   UNL     1       5.672   4.435  18.148  0.00  0.00    +0.000 A 
ENDBRANCH  22  25
ENDBRANCH   6  22
TORSDOF 3
ENDMDL
MODEL 5
REMARK VINA RESULT:      -7.6      3.286      8.206
REMARK  Name = 
REMARK  3 active torsions:
REMARK  status: ('A' for Active; 'I' for Inactive)
REMARK    1  A    between atoms: C_4  and  C_5
REMARK    2  A    between atoms: N_10  and  S_11
REMARK    3  A    between atoms: S_11  and  C_14
REMARK                            x       y       z     vdW  Elec       q    Type
REMARK                         _______ _______ _______ _____ _____    ______ ____
ROOT
ATOM      1  C   UNL     1       3.209   6.868  18.358  0.00  0.00    +0.000 C 
ATOM      2  O   UNL     1       3.552   6.870  17.173  0.00  0.00    +0.000 OA
ATOM      3  N   UNL     1       2.476   7.925  18.904  0.00  0.00    +0.000 N 
ATOM      4  C   UNL     1       1.917   8.920  17.972  0.00  0.00    +0.000 C 
ATOM      5  C   UNL     1       1.764  10.311  18.609  0.00  0.00    +0.000 C 
ATOM      6  N   UNL     1       1.062  10.263  19.930  0.00  0.00    +0.000 NA
ATOM      7  C   UNL     1       1.754   9.309  20.846  0.00  0.00    +0.000 C 
ATOM      8  C   UNL     1       1.847   7.906  20.233  0.00  0.00    +0.000 C 
ENDROOT
BRANCH   1  12
ATOM      9  O   UNL     1       6.396   4.604  17.319  0.00  0.00    +0.000 OA
ATOM     10  C   UNL     1       5.360   4.502  17.971  0.00  0.00    +0.000 C 
ATOM     11  C   UNL     1       5.076   5.377  19.163  0.00  0.00    +0.000 C 
ATOM     12  C   UNL     1       3.594   5.714  19.296  0.00  0.00    +0.000 C 
ATOM     13  C   UNL     1       2.740   4.479  19.118  0.00  0.00    +0.000 A 
ATOM     14  C   UNL     1       1.452   4.418  19.673  0.00  0.00    +0.000 A 
ATOM     15  C   UNL     1       0.678   3.273  19.507  0.00  0.00    +0.000 A 
ATOM     16  C   UNL     1       1.185   2.201  18.782  0.00  0.00    +0.000 A 
ATOM     17  F   UNL     1       0.447   1.091  18.646  0.00  0.00    +0.000 F 
ATOM     18  C   UNL     1       2.444   2.257  18.192  0.00  0.00    +0.000 A 
ATOM     19  C   UNL     1       3.217   3.401  18.360  0.00  0.00    +0.000 A 
ATOM     20  N   UNL     1       4.469   3.490  17.746  0.00  0.00    +0.000 N 
ATOM     21  H   UNL     1       4.737   2.815  17.038  0.00  0.00    +0.000 HD
ENDBRANCH   1  12
BRANCH   6  22
ATOM     22  S   UNL     1      -0.636  10.111  19.922  0.00  0.00    +0.000 S 
ATOM     23  O   UNL     1      -1.092  10.223  18.558  0.00  0.00    +0.000 OA
ATOM     24  O   UNL     1      -0.977   8.953  20.721  0.00  0.00    +0.000 OA
BRANCH  22  25
ATOM     25  C   UNL     1      -1.189  11.535  20.824  0.00  0.00    +0.000 A 
ATOM     26  C   UNL     1      -2.054  12.452  20.219  0.00  0.00    +0.000 A 
ATOM     27  C   UNL     1      -2.533  13.531  20.961  0.00  0.00    +0.000 A 
ATOM     28  C   UNL     1      -2.156  13.685  22.297  0.00  0.00    +0.000 A 
ATOM     29  C   UNL     1      -1.301  12.758  22.898  0.00  0.00    +0.000 A 
ATOM     30  C   UNL     1      -0.816  11.679  22.163  0.00  0.00    +0.000 A 
ENDBRANCH  22  25
ENDBRANCH   6  22
TORSDOF 3
ENDMDL
MODEL 6
REMARK VINA RESULT:      -7.3      3.856      8.757
REMARK  Name = 
REMARK  3 active torsions:
REMARK  status: ('A' for Active; 'I' for Inactive)
REMARK    1  A    between atoms: C_4  and  C_5
REMARK    2  A    between atoms: N_10  and  S_11
REMARK    3  A    between atoms: S_11  and  C_14
REMARK                            x       y       z     vdW  Elec       q    Type
REMARK                         _______ _______ _______ _____ _____    ______ ____
ROOT
ATOM      1  C   UNL     1       2.347   6.821  19.493  0.00  0.00    +0.000 C 
ATOM      2  O   UNL     1       2.682   6.109  20.444  0.00  0.00    +0.000 OA
ATOM      3  N   UNL     1       1.597   7.984  19.687  0.00  0.00    +0.000 N 
ATOM      4  C   UNL     1       1.426   8.463  21.069  0.00  0.00    +0.000 C 
ATOM      5  C   UNL     1       0.119   9.247  21.270  0.00  0.00    +0.000 C 
ATOM      6  N   UNL     1      -0.078  10.310  20.235  0.00  0.00    +0.000 NA
ATOM      7  C   UNL     1       0.007   9.719  18.867  0.00  0.00    +0.000 C 
ATOM      8  C   UNL     1       1.341   8.994  18.649  0.00  0.00    +0.000 C 
ENDROOT
BRANCH   1  12
ATOM      9  O   UNL     1       1.072   3.242  18.104  0.00  0.00    +0.000 OA
ATOM     10  C   UNL     1       1.980   4.045  17.902  0.00  0.00    +0.000 C 
ATOM     11  C   UNL     1       1.711   5.462  17.467  0.00  0.00    +0.000 C 
ATOM     12  C   UNL     1       2.718   6.449  18.050  0.00  0.00    +0.000 C 
ATOM     13  C   UNL     1       4.131   5.930  17.904  0.00  0.00    +0.000 A 
ATOM     14  C   UNL     1       5.217   6.819  17.888  0.00  0.00    +0.000 A 
ATOM     15  C   UNL     1       6.513   6.330  17.746  0.00  0.00    +0.000 A 
ATOM     16  C   UNL     1       6.720   4.960  17.633  0.00  0.00    +0.000 A 
ATOM     17  F   UNL     1       7.967   4.495  17.471  0.00  0.00    +0.000 F 
ATOM     18  C   UNL     1       5.660   4.060  17.684  0.00  0.00    +0.000 A 
ATOM     19  C   UNL     1       4.366   4.551  17.823  0.00  0.00    +0.000 A 
ATOM     20  N   UNL     1       3.292   3.661  17.913  0.00  0.00    +0.000 N 
ATOM     21  H   UNL     1       3.462   2.673  18.060  0.00  0.00    +0.000 HD
ENDBRANCH   1  12
BRANCH   6  22
ATOM     22  S   UNL     1       0.788  11.766  20.419  0.00  0.00    +0.000 S 
ATOM     23  O   UNL     1       1.856  11.540  21.362  0.00  0.00    +0.000 OA
ATOM     24  O   UNL     1       1.070  12.279  19.095  0.00  0.00    +0.000 OA
BRANCH  22  25
ATOM     25  C   UNL     1      -0.393  12.868  21.152  0.00  0.00    +0.000 A 
ATOM     26  C   UNL     1      -0.975  13.881  20.382  0.00  0.00    +0.000 A 
ATOM     27  C   UNL     1      -1.949  14.698  20.953  0.00  0.00    +0.000 A 
ATOM     28  C   UNL     1      -2.344  14.497  22.279  0.00  0.00    +0.000 A 
ATOM     29  C   UNL     1      -1.767  13.476  23.037  0.00  0.00    +0.000 A 
ATOM     30  C   UNL     1      -0.791  12.658  22.474  0.00  0.00    +0.000 A 
ENDBRANCH  22  25
ENDBRANCH   6  22
TORSDOF 3
ENDMDL
MODEL 7
REMARK VINA RESULT:      -7.3      3.582      8.182
REMARK  Name = 
REMARK  3 active torsions:
REMARK  status: ('A' for Active; 'I' for Inactive)
REMARK    1  A    between atoms: C_4  and  C_5
REMARK    2  A    between atoms: N_10  and  S_11
REMARK    3  A    between atoms: S_11  and  C_14
REMARK                            x       y       z     vdW  Elec       q    Type
REMARK                         _______ _______ _______ _____ _____    ______ ____
ROOT
ATOM      1  C   UNL     1       2.267   7.539  18.881  0.00  0.00    +0.000 C 
ATOM      2  O   UNL     1       2.013   7.736  17.690  0.00  0.00    +0.000 OA
ATOM      3  N   UNL     1       1.845   8.430  19.871  0.00  0.00    +0.000 N 
ATOM      4  C   UNL     1       0.884   9.477  19.481  0.00  0.00    +0.000 C 
ATOM      5  C   UNL     1       1.006  10.745  20.340  0.00  0.00    +0.000 C 
ATOM      6  N   UNL     1       1.008  10.447  21.807  0.00  0.00    +0.000 NA
ATOM      7  C   UNL     1       2.079   9.457  22.129  0.00  0.00    +0.000 C 
ATOM      8  C   UNL     1       1.915   8.167  21.316  0.00  0.00    +0.000 C 
ENDROOT
BRANCH   1  12
ATOM      9  O   UNL     1       5.034   6.096  16.306  0.00  0.00    +0.000 OA
ATOM     10  C   UNL     1       4.331   5.696  17.231  0.00  0.00    +0.000 C 
ATOM     11  C   UNL     1       4.432   6.273  18.619  0.00  0.00    +0.000 C 
ATOM     12  C   UNL     1       3.082   6.317  19.329  0.00  0.00    +0.000 C 
ATOM     13  C   UNL     1       2.345   5.006  19.170  0.00  0.00    +0.000 A 
ATOM     14  C   UNL     1       1.370   4.621  20.104  0.00  0.00    +0.000 A 
ATOM     15  C   UNL     1       0.702   3.408  19.950  0.00  0.00    +0.000 A 
ATOM     16  C   UNL     1       1.000   2.594  18.864  0.00  0.00    +0.000 A 
ATOM     17  F   UNL     1       0.373   1.417  18.733  0.00  0.00    +0.000 F 
ATOM     18  C   UNL     1       1.936   2.976  17.908  0.00  0.00    +0.000 A 
ATOM     19  C   UNL     1       2.604   4.187  18.064  0.00  0.00    +0.000 A 
ATOM     20  N   UNL     1       3.521   4.604  17.095  0.00  0.00    +0.000 N 
ATOM     21  H   UNL     1       3.567   4.128  16.201  0.00  0.00    +0.000 HD
ENDBRANCH   1  12
BRANCH   6  22
ATOM     22  S   UNL     1      -0.489  10.120  22.554  0.00  0.00    +0.000 S 
ATOM     23  O   UNL     1      -1.289   9.344  21.638  0.00  0.00    +0.000 OA
ATOM     24  O   UNL     1      -0.216   9.633  23.889  0.00  0.00    +0.000 OA
BRANCH  22  25
ATOM     25  C   UNL     1      -1.227  11.723  22.735  0.00  0.00    +0.000 A 
ATOM     26  C   UNL     1      -2.507  11.843  23.286  0.00  0.00    +0.000 A 
ATOM     27  C   UNL     1      -3.048  13.113  23.483  0.00  0.00    +0.000 A 
ATOM     28  C   UNL     1      -2.312  14.250  23.140  0.00  0.00    +0.000 A 
ATOM     29  C   UNL     1      -1.030  14.121  22.602  0.00  0.00    +0.000 A 
ATOM     30  C   UNL     1      -0.483  12.857  22.399  0.00  0.00    +0.000 A 
ENDBRANCH  22  25
ENDBRANCH   6  22
TORSDOF 3
ENDMDL
MODEL 8
REMARK VINA RESULT:      -7.2      2.179      3.064
REMARK  Name = 
REMARK  3 active torsions:
REMARK  status: ('A' for Active; 'I' for Inactive)
REMARK    1  A    between atoms: C_4  and  C_5
REMARK    2  A    between atoms: N_10  and  S_11
REMARK    3  A    between atoms: S_11  and  C_14
REMARK                            x       y       z     vdW  Elec       q    Type
REMARK                         _______ _______ _______ _____ _____    ______ ____
ROOT
ATOM      1  C   UNL     1       0.926   8.856  19.644  0.00  0.00    +0.000 C 
ATOM      2  O   UNL     1       0.198   8.794  20.638  0.00  0.00    +0.000 OA
ATOM      3  N   UNL     1       1.889   7.877  19.387  0.00  0.00    +0.000 N 
ATOM      4  C   UNL     1       1.845   6.648  20.198  0.00  0.00    +0.000 C 
ATOM      5  C   UNL     1       3.227   5.993  20.359  0.00  0.00    +0.000 C 
ATOM      6  N   UNL     1       3.939   5.827  19.054  0.00  0.00    +0.000 NA
ATOM      7  C   UNL     1       4.029   7.139  18.346  0.00  0.00    +0.000 C 
ATOM      8  C   UNL     1       2.643   7.758  18.130  0.00  0.00    +0.000 C 
ENDROOT
BRANCH   1  12
ATOM      9  O   UNL     1       1.639  12.572  21.077  0.00  0.00    +0.000 OA
ATOM     10  C   UNL     1       1.010  12.033  20.169  0.00  0.00    +0.000 C 
ATOM     11  C   UNL     1       1.688  11.200  19.112  0.00  0.00    +0.000 C 
ATOM     12  C   UNL     1       0.825  10.028  18.656  0.00  0.00    +0.000 C 
ATOM     13  C   UNL     1      -0.595  10.472  18.389  0.00  0.00    +0.000 A 
ATOM     14  C   UNL     1      -1.416   9.744  17.514  0.00  0.00    +0.000 A 
ATOM     15  C   UNL     1      -2.720  10.168  17.271  0.00  0.00    +0.000 A 
ATOM     16  C   UNL     1      -3.202  11.305  17.909  0.00  0.00    +0.000 A 
ATOM     17  F   UNL     1      -4.449  11.724  17.653  0.00  0.00    +0.000 F 
ATOM     18  C   UNL     1      -2.416  12.019  18.808  0.00  0.00    +0.000 A 
ATOM     19  C   UNL     1      -1.112  11.596  19.048  0.00  0.00    +0.000 A 
ATOM     20  N   UNL     1      -0.320  12.279  19.975  0.00  0.00    +0.000 N 
ATOM     21  H   UNL     1      -0.741  12.957  20.601  0.00  0.00    +0.000 HD
ENDBRANCH   1  12
BRANCH   6  22
ATOM     22  S   UNL     1       3.472   4.528  18.054  0.00  0.00    +0.000 S 
ATOM     23  O   UNL     1       3.473   3.324  18.849  0.00  0.00    +0.000 OA
ATOM     24  O   UNL     1       2.285   4.934  17.332  0.00  0.00    +0.000 OA
BRANCH  22  25
ATOM     25  C   UNL     1       4.783   4.423  16.862  0.00  0.00    +0.000 A 
ATOM     26  C   UNL     1       4.482   4.322  15.500  0.00  0.00    +0.000 A 
ATOM     27  C   UNL     1       5.521   4.306  14.571  0.00  0.00    +0.000 A 
ATOM     28  C   UNL     1       6.847   4.399  15.001  0.00  0.00    +0.000 A 
ATOM     29  C   UNL     1       7.139   4.512  16.362  0.00  0.00    +0.000 A 
ATOM     30  C   UNL     1       6.107   4.525  17.297  0.00  0.00    +0.000 A 
ENDBRANCH  22  25
ENDBRANCH   6  22
TORSDOF 3
ENDMDL
MODEL 9
REMARK VINA RESULT:      -7.2      3.492      8.121
REMARK  Name = 
REMARK  3 active torsions:
REMARK  status: ('A' for Active; 'I' for Inactive)
REMARK    1  A    between atoms: C_4  and  C_5
REMARK    2  A    between atoms: N_10  and  S_11
REMARK    3  A    between atoms: S_11  and  C_14
REMARK                            x       y       z     vdW  Elec       q    Type
REMARK                         _______ _______ _______ _____ _____    ______ ____
ROOT
ATOM      1  C   UNL     1       2.579   7.442  18.529  0.00  0.00    +0.000 C 
ATOM      2  O   UNL     1       2.557   7.600  17.306  0.00  0.00    +0.000 OA
ATOM      3  N   UNL     1       2.011   8.381  19.393  0.00  0.00    +0.000 N 
ATOM      4  C   UNL     1       1.175   9.438  18.797  0.00  0.00    +0.000 C 
ATOM      5  C   UNL     1       1.178  10.735  19.623  0.00  0.00    +0.000 C 
ATOM      6  N   UNL     1       0.898  10.492  21.073  0.00  0.00    +0.000 NA
ATOM      7  C   UNL     1       1.856   9.487  21.621  0.00  0.00    +0.000 C 
ATOM      8  C   UNL     1       1.803   8.172  20.834  0.00  0.00    +0.000 C 
ENDROOT
BRANCH   1  12
ATOM      9  O   UNL     1       5.500   5.620  16.403  0.00  0.00    +0.000 OA
ATOM     10  C   UNL     1       4.676   5.344  17.272  0.00  0.00    +0.000 C 
ATOM     11  C   UNL     1       4.667   6.031  18.613  0.00  0.00    +0.000 C 
ATOM     12  C   UNL     1       3.256   6.216  19.161  0.00  0.00    +0.000 C 
ATOM     13  C   UNL     1       2.451   4.944  19.024  0.00  0.00    +0.000 A 
ATOM     14  C   UNL     1       1.357   4.698  19.869  0.00  0.00    +0.000 A 
ATOM     15  C   UNL     1       0.628   3.520  19.737  0.00  0.00    +0.000 A 
ATOM     16  C   UNL     1       0.983   2.599  18.758  0.00  0.00    +0.000 A 
ATOM     17  F   UNL     1       0.294   1.455  18.651  0.00  0.00    +0.000 F 
ATOM     18  C   UNL     1       2.040   2.840  17.887  0.00  0.00    +0.000 A 
ATOM     19  C   UNL     1       2.770   4.018  18.021  0.00  0.00    +0.000 A 
ATOM     20  N   UNL     1       3.812   4.294  17.132  0.00  0.00    +0.000 N 
ATOM     21  H   UNL     1       3.920   3.742  16.289  0.00  0.00    +0.000 HD
ENDBRANCH   1  12
BRANCH   6  22
ATOM     22  S   UNL     1      -0.721  10.235  21.537  0.00  0.00    +0.000 S 
ATOM     23  O   UNL     1      -1.517  10.105  20.341  0.00  0.00    +0.000 OA
ATOM     24  O   UNL     1      -0.729   9.195  22.545  0.00  0.00    +0.000 OA
BRANCH  22  25
ATOM     25  C   UNL     1      -1.169  11.743  22.357  0.00  0.00    +0.000 A 
ATOM     26  C   UNL     1      -0.391  12.892  22.179  0.00  0.00    +0.000 A 
ATOM     27  C   UNL     1      -0.791  14.086  22.776  0.00  0.00    +0.000 A 
ATOM     28  C   UNL     1      -1.962  14.132  23.536  0.00  0.00    +0.000 A 
ATOM     29  C   UNL     1      -2.741  12.984  23.698  0.00  0.00    +0.000 A 
ATOM     30  C   UNL     1      -2.346  11.786  23.107  0.00  0.00    +0.000 A 
ENDBRANCH  22  25
ENDBRANCH   6  22
TORSDOF 3
ENDMDL
