MODEL 1
REMARK VINA RESULT:      -8.6      0.000      0.000
REMARK  Name = 
REMARK  4 active torsions:
REMARK  status: ('A' for Active; 'I' for Inactive)
REMARK    1  A    between atoms: C_2  and  C_17
REMARK    2  A    between atoms: N_3  and  C_4
REMARK    3  A    between atoms: C_7  and  O_8
REMARK    4  A    between atoms: O_8  and  C_9
REMARK                            x       y       z     vdW  Elec       q    Type
REMARK                         _______ _______ _______ _____ _____    ______ ____
ROOT
ATOM      1  O   UNL     1       7.490   9.731  17.380  0.00  0.00    +0.000 OA
ATOM      2  C   UNL     1       8.353   9.341  18.159  0.00  0.00    +0.000 C 
ATOM      3  N   UNL     1       8.532   8.047  18.618  0.00  0.00    +0.000 N 
ATOM      4  H   UNL     1       9.267   7.938  19.311  0.00  0.00    +0.000 HD
ENDROOT
BRANCH   2   5
ATOM      5  C   UNL     1       9.327  10.323  18.721  0.00  0.00    +0.000 A 
ATOM      6  C   UNL     1       9.311  10.573  20.087  0.00  0.00    +0.000 A 
ATOM      7  C   UNL     1      10.127  11.580  20.567  0.00  0.00    +0.000 A 
ATOM      8  C   UNL     1      10.890  12.338  19.672  0.00  0.00    +0.000 A 
ATOM      9  C   UNL     1      11.602  13.465  20.109  0.00  0.00    +0.000 A 
ATOM     10  C   UNL     1      12.297  14.251  19.197  0.00  0.00    +0.000 A 
ATOM     11  C   UNL     1      12.333  13.880  17.857  0.00  0.00    +0.000 A 
ATOM     12  C   UNL     1      11.647  12.738  17.429  0.00  0.00    +0.000 A 
ATOM     13  C   UNL     1      10.887  11.973  18.305  0.00  0.00    +0.000 A 
ATOM     14  N   UNL     1      10.145  10.955  17.832  0.00  0.00    +0.000 NA
ENDBRANCH   2   5
BRANCH   3  15
ATOM     15  C   UNL     1       7.751   6.926  18.288  0.00  0.00    +0.000 A 
ATOM     16  C   UNL     1       7.443   5.912  19.198  0.00  0.00    +0.000 A 
ATOM     17  C   UNL     1       6.694   4.798  18.802  0.00  0.00    +0.000 A 
ATOM     18  C   UNL     1       6.201   4.713  17.502  0.00  0.00    +0.000 A 
ATOM     19  C   UNL     1       6.518   5.713  16.581  0.00  0.00    +0.000 A 
ATOM     20  C   UNL     1       7.276   6.822  16.976  0.00  0.00    +0.000 A 
BRANCH  18  21
ATOM     21  O   UNL     1       5.465   3.656  17.021  0.00  0.00    +0.000 OA
BRANCH  21  22
ATOM     22  C   UNL     1       4.140   3.525  17.370  0.00  0.00    +0.000 A 
ATOM     23  C   UNL     1       3.528   2.325  17.726  0.00  0.00    +0.000 A 
ATOM     24  C   UNL     1       2.183   2.352  18.052  0.00  0.00    +0.000 A 
ATOM     25  N   UNL     1       1.441   3.480  18.091  0.00  0.00    +0.000 NA
ATOM     26  C   UNL     1       2.075   4.634  17.789  0.00  0.00    +0.000 A 
ATOM     27  C   UNL     1       3.408   4.708  17.425  0.00  0.00    +0.000 A 
ENDBRANCH  21  22
ENDBRANCH  18  21
ENDBRANCH   3  15
TORSDOF 4
ENDMDL
MODEL 2
REMARK VINA RESULT:      -8.5      6.414      9.116
REMARK  Name = 
REMARK  4 active torsions:
REMARK  status: ('A' for Active; 'I' for Inactive)
REMARK    1  A    between atoms: C_2  and  C_17
REMARK    2  A    between atoms: N_3  and  C_4
REMARK    3  A    between atoms: C_7  and  O_8
REMARK    4  A    between atoms: O_8  and  C_9
REMARK                            x       y       z     vdW  Elec       q    Type
REMARK                         _______ _______ _______ _____ _____    ______ ____
ROOT
ATOM      1  O   UNL     1       1.041   9.985  19.009  0.00  0.00    +0.000 OA
ATOM      2  C   UNL     1       0.798   9.521  20.119  0.00  0.00    +0.000 C 
ATOM      3  N   UNL     1       1.175   8.279  20.598  0.00  0.00    +0.000 N 
ATOM      4  H   UNL     1       0.821   8.053  21.523  0.00  0.00    +0.000 HD
ENDROOT
BRANCH   2   5
ATOM      5  C   UNL     1      -0.003  10.327  21.087  0.00  0.00    +0.000 A 
ATOM      6  C   UNL     1      -0.175   9.844  22.377  0.00  0.00    +0.000 A 
ATOM      7  C   UNL     1      -1.029  10.537  23.215  0.00  0.00    +0.000 A 
ATOM      8  C   UNL     1      -1.720  11.652  22.731  0.00  0.00    +0.000 A 
ATOM      9  C   UNL     1      -2.709  12.278  23.505  0.00  0.00    +0.000 A 
ATOM     10  C   UNL     1      -3.438  13.340  22.983  0.00  0.00    +0.000 A 
ATOM     11  C   UNL     1      -3.141  13.819  21.712  0.00  0.00    +0.000 A 
ATOM     12  C   UNL     1      -2.134  13.212  20.953  0.00  0.00    +0.000 A 
ATOM     13  C   UNL     1      -1.437  12.105  21.421  0.00  0.00    +0.000 A 
ATOM     14  N   UNL     1      -0.561  11.477  20.614  0.00  0.00    +0.000 NA
ENDBRANCH   2   5
BRANCH   3  15
ATOM     15  C   UNL     1       1.903   7.297  19.902  0.00  0.00    +0.000 A 
ATOM     16  C   UNL     1       2.493   7.520  18.657  0.00  0.00    +0.000 A 
ATOM     17  C   UNL     1       3.172   6.493  17.992  0.00  0.00    +0.000 A 
ATOM     18  C   UNL     1       3.312   5.243  18.594  0.00  0.00    +0.000 A 
ATOM     19  C   UNL     1       2.711   5.007  19.831  0.00  0.00    +0.000 A 
ATOM     20  C   UNL     1       2.024   6.033  20.490  0.00  0.00    +0.000 A 
BRANCH  18  21
ATOM     21  O   UNL     1       3.953   4.173  18.015  0.00  0.00    +0.000 OA
BRANCH  21  22
ATOM     22  C   UNL     1       5.232   4.320  17.528  0.00  0.00    +0.000 A 
ATOM     23  C   UNL     1       6.349   4.612  18.308  0.00  0.00    +0.000 A 
ATOM     24  C   UNL     1       7.573   4.729  17.673  0.00  0.00    +0.000 A 
ATOM     25  N   UNL     1       7.756   4.533  16.349  0.00  0.00    +0.000 NA
ATOM     26  C   UNL     1       6.663   4.204  15.628  0.00  0.00    +0.000 A 
ATOM     27  C   UNL     1       5.393   4.087  16.165  0.00  0.00    +0.000 A 
ENDBRANCH  21  22
ENDBRANCH  18  21
ENDBRANCH   3  15
TORSDOF 4
ENDMDL
MODEL 3
REMARK VINA RESULT:      -8.4      0.488      1.367
REMARK  Name = 
REMARK  4 active torsions:
REMARK  status: ('A' for Active; 'I' for Inactive)
REMARK    1  A    between atoms: C_2  and  C_17
REMARK    2  A    between atoms: N_3  and  C_4
REMARK    3  A    between atoms: C_7  and  O_8
REMARK    4  A    between atoms: O_8  and  C_9
REMARK                            x       y       z     vdW  Elec       q    Type
REMARK                         _______ _______ _______ _____ _____    ______ ____
ROOT
ATOM      1  O   UNL     1       7.373   9.968  17.498  0.00  0.00    +0.000 OA
ATOM      2  C   UNL     1       8.331   9.553  18.141  0.00  0.00    +0.000 C 
ATOM      3  N   UNL     1       8.594   8.237  18.482  0.00  0.00    +0.000 N 
ATOM      4  H   UNL     1       9.408   8.104  19.075  0.00  0.00    +0.000 HD
ENDROOT
BRANCH   2   5
ATOM      5  C   UNL     1       9.341  10.525  18.655  0.00  0.00    +0.000 A 
ATOM      6  C   UNL     1       9.427  10.738  20.024  0.00  0.00    +0.000 A 
ATOM      7  C   UNL     1      10.274  11.737  20.468  0.00  0.00    +0.000 A 
ATOM      8  C   UNL     1      10.965  12.522  19.539  0.00  0.00    +0.000 A 
ATOM      9  C   UNL     1      11.704  13.641  19.952  0.00  0.00    +0.000 A 
ATOM     10  C   UNL     1      12.327  14.454  19.011  0.00  0.00    +0.000 A 
ATOM     11  C   UNL     1      12.263  14.118  17.663  0.00  0.00    +0.000 A 
ATOM     12  C   UNL     1      11.549  12.985  17.257  0.00  0.00    +0.000 A 
ATOM     13  C   UNL     1      10.860  12.193  18.167  0.00  0.00    +0.000 A 
ATOM     14  N   UNL     1      10.088  11.184  17.724  0.00  0.00    +0.000 NA
ENDBRANCH   2   5
BRANCH   3  15
ATOM     15  C   UNL     1       7.805   7.116  18.166  0.00  0.00    +0.000 A 
ATOM     16  C   UNL     1       7.217   6.920  16.915  0.00  0.00    +0.000 A 
ATOM     17  C   UNL     1       6.409   5.805  16.671  0.00  0.00    +0.000 A 
ATOM     18  C   UNL     1       6.223   4.845  17.664  0.00  0.00    +0.000 A 
ATOM     19  C   UNL     1       6.793   5.041  18.923  0.00  0.00    +0.000 A 
ATOM     20  C   UNL     1       7.593   6.163  19.168  0.00  0.00    +0.000 A 
BRANCH  18  21
ATOM     21  O   UNL     1       5.441   3.723  17.519  0.00  0.00    +0.000 OA
BRANCH  21  22
ATOM     22  C   UNL     1       4.142   3.726  17.974  0.00  0.00    +0.000 A 
ATOM     23  C   UNL     1       3.162   4.630  17.570  0.00  0.00    +0.000 A 
ATOM     24  C   UNL     1       1.898   4.508  18.118  0.00  0.00    +0.000 A 
ATOM     25  N   UNL     1       1.546   3.536  18.987  0.00  0.00    +0.000 NA
ATOM     26  C   UNL     1       2.504   2.646  19.323  0.00  0.00    +0.000 A 
ATOM     27  C   UNL     1       3.803   2.698  18.849  0.00  0.00    +0.000 A 
ENDBRANCH  21  22
ENDBRANCH  18  21
ENDBRANCH   3  15
TORSDOF 4
ENDMDL
MODEL 4
REMARK VINA RESULT:      -8.4      1.871      2.260
REMARK  Name = 
REMARK  4 active torsions:
REMARK  status: ('A' for Active; 'I' for Inactive)
REMARK    1  A    between atoms: C_2  and  C_17
REMARK    2  A    between atoms: N_3  and  C_4
REMARK    3  A    between atoms: C_7  and  O_8
REMARK    4  A    between atoms: O_8  and  C_9
REMARK                            x       y       z     vdW  Elec       q    Type
REMARK                         _______ _______ _______ _____ _____    ______ ____
ROOT
ATOM      1  O   UNL     1       9.103   9.780  19.784  0.00  0.00    +0.000 OA
ATOM      2  C   UNL     1       8.931  10.083  18.609  0.00  0.00    +0.000 C 
ATOM      3  N   UNL     1       8.295   9.324  17.641  0.00  0.00    +0.000 N 
ATOM      4  H   UNL     1       8.312   9.723  16.707  0.00  0.00    +0.000 HD
ENDROOT
BRANCH   2   5
ATOM      5  C   UNL     1       9.461  11.385  18.106  0.00  0.00    +0.000 A 
ATOM      6  C   UNL     1      10.783  11.452  17.687  0.00  0.00    +0.000 A 
ATOM      7  C   UNL     1      11.290  12.694  17.352  0.00  0.00    +0.000 A 
ATOM      8  C   UNL     1      10.486  13.830  17.491  0.00  0.00    +0.000 A 
ATOM      9  C   UNL     1      11.021  15.115  17.311  0.00  0.00    +0.000 A 
ATOM     10  C   UNL     1      10.228  16.238  17.524  0.00  0.00    +0.000 A 
ATOM     11  C   UNL     1       8.887  16.080  17.856  0.00  0.00    +0.000 A 
ATOM     12  C   UNL     1       8.350  14.797  18.006  0.00  0.00    +0.000 A 
ATOM     13  C   UNL     1       9.134  13.658  17.868  0.00  0.00    +0.000 A 
ATOM     14  N   UNL     1       8.608  12.449  18.138  0.00  0.00    +0.000 NA
ENDBRANCH   2   5
BRANCH   3  15
ATOM     15  C   UNL     1       7.730   8.048  17.815  0.00  0.00    +0.000 A 
ATOM     16  C   UNL     1       8.243   7.096  18.697  0.00  0.00    +0.000 A 
ATOM     17  C   UNL     1       7.663   5.827  18.799  0.00  0.00    +0.000 A 
ATOM     18  C   UNL     1       6.527   5.516  18.053  0.00  0.00    +0.000 A 
ATOM     19  C   UNL     1       6.018   6.456  17.156  0.00  0.00    +0.000 A 
ATOM     20  C   UNL     1       6.606   7.721  17.049  0.00  0.00    +0.000 A 
BRANCH  18  21
ATOM     21  O   UNL     1       5.894   4.296  18.080  0.00  0.00    +0.000 OA
BRANCH  21  22
ATOM     22  C   UNL     1       4.528   4.233  18.237  0.00  0.00    +0.000 A 
ATOM     23  C   UNL     1       3.650   3.659  17.320  0.00  0.00    +0.000 A 
ATOM     24  C   UNL     1       2.298   3.673  17.617  0.00  0.00    +0.000 A 
ATOM     25  N   UNL     1       1.785   4.169  18.763  0.00  0.00    +0.000 NA
ATOM     26  C   UNL     1       2.666   4.674  19.654  0.00  0.00    +0.000 A 
ATOM     27  C   UNL     1       4.032   4.730  19.439  0.00  0.00    +0.000 A 
ENDBRANCH  21  22
ENDBRANCH  18  21
ENDBRANCH   3  15
TORSDOF 4
ENDMDL
MODEL 5
REMARK VINA RESULT:      -8.3      1.881      2.471
REMARK  Name = 
REMARK  4 active torsions:
REMARK  status: ('A' for Active; 'I' for Inactive)
REMARK    1  A    between atoms: C_2  and  C_17
REMARK    2  A    between atoms: N_3  and  C_4
REMARK    3  A    between atoms: C_7  and  O_8
REMARK    4  A    between atoms: O_8  and  C_9
REMARK                            x       y       z     vdW  Elec       q    Type
REMARK                         _______ _______ _______ _____ _____    ______ ____
ROOT
ATOM      1  O   UNL     1       9.214   9.657  19.703  0.00  0.00    +0.000 OA
ATOM      2  C   UNL     1       8.954  10.018  18.560  0.00  0.00    +0.000 C 
ATOM      3  N   UNL     1       8.226   9.317  17.614  0.00  0.00    +0.000 N 
ATOM      4  H   UNL     1       8.175   9.759  16.701  0.00  0.00    +0.000 HD
ENDROOT
BRANCH   2   5
ATOM      5  C   UNL     1       9.470  11.333  18.075  0.00  0.00    +0.000 A 
ATOM      6  C   UNL     1      10.795  11.423  17.671  0.00  0.00    +0.000 A 
ATOM      7  C   UNL     1      11.287  12.675  17.352  0.00  0.00    +0.000 A 
ATOM      8  C   UNL     1      10.466  13.798  17.495  0.00  0.00    +0.000 A 
ATOM      9  C   UNL     1      10.983  15.092  17.333  0.00  0.00    +0.000 A 
ATOM     10  C   UNL     1      10.172  16.201  17.548  0.00  0.00    +0.000 A 
ATOM     11  C   UNL     1       8.830  16.021  17.865  0.00  0.00    +0.000 A 
ATOM     12  C   UNL     1       8.310  14.728  17.997  0.00  0.00    +0.000 A 
ATOM     13  C   UNL     1       9.112  13.603  17.856  0.00  0.00    +0.000 A 
ATOM     14  N   UNL     1       8.601  12.383  18.109  0.00  0.00    +0.000 NA
ENDBRANCH   2   5
BRANCH   3  15
ATOM     15  C   UNL     1       7.649   8.045  17.775  0.00  0.00    +0.000 A 
ATOM     16  C   UNL     1       6.494   7.636  17.105  0.00  0.00    +0.000 A 
ATOM     17  C   UNL     1       5.941   6.372  17.335  0.00  0.00    +0.000 A 
ATOM     18  C   UNL     1       6.571   5.482  18.203  0.00  0.00    +0.000 A 
ATOM     19  C   UNL     1       7.715   5.888  18.891  0.00  0.00    +0.000 A 
ATOM     20  C   UNL     1       8.261   7.157  18.666  0.00  0.00    +0.000 A 
BRANCH  18  21
ATOM     21  O   UNL     1       6.098   4.224  18.498  0.00  0.00    +0.000 OA
BRANCH  21  22
ATOM     22  C   UNL     1       4.743   3.997  18.566  0.00  0.00    +0.000 A 
ATOM     23  C   UNL     1       3.905   4.491  19.565  0.00  0.00    +0.000 A 
ATOM     24  C   UNL     1       2.559   4.176  19.499  0.00  0.00    +0.000 A 
ATOM     25  N   UNL     1       2.002   3.458  18.500  0.00  0.00    +0.000 NA
ATOM     26  C   UNL     1       2.831   3.035  17.522  0.00  0.00    +0.000 A 
ATOM     27  C   UNL     1       4.194   3.275  17.510  0.00  0.00    +0.000 A 
ENDBRANCH  21  22
ENDBRANCH  18  21
ENDBRANCH   3  15
TORSDOF 4
ENDMDL
MODEL 6
REMARK VINA RESULT:      -8.2      7.199     11.013
REMARK  Name = 
REMARK  4 active torsions:
REMARK  status: ('A' for Active; 'I' for Inactive)
REMARK    1  A    between atoms: C_2  and  C_17
REMARK    2  A    between atoms: N_3  and  C_4
REMARK    3  A    between atoms: C_7  and  O_8
REMARK    4  A    between atoms: O_8  and  C_9
REMARK                            x       y       z     vdW  Elec       q    Type
REMARK                         _______ _______ _______ _____ _____    ______ ____
ROOT
ATOM      1  O   UNL     1       1.973   9.145  18.490  0.00  0.00    +0.000 OA
ATOM      2  C   UNL     1       1.910   8.206  19.277  0.00  0.00    +0.000 C 
ATOM      3  N   UNL     1       1.304   8.207  20.521  0.00  0.00    +0.000 N 
ATOM      4  H   UNL     1       1.416   7.348  21.051  0.00  0.00    +0.000 HD
ENDROOT
BRANCH   2   5
ATOM      5  C   UNL     1       2.557   6.909  18.919  0.00  0.00    +0.000 A 
ATOM      6  C   UNL     1       3.498   6.890  17.898  0.00  0.00    +0.000 A 
ATOM      7  C   UNL     1       3.986   5.661  17.495  0.00  0.00    +0.000 A 
ATOM      8  C   UNL     1       3.487   4.493  18.080  0.00  0.00    +0.000 A 
ATOM      9  C   UNL     1       3.844   3.230  17.583  0.00  0.00    +0.000 A 
ATOM     10  C   UNL     1       3.284   2.080  18.128  0.00  0.00    +0.000 A 
ATOM     11  C   UNL     1       2.415   2.184  19.209  0.00  0.00    +0.000 A 
ATOM     12  C   UNL     1       2.084   3.443  19.722  0.00  0.00    +0.000 A 
ATOM     13  C   UNL     1       2.573   4.613  19.153  0.00  0.00    +0.000 A 
ATOM     14  N   UNL     1       2.136   5.805  19.599  0.00  0.00    +0.000 NA
ENDBRANCH   2   5
BRANCH   3  15
ATOM     15  C   UNL     1       0.648   9.290  21.133  0.00  0.00    +0.000 A 
ATOM     16  C   UNL     1       0.742  10.604  20.670  0.00  0.00    +0.000 A 
ATOM     17  C   UNL     1       0.099  11.649  21.343  0.00  0.00    +0.000 A 
ATOM     18  C   UNL     1      -0.688  11.380  22.461  0.00  0.00    +0.000 A 
ATOM     19  C   UNL     1      -0.773  10.072  22.941  0.00  0.00    +0.000 A 
ATOM     20  C   UNL     1      -0.122   9.030  22.272  0.00  0.00    +0.000 A 
BRANCH  18  21
ATOM     21  O   UNL     1      -1.349  12.340  23.191  0.00  0.00    +0.000 OA
BRANCH  21  22
ATOM     22  C   UNL     1      -2.707  12.506  23.039  0.00  0.00    +0.000 A 
ATOM     23  C   UNL     1      -3.356  12.646  21.814  0.00  0.00    +0.000 A 
ATOM     24  C   UNL     1      -4.730  12.807  21.821  0.00  0.00    +0.000 A 
ATOM     25  N   UNL     1      -5.484  12.789  22.942  0.00  0.00    +0.000 NA
ATOM     26  C   UNL     1      -4.831  12.603  24.109  0.00  0.00    +0.000 A 
ATOM     27  C   UNL     1      -3.459  12.459  24.209  0.00  0.00    +0.000 A 
ENDBRANCH  21  22
ENDBRANCH  18  21
ENDBRANCH   3  15
TORSDOF 4
ENDMDL
MODEL 7
REMARK VINA RESULT:      -8.2      7.481     10.341
REMARK  Name = 
REMARK  4 active torsions:
REMARK  status: ('A' for Active; 'I' for Inactive)
REMARK    1  A    between atoms: C_2  and  C_17
REMARK    2  A    between atoms: N_3  and  C_4
REMARK    3  A    between atoms: C_7  and  O_8
REMARK    4  A    between atoms: O_8  and  C_9
REMARK                            x       y       z     vdW  Elec       q    Type
REMARK                         _______ _______ _______ _____ _____    ______ ____
ROOT
ATOM      1  O   UNL     1       1.285   9.353  18.419  0.00  0.00    +0.000 OA
ATOM      2  C   UNL     1       1.630   8.565  19.292  0.00  0.00    +0.000 C 
ATOM      3  N   UNL     1       1.339   8.643  20.643  0.00  0.00    +0.000 N 
ATOM      4  H   UNL     1       1.773   7.925  21.216  0.00  0.00    +0.000 HD
ENDROOT
BRANCH   2   5
ATOM      5  C   UNL     1       2.475   7.390  18.922  0.00  0.00    +0.000 A 
ATOM      6  C   UNL     1       2.525   6.303  19.785  0.00  0.00    +0.000 A 
ATOM      7  C   UNL     1       3.413   5.287  19.489  0.00  0.00    +0.000 A 
ATOM      8  C   UNL     1       4.257   5.406  18.381  0.00  0.00    +0.000 A 
ATOM      9  C   UNL     1       5.275   4.469  18.147  0.00  0.00    +0.000 A 
ATOM     10  C   UNL     1       6.153   4.640  17.082  0.00  0.00    +0.000 A 
ATOM     11  C   UNL     1       5.978   5.711  16.213  0.00  0.00    +0.000 A 
ATOM     12  C   UNL     1       4.943   6.628  16.430  0.00  0.00    +0.000 A 
ATOM     13  C   UNL     1       4.095   6.522  17.526  0.00  0.00    +0.000 A 
ATOM     14  N   UNL     1       3.191   7.490  17.766  0.00  0.00    +0.000 NA
ENDBRANCH   2   5
BRANCH   3  15
ATOM     15  C   UNL     1       0.595   9.651  21.283  0.00  0.00    +0.000 A 
ATOM     16  C   UNL     1       0.619  10.990  20.887  0.00  0.00    +0.000 A 
ATOM     17  C   UNL     1      -0.111  11.957  21.586  0.00  0.00    +0.000 A 
ATOM     18  C   UNL     1      -0.915  11.583  22.661  0.00  0.00    +0.000 A 
ATOM     19  C   UNL     1      -0.932  10.250  23.075  0.00  0.00    +0.000 A 
ATOM     20  C   UNL     1      -0.193   9.286  22.380  0.00  0.00    +0.000 A 
BRANCH  18  21
ATOM     21  O   UNL     1      -1.660  12.462  23.413  0.00  0.00    +0.000 OA
BRANCH  21  22
ATOM     22  C   UNL     1      -3.016  12.568  23.203  0.00  0.00    +0.000 A 
ATOM     23  C   UNL     1      -3.621  12.651  21.950  0.00  0.00    +0.000 A 
ATOM     24  C   UNL     1      -5.000  12.755  21.899  0.00  0.00    +0.000 A 
ATOM     25  N   UNL     1      -5.797  12.734  22.989  0.00  0.00    +0.000 NA
ATOM     26  C   UNL     1      -5.184  12.603  24.186  0.00  0.00    +0.000 A 
ATOM     27  C   UNL     1      -3.812  12.518  24.344  0.00  0.00    +0.000 A 
ENDBRANCH  21  22
ENDBRANCH  18  21
ENDBRANCH   3  15
TORSDOF 4
ENDMDL
MODEL 8
REMARK VINA RESULT:      -8.2      5.865      8.290
REMARK  Name = 
REMARK  4 active torsions:
REMARK  status: ('A' for Active; 'I' for Inactive)
REMARK    1  A    between atoms: C_2  and  C_17
REMARK    2  A    between atoms: N_3  and  C_4
REMARK    3  A    between atoms: C_7  and  O_8
REMARK    4  A    between atoms: O_8  and  C_9
REMARK                            x       y       z     vdW  Elec       q    Type
REMARK                         _______ _______ _______ _____ _____    ______ ____
ROOT
ATOM      1  O   UNL     1       2.377   9.141  17.027  0.00  0.00    +0.000 OA
ATOM      2  C   UNL     1       2.047   8.622  18.087  0.00  0.00    +0.000 C 
ATOM      3  N   UNL     1       2.469   7.398  18.578  0.00  0.00    +0.000 N 
ATOM      4  H   UNL     1       2.030   7.113  19.449  0.00  0.00    +0.000 HD
ENDROOT
BRANCH   2   5
ATOM      5  C   UNL     1       1.071   9.325  18.972  0.00  0.00    +0.000 A 
ATOM      6  C   UNL     1       0.426  10.456  18.491  0.00  0.00    +0.000 A 
ATOM      7  C   UNL     1      -0.370  11.167  19.369  0.00  0.00    +0.000 A 
ATOM      8  C   UNL     1      -0.458  10.762  20.705  0.00  0.00    +0.000 A 
ATOM      9  C   UNL     1      -1.127  11.551  21.653  0.00  0.00    +0.000 A 
ATOM     10  C   UNL     1      -1.145  11.173  22.991  0.00  0.00    +0.000 A 
ATOM     11  C   UNL     1      -0.548   9.977  23.375  0.00  0.00    +0.000 A 
ATOM     12  C   UNL     1       0.093   9.177  22.423  0.00  0.00    +0.000 A 
ATOM     13  C   UNL     1       0.187   9.564  21.092  0.00  0.00    +0.000 A 
ATOM     14  N   UNL     1       0.916   8.827  20.232  0.00  0.00    +0.000 NA
ENDBRANCH   2   5
BRANCH   3  15
ATOM     15  C   UNL     1       3.355   6.504  17.951  0.00  0.00    +0.000 A 
ATOM     16  C   UNL     1       3.074   5.149  17.767  0.00  0.00    +0.000 A 
ATOM     17  C   UNL     1       4.011   4.298  17.171  0.00  0.00    +0.000 A 
ATOM     18  C   UNL     1       5.221   4.807  16.705  0.00  0.00    +0.000 A 
ATOM     19  C   UNL     1       5.518   6.157  16.900  0.00  0.00    +0.000 A 
ATOM     20  C   UNL     1       4.583   7.005  17.505  0.00  0.00    +0.000 A 
BRANCH  18  21
ATOM     21  O   UNL     1       6.204   4.048  16.116  0.00  0.00    +0.000 OA
BRANCH  21  22
ATOM     22  C   UNL     1       6.508   4.229  14.786  0.00  0.00    +0.000 A 
ATOM     23  C   UNL     1       7.483   5.101  14.306  0.00  0.00    +0.000 A 
ATOM     24  C   UNL     1       7.674   5.175  12.938  0.00  0.00    +0.000 A 
ATOM     25  N   UNL     1       7.003   4.418  12.043  0.00  0.00    +0.000 NA
ATOM     26  C   UNL     1       6.100   3.546  12.541  0.00  0.00    +0.000 A 
ATOM     27  C   UNL     1       5.818   3.417  13.890  0.00  0.00    +0.000 A 
ENDBRANCH  21  22
ENDBRANCH  18  21
ENDBRANCH   3  15
TORSDOF 4
ENDMDL
MODEL 9
REMARK VINA RESULT:      -8.2      7.838     10.997
REMARK  Name = 
REMARK  4 active torsions:
REMARK  status: ('A' for Active; 'I' for Inactive)
REMARK    1  A    between atoms: C_2  and  C_17
REMARK    2  A    between atoms: N_3  and  C_4
REMARK    3  A    between atoms: C_7  and  O_8
REMARK    4  A    between atoms: O_8  and  C_9
REMARK                            x       y       z     vdW  Elec       q    Type
REMARK                         _______ _______ _______ _____ _____    ______ ____
ROOT
ATOM      1  O   UNL     1       0.640   9.558  18.524  0.00  0.00    +0.000 OA
ATOM      2  C   UNL     1       1.269   8.975  19.400  0.00  0.00    +0.000 C 
ATOM      3  N   UNL     1       1.205   9.211  20.763  0.00  0.00    +0.000 N 
ATOM      4  H   UNL     1       1.855   8.665  21.321  0.00  0.00    +0.000 HD
ENDROOT
BRANCH   2   5
ATOM      5  C   UNL     1       2.237   7.905  19.015  0.00  0.00    +0.000 A 
ATOM      6  C   UNL     1       2.987   8.067  17.857  0.00  0.00    +0.000 A 
ATOM      7  C   UNL     1       3.777   7.009  17.449  0.00  0.00    +0.000 A 
ATOM      8  C   UNL     1       3.758   5.812  18.172  0.00  0.00    +0.000 A 
ATOM      9  C   UNL     1       4.424   4.673  17.694  0.00  0.00    +0.000 A 
ATOM     10  C   UNL     1       4.336   3.470  18.386  0.00  0.00    +0.000 A 
ATOM     11  C   UNL     1       3.635   3.416  19.586  0.00  0.00    +0.000 A 
ATOM     12  C   UNL     1       2.997   4.562  20.075  0.00  0.00    +0.000 A 
ATOM     13  C   UNL     1       3.009   5.759  19.371  0.00  0.00    +0.000 A 
ATOM     14  N   UNL     1       2.283   6.802  19.815  0.00  0.00    +0.000 NA
ENDBRANCH   2   5
BRANCH   3  15
ATOM     15  C   UNL     1       0.412  10.174  21.410  0.00  0.00    +0.000 A 
ATOM     16  C   UNL     1       0.436  11.532  21.084  0.00  0.00    +0.000 A 
ATOM     17  C   UNL     1      -0.346  12.452  21.790  0.00  0.00    +0.000 A 
ATOM     18  C   UNL     1      -1.201  12.013  22.799  0.00  0.00    +0.000 A 
ATOM     19  C   UNL     1      -1.219  10.661  23.144  0.00  0.00    +0.000 A 
ATOM     20  C   UNL     1      -0.428   9.743  22.442  0.00  0.00    +0.000 A 
BRANCH  18  21
ATOM     21  O   UNL     1      -2.000  12.842  23.552  0.00  0.00    +0.000 OA
BRANCH  21  22
ATOM     22  C   UNL     1      -3.368  12.798  23.406  0.00  0.00    +0.000 A 
ATOM     23  C   UNL     1      -4.041  12.929  22.193  0.00  0.00    +0.000 A 
ATOM     24  C   UNL     1      -5.423  12.864  22.206  0.00  0.00    +0.000 A 
ATOM     25  N   UNL     1      -6.155  12.634  23.317  0.00  0.00    +0.000 NA
ATOM     26  C   UNL     1      -5.472  12.463  24.469  0.00  0.00    +0.000 A 
ATOM     27  C   UNL     1      -4.093  12.535  24.565  0.00  0.00    +0.000 A 
ENDBRANCH  21  22
ENDBRANCH  18  21
ENDBRANCH   3  15
TORSDOF 4
ENDMDL
