MODEL 1
REMARK VINA RESULT:      -9.7      0.000      0.000
REMARK  Name = 
REMARK  6 active torsions:
REMARK  status: ('A' for Active; 'I' for Inactive)
REMARK    1  A    between atoms: C_1  and  C_2
REMARK    2  A    between atoms: C_7  and  C_8
REMARK    3  A    between atoms: C_8  and  C_9
REMARK    4  A    between atoms: N_13  and  C_14
REMARK    5  A    between atoms: C_14  and  C_15
REMARK    6  A    between atoms: C_18  and  C_19
REMARK                            x       y       z     vdW  Elec       q    Type
REMARK                         _______ _______ _______ _____ _____    ______ ____
ROOT
ATOM      1  C   UNL     1       4.152   5.329  17.796  0.00  0.00    +0.000 C 
ATOM      2  C   UNL     1       3.726   6.807  17.630  0.00  0.00    +0.000 C 
ATOM      3  N   UNL     1       4.777   4.909  16.555  0.00  0.00    +0.000 N 
ATOM      4  C   UNL     1       6.132   5.171  16.571  0.00  0.00    +0.000 C 
ATOM      5  O   UNL     1       6.847   5.147  15.583  0.00  0.00    +0.000 OA
ATOM      6  N   UNL     1       6.502   5.446  17.851  0.00  0.00    +0.000 N 
ATOM      7  C   UNL     1       5.412   5.389  18.684  0.00  0.00    +0.000 C 
ATOM      8  O   UNL     1       5.443   5.486  19.904  0.00  0.00    +0.000 OA
ATOM      9  H   UNL     1       4.288   4.802  15.677  0.00  0.00    +0.000 HD
ENDROOT
BRANCH   1  16
ATOM     10  C   UNL     1       2.120   5.985  20.062  0.00  0.00    +0.000 C 
ATOM     11  C   UNL     1       2.114   4.689  19.296  0.00  0.00    +0.000 A 
ATOM     12  C   UNL     1       1.119   3.748  19.650  0.00  0.00    +0.000 A 
ATOM     13  C   UNL     1       1.019   2.514  19.013  0.00  0.00    +0.000 A 
ATOM     14  C   UNL     1       1.917   2.195  18.012  0.00  0.00    +0.000 A 
ATOM     15  C   UNL     1       2.905   3.113  17.647  0.00  0.00    +0.000 A 
ATOM     16  C   UNL     1       3.039   4.382  18.265  0.00  0.00    +0.000 A 
ENDBRANCH   1  16
BRANCH   6  17
ATOM     17  C   UNL     1       7.814   5.919  18.249  0.00  0.00    +0.000 C 
BRANCH  17  18
ATOM     18  C   UNL     1       7.886   7.408  18.061  0.00  0.00    +0.000 A 
ATOM     19  N   UNL     1       7.241   8.165  17.190  0.00  0.00    +0.000 NA
ATOM     20  C   UNL     1       7.685   9.430  17.457  0.00  0.00    +0.000 A 
ATOM     21  C   UNL     1       8.592   9.421  18.497  0.00  0.00    +0.000 A 
ATOM     22  O   UNL     1       8.717   8.110  18.901  0.00  0.00    +0.000 OA
BRANCH  21  23
ATOM     23  C   UNL     1       9.396  10.435  19.175  0.00  0.00    +0.000 A 
ATOM     24  C   UNL     1       9.206  10.744  20.531  0.00  0.00    +0.000 A 
ATOM     25  C   UNL     1      10.017  11.691  21.173  0.00  0.00    +0.000 A 
ATOM     26  C   UNL     1      11.027  12.347  20.471  0.00  0.00    +0.000 A 
ATOM     27  C   UNL     1      11.218  12.069  19.123  0.00  0.00    +0.000 A 
ATOM     28  C   UNL     1      10.409  11.124  18.489  0.00  0.00    +0.000 A 
ATOM     29  F   UNL     1      10.634  10.891  17.187  0.00  0.00    +0.000 F 
ENDBRANCH  21  23
ENDBRANCH  17  18
ENDBRANCH   6  17
TORSDOF 4
ENDMDL
MODEL 2
REMARK VINA RESULT:      -9.4      1.160      1.207
REMARK  Name = 
REMARK  6 active torsions:
REMARK  status: ('A' for Active; 'I' for Inactive)
REMARK    1  A    between atoms: C_1  and  C_2
REMARK    2  A    between atoms: C_7  and  C_8
REMARK    3  A    between atoms: C_8  and  C_9
REMARK    4  A    between atoms: N_13  and  C_14
REMARK    5  A    between atoms: C_14  and  C_15
REMARK    6  A    between atoms: C_18  and  C_19
REMARK                            x       y       z     vdW  Elec       q    Type
REMARK                         _______ _______ _______ _____ _____    ______ ____
ROOT
ATOM      1  C   UNL     1       4.913   4.799  17.484  0.00  0.00    +0.000 C 
ATOM      2  C   UNL     1       4.631   6.024  16.582  0.00  0.00    +0.000 C 
ATOM      3  N   UNL     1       5.976   4.030  16.862  0.00  0.00    +0.000 N 
ATOM      4  C   UNL     1       7.214   4.469  17.285  0.00  0.00    +0.000 C 
ATOM      5  O   UNL     1       8.268   4.171  16.747  0.00  0.00    +0.000 OA
ATOM      6  N   UNL     1       7.040   5.260  18.378  0.00  0.00    +0.000 N 
ATOM      7  C   UNL     1       5.705   5.372  18.677  0.00  0.00    +0.000 C 
ATOM      8  O   UNL     1       5.240   5.930  19.663  0.00  0.00    +0.000 OA
ATOM      9  H   UNL     1       5.882   3.528  15.990  0.00  0.00    +0.000 HD
ENDROOT
BRANCH   1  16
ATOM     10  C   UNL     1       2.123   5.974  18.211  0.00  0.00    +0.000 C 
ATOM     11  C   UNL     1       2.410   4.496  18.161  0.00  0.00    +0.000 A 
ATOM     12  C   UNL     1       1.333   3.631  18.463  0.00  0.00    +0.000 A 
ATOM     13  C   UNL     1       1.483   2.246  18.452  0.00  0.00    +0.000 A 
ATOM     14  C   UNL     1       2.715   1.701  18.143  0.00  0.00    +0.000 A 
ATOM     15  C   UNL     1       3.789   2.540  17.840  0.00  0.00    +0.000 A 
ATOM     16  C   UNL     1       3.680   3.954  17.834  0.00  0.00    +0.000 A 
ENDBRANCH   1  16
BRANCH   6  17
ATOM     17  C   UNL     1       8.090   6.031  19.015  0.00  0.00    +0.000 C 
BRANCH  17  18
ATOM     18  C   UNL     1       8.078   7.434  18.477  0.00  0.00    +0.000 A 
ATOM     19  N   UNL     1       7.457   7.905  17.410  0.00  0.00    +0.000 NA
ATOM     20  C   UNL     1       7.793   9.230  17.388  0.00  0.00    +0.000 A 
ATOM     21  C   UNL     1       8.610   9.545  18.455  0.00  0.00    +0.000 A 
ATOM     22  O   UNL     1       8.789   8.383  19.172  0.00  0.00    +0.000 OA
BRANCH  21  23
ATOM     23  C   UNL     1       9.286  10.755  18.916  0.00  0.00    +0.000 A 
ATOM     24  C   UNL     1      10.142  10.745  20.028  0.00  0.00    +0.000 A 
ATOM     25  C   UNL     1      10.815  11.909  20.428  0.00  0.00    +0.000 A 
ATOM     26  C   UNL     1      10.641  13.102  19.727  0.00  0.00    +0.000 A 
ATOM     27  C   UNL     1       9.783  13.135  18.634  0.00  0.00    +0.000 A 
ATOM     28  C   UNL     1       9.117  11.974  18.240  0.00  0.00    +0.000 A 
ATOM     29  F   UNL     1       8.300  12.059  17.178  0.00  0.00    +0.000 F 
ENDBRANCH  21  23
ENDBRANCH  17  18
ENDBRANCH   6  17
TORSDOF 4
ENDMDL
MODEL 3
REMARK VINA RESULT:      -9.4      0.857      1.208
REMARK  Name = 
REMARK  6 active torsions:
REMARK  status: ('A' for Active; 'I' for Inactive)
REMARK    1  A    between atoms: C_1  and  C_2
REMARK    2  A    between atoms: C_7  and  C_8
REMARK    3  A    between atoms: C_8  and  C_9
REMARK    4  A    between atoms: N_13  and  C_14
REMARK    5  A    between atoms: C_14  and  C_15
REMARK    6  A    between atoms: C_18  and  C_19
REMARK                            x       y       z     vdW  Elec       q    Type
REMARK                         _______ _______ _______ _____ _____    ______ ____
ROOT
ATOM      1  C   UNL     1       4.485   4.967  17.658  0.00  0.00    +0.000 C 
ATOM      2  C   UNL     1       4.102   6.370  17.128  0.00  0.00    +0.000 C 
ATOM      3  N   UNL     1       5.348   4.345  16.672  0.00  0.00    +0.000 N 
ATOM      4  C   UNL     1       6.672   4.657  16.907  0.00  0.00    +0.000 C 
ATOM      5  O   UNL     1       7.574   4.475  16.105  0.00  0.00    +0.000 OA
ATOM      6  N   UNL     1       6.775   5.183  18.157  0.00  0.00    +0.000 N 
ATOM      7  C   UNL     1       5.538   5.243  18.751  0.00  0.00    +0.000 C 
ATOM      8  O   UNL     1       5.320   5.569  19.911  0.00  0.00    +0.000 OA
ATOM      9  H   UNL     1       5.048   4.055  15.751  0.00  0.00    +0.000 HD
ENDROOT
BRANCH   1  16
ATOM     10  C   UNL     1       4.735   2.345  19.317  0.00  0.00    +0.000 C 
ATOM     11  C   UNL     1       3.420   2.892  18.829  0.00  0.00    +0.000 A 
ATOM     12  C   UNL     1       2.262   2.151  19.163  0.00  0.00    +0.000 A 
ATOM     13  C   UNL     1       0.992   2.558  18.762  0.00  0.00    +0.000 A 
ATOM     14  C   UNL     1       0.857   3.713  18.014  0.00  0.00    +0.000 A 
ATOM     15  C   UNL     1       1.989   4.459  17.678  0.00  0.00    +0.000 A 
ATOM     16  C   UNL     1       3.299   4.084  18.069  0.00  0.00    +0.000 A 
ENDBRANCH   1  16
BRANCH   6  17
ATOM     17  C   UNL     1       7.978   5.773  18.710  0.00  0.00    +0.000 C 
BRANCH  17  18
ATOM     18  C   UNL     1       8.026   7.234  18.360  0.00  0.00    +0.000 A 
ATOM     19  N   UNL     1       7.420   7.867  17.371  0.00  0.00    +0.000 NA
ATOM     20  C   UNL     1       7.814   9.168  17.518  0.00  0.00    +0.000 A 
ATOM     21  C   UNL     1       8.652   9.304  18.607  0.00  0.00    +0.000 A 
ATOM     22  O   UNL     1       8.783   8.051  19.164  0.00  0.00    +0.000 OA
BRANCH  21  23
ATOM     23  C   UNL     1       9.385  10.412  19.213  0.00  0.00    +0.000 A 
ATOM     24  C   UNL     1       9.207  10.768  20.559  0.00  0.00    +0.000 A 
ATOM     25  C   UNL     1       9.952  11.809  21.133  0.00  0.00    +0.000 A 
ATOM     26  C   UNL     1      10.883  12.513  20.371  0.00  0.00    +0.000 A 
ATOM     27  C   UNL     1      11.060  12.188  19.032  0.00  0.00    +0.000 A 
ATOM     28  C   UNL     1      10.317  11.151  18.466  0.00  0.00    +0.000 A 
ATOM     29  F   UNL     1      10.526  10.875  17.169  0.00  0.00    +0.000 F 
ENDBRANCH  21  23
ENDBRANCH  17  18
ENDBRANCH   6  17
TORSDOF 4
ENDMDL
MODEL 4
REMARK VINA RESULT:      -9.4      0.937      1.303
REMARK  Name = 
REMARK  6 active torsions:
REMARK  status: ('A' for Active; 'I' for Inactive)
REMARK    1  A    between atoms: C_1  and  C_2
REMARK    2  A    between atoms: C_7  and  C_8
REMARK    3  A    between atoms: C_8  and  C_9
REMARK    4  A    between atoms: N_13  and  C_14
REMARK    5  A    between atoms: C_14  and  C_15
REMARK    6  A    between atoms: C_18  and  C_19
REMARK                            x       y       z     vdW  Elec       q    Type
REMARK                         _______ _______ _______ _____ _____    ______ ____
ROOT
ATOM      1  C   UNL     1       4.362   5.476  17.621  0.00  0.00    +0.000 C 
ATOM      2  C   UNL     1       3.885   6.939  17.462  0.00  0.00    +0.000 C 
ATOM      3  N   UNL     1       5.092   5.118  16.419  0.00  0.00    +0.000 N 
ATOM      4  C   UNL     1       6.429   5.436  16.540  0.00  0.00    +0.000 C 
ATOM      5  O   UNL     1       7.214   5.470  15.606  0.00  0.00    +0.000 OA
ATOM      6  N   UNL     1       6.695   5.689  17.850  0.00  0.00    +0.000 N 
ATOM      7  C   UNL     1       5.551   5.563  18.600  0.00  0.00    +0.000 C 
ATOM      8  O   UNL     1       5.491   5.626  19.821  0.00  0.00    +0.000 OA
ATOM      9  H   UNL     1       4.672   5.016  15.505  0.00  0.00    +0.000 HD
ENDROOT
BRANCH   1  16
ATOM     10  C   UNL     1       2.126   5.995  19.725  0.00  0.00    +0.000 C 
ATOM     11  C   UNL     1       2.242   4.715  18.941  0.00  0.00    +0.000 A 
ATOM     12  C   UNL     1       1.268   3.723  19.199  0.00  0.00    +0.000 A 
ATOM     13  C   UNL     1       1.278   2.497  18.537  0.00  0.00    +0.000 A 
ATOM     14  C   UNL     1       2.268   2.240  17.607  0.00  0.00    +0.000 A 
ATOM     15  C   UNL     1       3.237   3.208  17.338  0.00  0.00    +0.000 A 
ATOM     16  C   UNL     1       3.261   4.470  17.984  0.00  0.00    +0.000 A 
ENDBRANCH   1  16
BRANCH   6  17
ATOM     17  C   UNL     1       7.953   6.205  18.354  0.00  0.00    +0.000 C 
BRANCH  17  18
ATOM     18  C   UNL     1       8.002   7.693  18.147  0.00  0.00    +0.000 A 
ATOM     19  N   UNL     1       7.223   8.449  17.394  0.00  0.00    +0.000 NA
ATOM     20  C   UNL     1       7.714   9.713  17.572  0.00  0.00    +0.000 A 
ATOM     21  C   UNL     1       8.784   9.703  18.443  0.00  0.00    +0.000 A 
ATOM     22  O   UNL     1       8.968   8.393  18.829  0.00  0.00    +0.000 OA
BRANCH  21  23
ATOM     23  C   UNL     1       9.698  10.715  18.968  0.00  0.00    +0.000 A 
ATOM     24  C   UNL     1      10.660  11.333  18.155  0.00  0.00    +0.000 A 
ATOM     25  C   UNL     1      11.500  12.333  18.668  0.00  0.00    +0.000 A 
ATOM     26  C   UNL     1      11.395  12.727  20.001  0.00  0.00    +0.000 A 
ATOM     27  C   UNL     1      10.461  12.113  20.826  0.00  0.00    +0.000 A 
ATOM     28  C   UNL     1       9.627  11.120  20.310  0.00  0.00    +0.000 A 
ATOM     29  F   UNL     1       8.741  10.559  21.148  0.00  0.00    +0.000 F 
ENDBRANCH  21  23
ENDBRANCH  17  18
ENDBRANCH   6  17
TORSDOF 4
ENDMDL
MODEL 5
REMARK VINA RESULT:      -9.3      1.263      1.751
REMARK  Name = 
REMARK  6 active torsions:
REMARK  status: ('A' for Active; 'I' for Inactive)
REMARK    1  A    between atoms: C_1  and  C_2
REMARK    2  A    between atoms: C_7  and  C_8
REMARK    3  A    between atoms: C_8  and  C_9
REMARK    4  A    between atoms: N_13  and  C_14
REMARK    5  A    between atoms: C_14  and  C_15
REMARK    6  A    between atoms: C_18  and  C_19
REMARK                            x       y       z     vdW  Elec       q    Type
REMARK                         _______ _______ _______ _____ _____    ______ ____
ROOT
ATOM      1  C   UNL     1       4.548   4.917  17.664  0.00  0.00    +0.000 C 
ATOM      2  C   UNL     1       4.182   6.254  16.977  0.00  0.00    +0.000 C 
ATOM      3  N   UNL     1       5.481   4.219  16.798  0.00  0.00    +0.000 N 
ATOM      4  C   UNL     1       6.783   4.578  17.084  0.00  0.00    +0.000 C 
ATOM      5  O   UNL     1       7.736   4.336  16.361  0.00  0.00    +0.000 OA
ATOM      6  N   UNL     1       6.799   5.223  18.281  0.00  0.00    +0.000 N 
ATOM      7  C   UNL     1       5.526   5.316  18.788  0.00  0.00    +0.000 C 
ATOM      8  O   UNL     1       5.231   5.749  19.895  0.00  0.00    +0.000 OA
ATOM      9  H   UNL     1       5.243   3.836  15.894  0.00  0.00    +0.000 HD
ENDROOT
BRANCH   1  16
ATOM     10  C   UNL     1       4.744   2.399  19.484  0.00  0.00    +0.000 C 
ATOM     11  C   UNL     1       3.445   2.911  18.918  0.00  0.00    +0.000 A 
ATOM     12  C   UNL     1       2.278   2.187  19.254  0.00  0.00    +0.000 A 
ATOM     13  C   UNL     1       1.022   2.565  18.784  0.00  0.00    +0.000 A 
ATOM     14  C   UNL     1       0.912   3.673  17.965  0.00  0.00    +0.000 A 
ATOM     15  C   UNL     1       2.054   4.401  17.625  0.00  0.00    +0.000 A 
ATOM     16  C   UNL     1       3.350   4.055  18.085  0.00  0.00    +0.000 A 
ENDBRANCH   1  16
BRANCH   6  17
ATOM     17  C   UNL     1       7.957   5.886  18.847  0.00  0.00    +0.000 C 
BRANCH  17  18
ATOM     18  C   UNL     1       7.981   7.321  18.400  0.00  0.00    +0.000 A 
ATOM     19  N   UNL     1       7.239   7.912  17.480  0.00  0.00    +0.000 NA
ATOM     20  C   UNL     1       7.681   9.206  17.479  0.00  0.00    +0.000 A 
ATOM     21  C   UNL     1       8.685   9.381  18.409  0.00  0.00    +0.000 A 
ATOM     22  O   UNL     1       8.876   8.160  19.019  0.00  0.00    +0.000 OA
BRANCH  21  23
ATOM     23  C   UNL     1       9.532  10.499  18.818  0.00  0.00    +0.000 A 
ATOM     24  C   UNL     1      10.287  11.232  17.889  0.00  0.00    +0.000 A 
ATOM     25  C   UNL     1      11.060  12.329  18.297  0.00  0.00    +0.000 A 
ATOM     26  C   UNL     1      11.094  12.709  19.638  0.00  0.00    +0.000 A 
ATOM     27  C   UNL     1      10.368  11.984  20.575  0.00  0.00    +0.000 A 
ATOM     28  C   UNL     1       9.599  10.894  20.163  0.00  0.00    +0.000 A 
ATOM     29  F   UNL     1       8.915  10.228  21.107  0.00  0.00    +0.000 F 
ENDBRANCH  21  23
ENDBRANCH  17  18
ENDBRANCH   6  17
TORSDOF 4
ENDMDL
MODEL 6
REMARK VINA RESULT:      -8.6      0.978      1.826
REMARK  Name = 
REMARK  6 active torsions:
REMARK  status: ('A' for Active; 'I' for Inactive)
REMARK    1  A    between atoms: C_1  and  C_2
REMARK    2  A    between atoms: C_7  and  C_8
REMARK    3  A    between atoms: C_8  and  C_9
REMARK    4  A    between atoms: N_13  and  C_14
REMARK    5  A    between atoms: C_14  and  C_15
REMARK    6  A    between atoms: C_18  and  C_19
REMARK                            x       y       z     vdW  Elec       q    Type
REMARK                         _______ _______ _______ _____ _____    ______ ____
ROOT
ATOM      1  C   UNL     1       4.001   5.522  18.066  0.00  0.00    +0.000 C 
ATOM      2  C   UNL     1       3.558   7.002  18.141  0.00  0.00    +0.000 C 
ATOM      3  N   UNL     1       4.431   5.260  16.704  0.00  0.00    +0.000 N 
ATOM      4  C   UNL     1       5.774   5.540  16.549  0.00  0.00    +0.000 C 
ATOM      5  O   UNL     1       6.333   5.643  15.469  0.00  0.00    +0.000 OA
ATOM      6  N   UNL     1       6.333   5.668  17.782  0.00  0.00    +0.000 N 
ATOM      7  C   UNL     1       5.380   5.496  18.756  0.00  0.00    +0.000 C 
ATOM      8  O   UNL     1       5.594   5.449  19.961  0.00  0.00    +0.000 OA
ATOM      9  H   UNL     1       3.816   5.250  15.903  0.00  0.00    +0.000 HD
ENDROOT
BRANCH   1  16
ATOM     10  C   UNL     1       4.010   2.488  17.365  0.00  0.00    +0.000 C 
ATOM     11  C   UNL     1       2.981   3.127  18.260  0.00  0.00    +0.000 A 
ATOM     12  C   UNL     1       1.987   2.274  18.792  0.00  0.00    +0.000 A 
ATOM     13  C   UNL     1       0.982   2.754  19.629  0.00  0.00    +0.000 A 
ATOM     14  C   UNL     1       0.950   4.099  19.945  0.00  0.00    +0.000 A 
ATOM     15  C   UNL     1       1.925   4.956  19.430  0.00  0.00    +0.000 A 
ATOM     16  C   UNL     1       2.969   4.509  18.580  0.00  0.00    +0.000 A 
ENDBRANCH   1  16
BRANCH   6  17
ATOM     17  C   UNL     1       7.690   6.111  18.032  0.00  0.00    +0.000 C 
BRANCH  17  18
ATOM     18  C   UNL     1       7.757   7.608  17.921  0.00  0.00    +0.000 A 
ATOM     19  N   UNL     1       6.944   8.426  17.274  0.00  0.00    +0.000 NA
ATOM     20  C   UNL     1       7.472   9.666  17.500  0.00  0.00    +0.000 A 
ATOM     21  C   UNL     1       8.599   9.581  18.293  0.00  0.00    +0.000 A 
ATOM     22  O   UNL     1       8.781   8.245  18.578  0.00  0.00    +0.000 OA
BRANCH  21  23
ATOM     23  C   UNL     1       9.567  10.540  18.818  0.00  0.00    +0.000 A 
ATOM     24  C   UNL     1      10.477  11.204  17.981  0.00  0.00    +0.000 A 
ATOM     25  C   UNL     1      11.371  12.153  18.499  0.00  0.00    +0.000 A 
ATOM     26  C   UNL     1      11.373  12.451  19.861  0.00  0.00    +0.000 A 
ATOM     27  C   UNL     1      10.492  11.790  20.708  0.00  0.00    +0.000 A 
ATOM     28  C   UNL     1       9.604  10.847  20.187  0.00  0.00    +0.000 A 
ATOM     29  F   UNL     1       8.773  10.238  21.047  0.00  0.00    +0.000 F 
ENDBRANCH  21  23
ENDBRANCH  17  18
ENDBRANCH   6  17
TORSDOF 4
ENDMDL
MODEL 7
REMARK VINA RESULT:      -8.4      1.771      2.459
REMARK  Name = 
REMARK  6 active torsions:
REMARK  status: ('A' for Active; 'I' for Inactive)
REMARK    1  A    between atoms: C_1  and  C_2
REMARK    2  A    between atoms: C_7  and  C_8
REMARK    3  A    between atoms: C_8  and  C_9
REMARK    4  A    between atoms: N_13  and  C_14
REMARK    5  A    between atoms: C_14  and  C_15
REMARK    6  A    between atoms: C_18  and  C_19
REMARK                            x       y       z     vdW  Elec       q    Type
REMARK                         _______ _______ _______ _____ _____    ______ ____
ROOT
ATOM      1  C   UNL     1       4.660   4.416  17.866  0.00  0.00    +0.000 C 
ATOM      2  C   UNL     1       4.369   3.707  16.522  0.00  0.00    +0.000 C 
ATOM      3  N   UNL     1       5.938   3.929  18.353  0.00  0.00    +0.000 N 
ATOM      4  C   UNL     1       6.976   4.696  17.866  0.00  0.00    +0.000 C 
ATOM      5  O   UNL     1       8.152   4.371  17.914  0.00  0.00    +0.000 OA
ATOM      6  N   UNL     1       6.459   5.843  17.348  0.00  0.00    +0.000 N 
ATOM      7  C   UNL     1       5.091   5.842  17.464  0.00  0.00    +0.000 C 
ATOM      8  O   UNL     1       4.352   6.778  17.185  0.00  0.00    +0.000 OA
ATOM      9  H   UNL     1       6.106   2.984  18.669  0.00  0.00    +0.000 HD
ENDROOT
BRANCH   1  16
ATOM     10  C   UNL     1       3.213   1.774  18.651  0.00  0.00    +0.000 C 
ATOM     11  C   UNL     1       2.884   3.110  19.264  0.00  0.00    +0.000 A 
ATOM     12  C   UNL     1       1.864   3.124  20.243  0.00  0.00    +0.000 A 
ATOM     13  C   UNL     1       1.473   4.302  20.874  0.00  0.00    +0.000 A 
ATOM     14  C   UNL     1       2.093   5.490  20.534  0.00  0.00    +0.000 A 
ATOM     15  C   UNL     1       3.104   5.494  19.571  0.00  0.00    +0.000 A 
ATOM     16  C   UNL     1       3.537   4.318  18.908  0.00  0.00    +0.000 A 
ENDBRANCH   1  16
BRANCH   6  17
ATOM     17  C   UNL     1       7.218   6.831  16.607  0.00  0.00    +0.000 C 
BRANCH  17  18
ATOM     18  C   UNL     1       7.868   7.786  17.567  0.00  0.00    +0.000 A 
ATOM     19  N   UNL     1       8.340   7.548  18.778  0.00  0.00    +0.000 NA
ATOM     20  C   UNL     1       8.809   8.762  19.197  0.00  0.00    +0.000 A 
ATOM     21  C   UNL     1       8.620   9.721  18.223  0.00  0.00    +0.000 A 
ATOM     22  O   UNL     1       8.019   9.089  17.157  0.00  0.00    +0.000 OA
BRANCH  21  23
ATOM     23  C   UNL     1       8.883  11.155  18.121  0.00  0.00    +0.000 A 
ATOM     24  C   UNL     1       7.947  12.039  17.563  0.00  0.00    +0.000 A 
ATOM     25  C   UNL     1       8.201  13.418  17.513  0.00  0.00    +0.000 A 
ATOM     26  C   UNL     1       9.394  13.934  18.015  0.00  0.00    +0.000 A 
ATOM     27  C   UNL     1      10.341  13.072  18.554  0.00  0.00    +0.000 A 
ATOM     28  C   UNL     1      10.083  11.701  18.602  0.00  0.00    +0.000 A 
ATOM     29  F   UNL     1      11.029  10.911  19.134  0.00  0.00    +0.000 F 
ENDBRANCH  21  23
ENDBRANCH  17  18
ENDBRANCH   6  17
TORSDOF 4
ENDMDL
MODEL 8
REMARK VINA RESULT:      -8.4      4.590      6.795
REMARK  Name = 
REMARK  6 active torsions:
REMARK  status: ('A' for Active; 'I' for Inactive)
REMARK    1  A    between atoms: C_1  and  C_2
REMARK    2  A    between atoms: C_7  and  C_8
REMARK    3  A    between atoms: C_8  and  C_9
REMARK    4  A    between atoms: N_13  and  C_14
REMARK    5  A    between atoms: C_14  and  C_15
REMARK    6  A    between atoms: C_18  and  C_19
REMARK                            x       y       z     vdW  Elec       q    Type
REMARK                         _______ _______ _______ _____ _____    ______ ____
ROOT
ATOM      1  C   UNL     1       6.022   5.103  15.735  0.00  0.00    +0.000 C 
ATOM      2  C   UNL     1       5.315   6.474  15.853  0.00  0.00    +0.000 C 
ATOM      3  N   UNL     1       7.297   5.204  16.422  0.00  0.00    +0.000 N 
ATOM      4  C   UNL     1       7.165   4.880  17.757  0.00  0.00    +0.000 C 
ATOM      5  O   UNL     1       8.008   5.114  18.607  0.00  0.00    +0.000 OA
ATOM      6  N   UNL     1       5.962   4.270  17.935  0.00  0.00    +0.000 N 
ATOM      7  C   UNL     1       5.283   4.199  16.744  0.00  0.00    +0.000 C 
ATOM      8  O   UNL     1       4.223   3.615  16.562  0.00  0.00    +0.000 OA
ATOM      9  H   UNL     1       8.070   5.774  16.109  0.00  0.00    +0.000 HD
ENDROOT
BRANCH   1  16
ATOM     10  C   UNL     1       8.397   5.717  13.817  0.00  0.00    +0.000 C 
ATOM     11  C   UNL     1       7.233   4.839  13.437  0.00  0.00    +0.000 A 
ATOM     12  C   UNL     1       7.257   4.282  12.138  0.00  0.00    +0.000 A 
ATOM     13  C   UNL     1       6.233   3.458  11.676  0.00  0.00    +0.000 A 
ATOM     14  C   UNL     1       5.163   3.180  12.506  0.00  0.00    +0.000 A 
ATOM     15  C   UNL     1       5.124   3.720  13.793  0.00  0.00    +0.000 A 
ATOM     16  C   UNL     1       6.147   4.559  14.305  0.00  0.00    +0.000 A 
ENDBRANCH   1  16
BRANCH   6  17
ATOM     17  C   UNL     1       5.395   3.920  19.223  0.00  0.00    +0.000 C 
BRANCH  17  18
ATOM     18  C   UNL     1       4.032   4.540  19.355  0.00  0.00    +0.000 A 
ATOM     19  N   UNL     1       2.881   3.953  19.628  0.00  0.00    +0.000 NA
ATOM     20  C   UNL     1       1.976   4.977  19.620  0.00  0.00    +0.000 A 
ATOM     21  C   UNL     1       2.599   6.178  19.349  0.00  0.00    +0.000 A 
ATOM     22  O   UNL     1       3.939   5.900  19.187  0.00  0.00    +0.000 OA
BRANCH  21  23
ATOM     23  C   UNL     1       2.153   7.560  19.185  0.00  0.00    +0.000 A 
ATOM     24  C   UNL     1       2.334   8.256  17.980  0.00  0.00    +0.000 A 
ATOM     25  C   UNL     1       1.860   9.568  17.830  0.00  0.00    +0.000 A 
ATOM     26  C   UNL     1       1.203  10.206  18.881  0.00  0.00    +0.000 A 
ATOM     27  C   UNL     1       1.031   9.539  20.088  0.00  0.00    +0.000 A 
ATOM     28  C   UNL     1       1.503   8.233  20.232  0.00  0.00    +0.000 A 
ATOM     29  F   UNL     1       1.311   7.633  21.416  0.00  0.00    +0.000 F 
ENDBRANCH  21  23
ENDBRANCH  17  18
ENDBRANCH   6  17
TORSDOF 4
ENDMDL
MODEL 9
REMARK VINA RESULT:      -8.1      4.188      6.641
REMARK  Name = 
REMARK  6 active torsions:
REMARK  status: ('A' for Active; 'I' for Inactive)
REMARK    1  A    between atoms: C_1  and  C_2
REMARK    2  A    between atoms: C_7  and  C_8
REMARK    3  A    between atoms: C_8  and  C_9
REMARK    4  A    between atoms: N_13  and  C_14
REMARK    5  A    between atoms: C_14  and  C_15
REMARK    6  A    between atoms: C_18  and  C_19
REMARK                            x       y       z     vdW  Elec       q    Type
REMARK                         _______ _______ _______ _____ _____    ______ ____
ROOT
ATOM      1  C   UNL     1       6.016   5.301  15.514  0.00  0.00    +0.000 C 
ATOM      2  C   UNL     1       5.098   6.546  15.526  0.00  0.00    +0.000 C 
ATOM      3  N   UNL     1       7.265   5.669  16.156  0.00  0.00    +0.000 N 
ATOM      4  C   UNL     1       7.202   5.455  17.518  0.00  0.00    +0.000 C 
ATOM      5  O   UNL     1       8.006   5.899  18.321  0.00  0.00    +0.000 OA
ATOM      6  N   UNL     1       6.116   4.679  17.782  0.00  0.00    +0.000 N 
ATOM      7  C   UNL     1       5.444   4.389  16.620  0.00  0.00    +0.000 C 
ATOM      8  O   UNL     1       4.491   3.628  16.519  0.00  0.00    +0.000 OA
ATOM      9  H   UNL     1       7.933   6.323  15.772  0.00  0.00    +0.000 HD
ENDROOT
BRANCH   1  16
ATOM     10  C   UNL     1       8.418   5.878  13.619  0.00  0.00    +0.000 C 
ATOM     11  C   UNL     1       7.310   4.916  13.280  0.00  0.00    +0.000 A 
ATOM     12  C   UNL     1       7.401   4.259  12.031  0.00  0.00    +0.000 A 
ATOM     13  C   UNL     1       6.432   3.352  11.609  0.00  0.00    +0.000 A 
ATOM     14  C   UNL     1       5.351   3.088  12.428  0.00  0.00    +0.000 A 
ATOM     15  C   UNL     1       5.245   3.726  13.666  0.00  0.00    +0.000 A 
ATOM     16  C   UNL     1       6.211   4.652  14.137  0.00  0.00    +0.000 A 
ENDBRANCH   1  16
BRANCH   6  17
ATOM     17  C   UNL     1       5.627   4.366  19.110  0.00  0.00    +0.000 C 
BRANCH  17  18
ATOM     18  C   UNL     1       4.207   4.837  19.246  0.00  0.00    +0.000 A 
ATOM     19  N   UNL     1       3.107   4.118  19.381  0.00  0.00    +0.000 NA
ATOM     20  C   UNL     1       2.108   5.050  19.453  0.00  0.00    +0.000 A 
ATOM     21  C   UNL     1       2.624   6.327  19.369  0.00  0.00    +0.000 A 
ATOM     22  O   UNL     1       3.990   6.194  19.245  0.00  0.00    +0.000 OA
BRANCH  21  23
ATOM     23  C   UNL     1       2.055   7.672  19.355  0.00  0.00    +0.000 A 
ATOM     24  C   UNL     1       1.415   8.215  20.481  0.00  0.00    +0.000 A 
ATOM     25  C   UNL     1       0.912   9.524  20.461  0.00  0.00    +0.000 A 
ATOM     26  C   UNL     1       1.036  10.310  19.316  0.00  0.00    +0.000 A 
ATOM     27  C   UNL     1       1.649   9.784  18.186  0.00  0.00    +0.000 A 
ATOM     28  C   UNL     1       2.149   8.481  18.212  0.00  0.00    +0.000 A 
ATOM     29  F   UNL     1       2.733   8.020  17.095  0.00  0.00    +0.000 F 
ENDBRANCH  21  23
ENDBRANCH  17  18
ENDBRANCH   6  17
TORSDOF 4
ENDMDL
