MODEL 1
REMARK VINA RESULT:      -8.7      0.000      0.000
REMARK  Name = 
REMARK  4 active torsions:
REMARK  status: ('A' for Active; 'I' for Inactive)
REMARK    1  A    between atoms: C_8  and  S_9
REMARK    2  A    between atoms: S_9  and  N_12
REMARK    3  A    between atoms: N_12  and  C_13
REMARK    4  A    between atoms: C_13  and  C_14
REMARK                            x       y       z     vdW  Elec       q    Type
REMARK                         _______ _______ _______ _____ _____    ______ ____
ROOT
ATOM      1  S   UNL     1       3.034   5.319  18.815  0.00  0.00    +0.000 S 
ATOM      2  O   UNL     1       3.011   4.592  20.063  0.00  0.00    +0.000 OA
ATOM      3  O   UNL     1       2.368   4.832  17.627  0.00  0.00    +0.000 OA
ENDROOT
BRANCH   1  11
ATOM      4  O   UNL     1      -0.155  10.488  23.141  0.00  0.00    +0.000 OA
ATOM      5  C   UNL     1       0.321  10.177  22.048  0.00  0.00    +0.000 C 
ATOM      6  C   UNL     1       0.470  11.169  20.892  0.00  0.00    +0.000 C 
ATOM      7  O   UNL     1       0.624  10.677  19.568  0.00  0.00    +0.000 OA
ATOM      8  C   UNL     1       1.219   9.449  19.485  0.00  0.00    +0.000 A 
ATOM      9  C   UNL     1       1.655   9.067  18.214  0.00  0.00    +0.000 A 
ATOM     10  C   UNL     1       2.234   7.810  18.028  0.00  0.00    +0.000 A 
ATOM     11  C   UNL     1       2.376   6.944  19.117  0.00  0.00    +0.000 A 
ATOM     12  C   UNL     1       1.921   7.307  20.390  0.00  0.00    +0.000 A 
ATOM     13  C   UNL     1       1.339   8.567  20.565  0.00  0.00    +0.000 A 
ATOM     14  N   UNL     1       0.831   8.935  21.815  0.00  0.00    +0.000 N 
ATOM     15  H   UNL     1       0.804   8.276  22.583  0.00  0.00    +0.000 HD
ENDBRANCH   1  11
BRANCH   1  16
ATOM     16  N   UNL     1       4.654   5.611  18.397  0.00  0.00    +0.000 NA
ATOM     17  H   UNL     1       5.300   5.078  18.981  0.00  0.00    +0.000 HD
BRANCH  16  18
ATOM     18  C   UNL     1       4.983   5.498  16.958  0.00  0.00    +0.000 C 
BRANCH  18  19
ATOM     19  C   UNL     1       5.785   4.208  16.670  0.00  0.00    +0.000 C 
ATOM     20  C   UNL     1       7.279   4.525  16.662  0.00  0.00    +0.000 C 
ATOM     21  O   UNL     1       7.533   5.512  15.649  0.00  0.00    +0.000 OA
ATOM     22  C   UNL     1       7.120   5.006  14.441  0.00  0.00    +0.000 A 
ATOM     23  C   UNL     1       7.738   5.501  13.297  0.00  0.00    +0.000 A 
ATOM     24  C   UNL     1       7.524   4.862  12.076  0.00  0.00    +0.000 A 
ATOM     25  C   UNL     1       6.691   3.743  12.010  0.00  0.00    +0.000 A 
ATOM     26  C   UNL     1       5.985   3.324  13.141  0.00  0.00    +0.000 A 
ATOM     27  C   UNL     1       6.164   3.987  14.351  0.00  0.00    +0.000 A 
ATOM     28  O   UNL     1       5.399   3.591  15.420  0.00  0.00    +0.000 OA
ENDBRANCH  18  19
ENDBRANCH  16  18
ENDBRANCH   1  16
TORSDOF 4
ENDMDL
MODEL 2
REMARK VINA RESULT:      -8.3      1.809      2.859
REMARK  Name = 
REMARK  4 active torsions:
REMARK  status: ('A' for Active; 'I' for Inactive)
REMARK    1  A    between atoms: C_8  and  S_9
REMARK    2  A    between atoms: S_9  and  N_12
REMARK    3  A    between atoms: N_12  and  C_13
REMARK    4  A    between atoms: C_13  and  C_14
REMARK                            x       y       z     vdW  Elec       q    Type
REMARK                         _______ _______ _______ _____ _____    ______ ____
ROOT
ATOM      1  S   UNL     1       2.887   4.880  19.152  0.00  0.00    +0.000 S 
ATOM      2  O   UNL     1       4.226   4.764  19.682  0.00  0.00    +0.000 OA
ATOM      3  O   UNL     1       1.791   4.074  19.641  0.00  0.00    +0.000 OA
ENDROOT
BRANCH   1  11
ATOM      4  O   UNL     1      -0.073  10.538  23.002  0.00  0.00    +0.000 OA
ATOM      5  C   UNL     1       0.445  10.129  21.962  0.00  0.00    +0.000 C 
ATOM      6  C   UNL     1       0.770  11.044  20.779  0.00  0.00    +0.000 C 
ATOM      7  O   UNL     1       0.967  10.473  19.492  0.00  0.00    +0.000 OA
ATOM      8  C   UNL     1       1.443   9.191  19.507  0.00  0.00    +0.000 A 
ATOM      9  C   UNL     1       1.927   8.707  18.290  0.00  0.00    +0.000 A 
ATOM     10  C   UNL     1       2.392   7.392  18.201  0.00  0.00    +0.000 A 
ATOM     11  C   UNL     1       2.372   6.574  19.334  0.00  0.00    +0.000 A 
ATOM     12  C   UNL     1       1.867   7.041  20.553  0.00  0.00    +0.000 A 
ATOM     13  C   UNL     1       1.401   8.358  20.630  0.00  0.00    +0.000 A 
ATOM     14  N   UNL     1       0.845   8.834  21.822  0.00  0.00    +0.000 N 
ATOM     15  H   UNL     1       0.701   8.220  22.614  0.00  0.00    +0.000 HD
ENDBRANCH   1  11
BRANCH   1  16
ATOM     16  N   UNL     1       2.959   4.659  17.470  0.00  0.00    +0.000 NA
ATOM     17  H   UNL     1       2.924   5.547  16.967  0.00  0.00    +0.000 HD
BRANCH  16  18
ATOM     18  C   UNL     1       4.045   3.783  16.976  0.00  0.00    +0.000 C 
BRANCH  18  19
ATOM     19  C   UNL     1       4.897   4.502  15.905  0.00  0.00    +0.000 C 
ATOM     20  C   UNL     1       6.298   3.895  15.875  0.00  0.00    +0.000 C 
ATOM     21  O   UNL     1       6.892   4.046  17.175  0.00  0.00    +0.000 OA
ATOM     22  C   UNL     1       6.931   5.385  17.479  0.00  0.00    +0.000 A 
ATOM     23  C   UNL     1       7.911   5.809  18.370  0.00  0.00    +0.000 A 
ATOM     24  C   UNL     1       8.141   7.174  18.531  0.00  0.00    +0.000 A 
ATOM     25  C   UNL     1       7.385   8.100  17.808  0.00  0.00    +0.000 A 
ATOM     26  C   UNL     1       6.326   7.668  17.004  0.00  0.00    +0.000 A 
ATOM     27  C   UNL     1       6.068   6.308  16.875  0.00  0.00    +0.000 A 
ATOM     28  O   UNL     1       4.976   5.928  16.134  0.00  0.00    +0.000 OA
ENDBRANCH  18  19
ENDBRANCH  16  18
ENDBRANCH   1  16
TORSDOF 4
ENDMDL
MODEL 3
REMARK VINA RESULT:      -8.2      1.144      1.854
REMARK  Name = 
REMARK  4 active torsions:
REMARK  status: ('A' for Active; 'I' for Inactive)
REMARK    1  A    between atoms: C_8  and  S_9
REMARK    2  A    between atoms: S_9  and  N_12
REMARK    3  A    between atoms: N_12  and  C_13
REMARK    4  A    between atoms: C_13  and  C_14
REMARK                            x       y       z     vdW  Elec       q    Type
REMARK                         _______ _______ _______ _____ _____    ______ ____
ROOT
ATOM      1  S   UNL     1       3.210   5.695  18.697  0.00  0.00    +0.000 S 
ATOM      2  O   UNL     1       3.610   4.902  19.837  0.00  0.00    +0.000 OA
ATOM      3  O   UNL     1       2.443   5.143  17.603  0.00  0.00    +0.000 OA
ENDROOT
BRANCH   1  11
ATOM      4  O   UNL     1       0.602  12.662  18.177  0.00  0.00    +0.000 OA
ATOM      5  C   UNL     1       0.663  11.604  18.806  0.00  0.00    +0.000 C 
ATOM      6  C   UNL     1      -0.116  11.360  20.101  0.00  0.00    +0.000 C 
ATOM      7  O   UNL     1       0.302  10.323  20.979  0.00  0.00    +0.000 OA
ATOM      8  C   UNL     1       0.935   9.280  20.364  0.00  0.00    +0.000 A 
ATOM      9  C   UNL     1       1.092   8.124  21.132  0.00  0.00    +0.000 A 
ATOM     10  C   UNL     1       1.767   7.023  20.600  0.00  0.00    +0.000 A 
ATOM     11  C   UNL     1       2.278   7.086  19.300  0.00  0.00    +0.000 A 
ATOM     12  C   UNL     1       2.147   8.248  18.530  0.00  0.00    +0.000 A 
ATOM     13  C   UNL     1       1.472   9.346  19.074  0.00  0.00    +0.000 A 
ATOM     14  N   UNL     1       1.372  10.535  18.345  0.00  0.00    +0.000 N 
ATOM     15  H   UNL     1       1.845  10.647  17.458  0.00  0.00    +0.000 HD
ENDBRANCH   1  11
BRANCH   1  16
ATOM     16  N   UNL     1       4.601   6.403  18.026  0.00  0.00    +0.000 NA
ATOM     17  H   UNL     1       5.418   6.282  18.627  0.00  0.00    +0.000 HD
BRANCH  16  18
ATOM     18  C   UNL     1       4.890   6.054  16.617  0.00  0.00    +0.000 C 
BRANCH  18  19
ATOM     19  C   UNL     1       5.512   4.643  16.509  0.00  0.00    +0.000 C 
ATOM     20  C   UNL     1       7.035   4.752  16.533  0.00  0.00    +0.000 C 
ATOM     21  O   UNL     1       7.454   5.572  15.429  0.00  0.00    +0.000 OA
ATOM     22  C   UNL     1       7.010   4.991  14.267  0.00  0.00    +0.000 A 
ATOM     23  C   UNL     1       7.724   5.263  13.105  0.00  0.00    +0.000 A 
ATOM     24  C   UNL     1       7.460   4.523  11.954  0.00  0.00    +0.000 A 
ATOM     25  C   UNL     1       6.480   3.526  11.973  0.00  0.00    +0.000 A 
ATOM     26  C   UNL     1       5.689   3.340  13.111  0.00  0.00    +0.000 A 
ATOM     27  C   UNL     1       5.924   4.107  14.247  0.00  0.00    +0.000 A 
ATOM     28  O   UNL     1       5.080   3.944  15.318  0.00  0.00    +0.000 OA
ENDBRANCH  18  19
ENDBRANCH  16  18
ENDBRANCH   1  16
TORSDOF 4
ENDMDL
MODEL 4
REMARK VINA RESULT:      -8.1      1.984      2.892
REMARK  Name = 
REMARK  4 active torsions:
REMARK  status: ('A' for Active; 'I' for Inactive)
REMARK    1  A    between atoms: C_8  and  S_9
REMARK    2  A    between atoms: S_9  and  N_12
REMARK    3  A    between atoms: N_12  and  C_13
REMARK    4  A    between atoms: C_13  and  C_14
REMARK                            x       y       z     vdW  Elec       q    Type
REMARK                         _______ _______ _______ _____ _____    ______ ____
ROOT
ATOM      1  S   UNL     1       3.120   6.725  18.486  0.00  0.00    +0.000 S 
ATOM      2  O   UNL     1       3.898   7.159  17.349  0.00  0.00    +0.000 OA
ATOM      3  O   UNL     1       3.734   6.256  19.708  0.00  0.00    +0.000 OA
ENDROOT
BRANCH   1  11
ATOM      4  O   UNL     1      -0.898  10.578  23.448  0.00  0.00    +0.000 OA
ATOM      5  C   UNL     1      -0.495  10.450  22.291  0.00  0.00    +0.000 C 
ATOM      6  C   UNL     1      -0.803  11.463  21.186  0.00  0.00    +0.000 C 
ATOM      7  O   UNL     1      -0.679  11.068  19.826  0.00  0.00    +0.000 OA
ATOM      8  C   UNL     1       0.244  10.084  19.603  0.00  0.00    +0.000 A 
ATOM      9  C   UNL     1       0.607   9.880  18.270  0.00  0.00    +0.000 A 
ATOM     10  C   UNL     1       1.511   8.865  17.944  0.00  0.00    +0.000 A 
ATOM     11  C   UNL     1       2.046   8.064  18.957  0.00  0.00    +0.000 A 
ATOM     12  C   UNL     1       1.670   8.244  20.293  0.00  0.00    +0.000 A 
ATOM     13  C   UNL     1       0.763   9.261  20.608  0.00  0.00    +0.000 A 
ATOM     14  N   UNL     1       0.332   9.429  21.928  0.00  0.00    +0.000 N 
ATOM     15  H   UNL     1       0.605   8.779  22.655  0.00  0.00    +0.000 HD
ENDBRANCH   1  11
BRANCH   1  16
ATOM     16  N   UNL     1       2.049   5.513  17.968  0.00  0.00    +0.000 NA
ATOM     17  H   UNL     1       2.113   5.352  16.961  0.00  0.00    +0.000 HD
BRANCH  16  18
ATOM     18  C   UNL     1       2.080   4.248  18.736  0.00  0.00    +0.000 C 
BRANCH  18  19
ATOM     19  C   UNL     1       2.716   3.108  17.907  0.00  0.00    +0.000 C 
ATOM     20  C   UNL     1       3.778   2.398  18.743  0.00  0.00    +0.000 C 
ATOM     21  O   UNL     1       4.777   3.358  19.127  0.00  0.00    +0.000 OA
ATOM     22  C   UNL     1       5.315   3.901  17.986  0.00  0.00    +0.000 A 
ATOM     23  C   UNL     1       6.610   4.401  18.066  0.00  0.00    +0.000 A 
ATOM     24  C   UNL     1       7.282   4.746  16.894  0.00  0.00    +0.000 A 
ATOM     25  C   UNL     1       6.650   4.596  15.657  0.00  0.00    +0.000 A 
ATOM     26  C   UNL     1       5.310   4.203  15.595  0.00  0.00    +0.000 A 
ATOM     27  C   UNL     1       4.626   3.899  16.767  0.00  0.00    +0.000 A 
ATOM     28  O   UNL     1       3.292   3.586  16.669  0.00  0.00    +0.000 OA
ENDBRANCH  18  19
ENDBRANCH  16  18
ENDBRANCH   1  16
TORSDOF 4
ENDMDL
MODEL 5
REMARK VINA RESULT:      -8.0      2.052      3.001
REMARK  Name = 
REMARK  4 active torsions:
REMARK  status: ('A' for Active; 'I' for Inactive)
REMARK    1  A    between atoms: C_8  and  S_9
REMARK    2  A    between atoms: S_9  and  N_12
REMARK    3  A    between atoms: N_12  and  C_13
REMARK    4  A    between atoms: C_13  and  C_14
REMARK                            x       y       z     vdW  Elec       q    Type
REMARK                         _______ _______ _______ _____ _____    ______ ____
ROOT
ATOM      1  S   UNL     1       3.960   3.358  18.825  0.00  0.00    +0.000 S 
ATOM      2  O   UNL     1       3.373   2.306  19.623  0.00  0.00    +0.000 OA
ATOM      3  O   UNL     1       4.019   3.291  17.382  0.00  0.00    +0.000 OA
ENDROOT
BRANCH   1  11
ATOM      4  O   UNL     1       2.047  10.431  17.441  0.00  0.00    +0.000 OA
ATOM      5  C   UNL     1       1.961   9.440  18.167  0.00  0.00    +0.000 C 
ATOM      6  C   UNL     1       1.063   9.391  19.406  0.00  0.00    +0.000 C 
ATOM      7  O   UNL     1       1.314   8.415  20.409  0.00  0.00    +0.000 OA
ATOM      8  C   UNL     1       1.896   7.267  19.950  0.00  0.00    +0.000 A 
ATOM      9  C   UNL     1       1.886   6.184  20.832  0.00  0.00    +0.000 A 
ATOM     10  C   UNL     1       2.498   4.983  20.464  0.00  0.00    +0.000 A 
ATOM     11  C   UNL     1       3.113   4.875  19.213  0.00  0.00    +0.000 A 
ATOM     12  C   UNL     1       3.150   5.961  18.332  0.00  0.00    +0.000 A 
ATOM     13  C   UNL     1       2.537   7.160  18.711  0.00  0.00    +0.000 A 
ATOM     14  N   UNL     1       2.603   8.276  17.870  0.00  0.00    +0.000 N 
ATOM     15  H   UNL     1       3.154   8.259  17.021  0.00  0.00    +0.000 HD
ENDBRANCH   1  11
BRANCH   1  16
ATOM     16  N   UNL     1       5.542   3.627  19.379  0.00  0.00    +0.000 NA
ATOM     17  H   UNL     1       6.221   3.039  18.893  0.00  0.00    +0.000 HD
BRANCH  16  18
ATOM     18  C   UNL     1       5.977   5.041  19.441  0.00  0.00    +0.000 C 
BRANCH  18  19
ATOM     19  C   UNL     1       7.228   5.279  18.567  0.00  0.00    +0.000 C 
ATOM     20  C   UNL     1       7.177   6.684  17.970  0.00  0.00    +0.000 C 
ATOM     21  O   UNL     1       5.982   6.803  17.181  0.00  0.00    +0.000 OA
ATOM     22  C   UNL     1       6.014   5.842  16.200  0.00  0.00    +0.000 A 
ATOM     23  C   UNL     1       5.300   6.096  15.034  0.00  0.00    +0.000 A 
ATOM     24  C   UNL     1       5.486   5.269  13.928  0.00  0.00    +0.000 A 
ATOM     25  C   UNL     1       6.376   4.194  14.000  0.00  0.00    +0.000 A 
ATOM     26  C   UNL     1       7.001   3.879  15.211  0.00  0.00    +0.000 A 
ATOM     27  C   UNL     1       6.783   4.679  16.328  0.00  0.00    +0.000 A 
ATOM     28  O   UNL     1       7.357   4.295  17.514  0.00  0.00    +0.000 OA
ENDBRANCH  18  19
ENDBRANCH  16  18
ENDBRANCH   1  16
TORSDOF 4
ENDMDL
MODEL 6
REMARK VINA RESULT:      -8.0      2.210      3.428
REMARK  Name = 
REMARK  4 active torsions:
REMARK  status: ('A' for Active; 'I' for Inactive)
REMARK    1  A    between atoms: C_8  and  S_9
REMARK    2  A    between atoms: S_9  and  N_12
REMARK    3  A    between atoms: N_12  and  C_13
REMARK    4  A    between atoms: C_13  and  C_14
REMARK                            x       y       z     vdW  Elec       q    Type
REMARK                         _______ _______ _______ _____ _____    ______ ____
ROOT
ATOM      1  S   UNL     1       3.102   6.707  18.602  0.00  0.00    +0.000 S 
ATOM      2  O   UNL     1       3.837   7.283  17.500  0.00  0.00    +0.000 OA
ATOM      3  O   UNL     1       3.762   6.153  19.763  0.00  0.00    +0.000 OA
ENDROOT
BRANCH   1  11
ATOM      4  O   UNL     1      -0.751  13.061  17.989  0.00  0.00    +0.000 OA
ATOM      5  C   UNL     1      -0.455  12.070  18.657  0.00  0.00    +0.000 C 
ATOM      6  C   UNL     1      -1.081  11.768  20.021  0.00  0.00    +0.000 C 
ATOM      7  O   UNL     1      -0.419  10.874  20.907  0.00  0.00    +0.000 OA
ATOM      8  C   UNL     1       0.345   9.925  20.289  0.00  0.00    +0.000 A 
ATOM      9  C   UNL     1       0.764   8.862  21.092  0.00  0.00    +0.000 A 
ATOM     10  C   UNL     1       1.586   7.868  20.556  0.00  0.00    +0.000 A 
ATOM     11  C   UNL     1       1.980   7.944  19.217  0.00  0.00    +0.000 A 
ATOM     12  C   UNL     1       1.587   9.018  18.410  0.00  0.00    +0.000 A 
ATOM     13  C   UNL     1       0.766  10.009  18.957  0.00  0.00    +0.000 A 
ATOM     14  N   UNL     1       0.400  11.118  18.187  0.00  0.00    +0.000 N 
ATOM     15  H   UNL     1       0.780  11.259  17.260  0.00  0.00    +0.000 HD
ENDBRANCH   1  11
BRANCH   1  16
ATOM     16  N   UNL     1       2.075   5.502  17.987  0.00  0.00    +0.000 NA
ATOM     17  H   UNL     1       2.191   5.380  16.980  0.00  0.00    +0.000 HD
BRANCH  16  18
ATOM     18  C   UNL     1       2.087   4.210  18.709  0.00  0.00    +0.000 C 
BRANCH  18  19
ATOM     19  C   UNL     1       2.727   3.097  17.849  0.00  0.00    +0.000 C 
ATOM     20  C   UNL     1       3.796   2.371  18.664  0.00  0.00    +0.000 C 
ATOM     21  O   UNL     1       4.790   3.327  19.071  0.00  0.00    +0.000 OA
ATOM     22  C   UNL     1       5.322   3.903  17.944  0.00  0.00    +0.000 A 
ATOM     23  C   UNL     1       6.614   4.409  18.035  0.00  0.00    +0.000 A 
ATOM     24  C   UNL     1       7.281   4.790  16.871  0.00  0.00    +0.000 A 
ATOM     25  C   UNL     1       6.648   4.669  15.632  0.00  0.00    +0.000 A 
ATOM     26  C   UNL     1       5.310   4.269  15.562  0.00  0.00    +0.000 A 
ATOM     27  C   UNL     1       4.630   3.929  16.727  0.00  0.00    +0.000 A 
ATOM     28  O   UNL     1       3.298   3.611  16.623  0.00  0.00    +0.000 OA
ENDBRANCH  18  19
ENDBRANCH  16  18
ENDBRANCH   1  16
TORSDOF 4
ENDMDL
MODEL 7
REMARK VINA RESULT:      -7.9      1.136      1.439
REMARK  Name = 
REMARK  4 active torsions:
REMARK  status: ('A' for Active; 'I' for Inactive)
REMARK    1  A    between atoms: C_8  and  S_9
REMARK    2  A    between atoms: S_9  and  N_12
REMARK    3  A    between atoms: N_12  and  C_13
REMARK    4  A    between atoms: C_13  and  C_14
REMARK                            x       y       z     vdW  Elec       q    Type
REMARK                         _______ _______ _______ _____ _____    ______ ____
ROOT
ATOM      1  S   UNL     1       3.120   6.265  17.967  0.00  0.00    +0.000 S 
ATOM      2  O   UNL     1       2.145   5.218  17.766  0.00  0.00    +0.000 OA
ATOM      3  O   UNL     1       3.915   6.797  16.883  0.00  0.00    +0.000 OA
ENDROOT
BRANCH   1  11
ATOM      4  O   UNL     1      -0.017   9.869  23.691  0.00  0.00    +0.000 OA
ATOM      5  C   UNL     1       0.304   9.858  22.502  0.00  0.00    +0.000 C 
ATOM      6  C   UNL     1       0.097  11.058  21.574  0.00  0.00    +0.000 C 
ATOM      7  O   UNL     1       0.092  10.855  20.166  0.00  0.00    +0.000 OA
ATOM      8  C   UNL     1       0.843   9.795  19.744  0.00  0.00    +0.000 A 
ATOM      9  C   UNL     1       1.105   9.741  18.373  0.00  0.00    +0.000 A 
ATOM     10  C   UNL     1       1.828   8.668  17.845  0.00  0.00    +0.000 A 
ATOM     11  C   UNL     1       2.286   7.658  18.695  0.00  0.00    +0.000 A 
ATOM     12  C   UNL     1       2.008   7.689  20.067  0.00  0.00    +0.000 A 
ATOM     13  C   UNL     1       1.281   8.766  20.585  0.00  0.00    +0.000 A 
ATOM     14  N   UNL     1       0.948   8.796  21.942  0.00  0.00    +0.000 N 
ATOM     15  H   UNL     1       1.155   8.013  22.550  0.00  0.00    +0.000 HD
ENDBRANCH   1  11
BRANCH   1  16
ATOM     16  N   UNL     1       4.199   5.763  19.179  0.00  0.00    +0.000 NA
ATOM     17  H   UNL     1       3.949   4.848  19.557  0.00  0.00    +0.000 HD
BRANCH  16  18
ATOM     18  C   UNL     1       5.638   5.852  18.843  0.00  0.00    +0.000 C 
BRANCH  18  19
ATOM     19  C   UNL     1       6.204   4.469  18.448  0.00  0.00    +0.000 C 
ATOM     20  C   UNL     1       7.677   4.609  18.065  0.00  0.00    +0.000 C 
ATOM     21  O   UNL     1       7.778   5.528  16.964  0.00  0.00    +0.000 OA
ATOM     22  C   UNL     1       7.032   5.036  15.921  0.00  0.00    +0.000 A 
ATOM     23  C   UNL     1       7.401   5.420  14.636  0.00  0.00    +0.000 A 
ATOM     24  C   UNL     1       6.830   4.772  13.542  0.00  0.00    +0.000 A 
ATOM     25  C   UNL     1       5.892   3.756  13.742  0.00  0.00    +0.000 A 
ATOM     26  C   UNL     1       5.443   3.458  15.032  0.00  0.00    +0.000 A 
ATOM     27  C   UNL     1       5.981   4.133  16.122  0.00  0.00    +0.000 A 
ATOM     28  O   UNL     1       5.463   3.862  17.365  0.00  0.00    +0.000 OA
ENDBRANCH  18  19
ENDBRANCH  16  18
ENDBRANCH   1  16
TORSDOF 4
ENDMDL
MODEL 8
REMARK VINA RESULT:      -7.9      2.987      5.331
REMARK  Name = 
REMARK  4 active torsions:
REMARK  status: ('A' for Active; 'I' for Inactive)
REMARK    1  A    between atoms: C_8  and  S_9
REMARK    2  A    between atoms: S_9  and  N_12
REMARK    3  A    between atoms: N_12  and  C_13
REMARK    4  A    between atoms: C_13  and  C_14
REMARK                            x       y       z     vdW  Elec       q    Type
REMARK                         _______ _______ _______ _____ _____    ______ ____
ROOT
ATOM      1  S   UNL     1       5.194   6.629  16.866  0.00  0.00    +0.000 S 
ATOM      2  O   UNL     1       4.880   6.767  15.462  0.00  0.00    +0.000 OA
ATOM      3  O   UNL     1       6.375   7.222  17.454  0.00  0.00    +0.000 OA
ENDROOT
BRANCH   1  11
ATOM      4  O   UNL     1       0.096  11.819  18.502  0.00  0.00    +0.000 OA
ATOM      5  C   UNL     1       0.574  10.706  18.724  0.00  0.00    +0.000 C 
ATOM      6  C   UNL     1      -0.019   9.734  19.747  0.00  0.00    +0.000 C 
ATOM      7  O   UNL     1       0.788   8.678  20.252  0.00  0.00    +0.000 OA
ATOM      8  C   UNL     1       1.758   8.245  19.392  0.00  0.00    +0.000 A 
ATOM      9  C   UNL     1       2.366   7.031  19.721  0.00  0.00    +0.000 A 
ATOM     10  C   UNL     1       3.400   6.534  18.923  0.00  0.00    +0.000 A 
ATOM     11  C   UNL     1       3.814   7.254  17.799  0.00  0.00    +0.000 A 
ATOM     12  C   UNL     1       3.228   8.483  17.474  0.00  0.00    +0.000 A 
ATOM     13  C   UNL     1       2.196   8.974  18.281  0.00  0.00    +0.000 A 
ATOM     14  N   UNL     1       1.628  10.222  18.008  0.00  0.00    +0.000 N 
ATOM     15  H   UNL     1       2.000  10.818  17.279  0.00  0.00    +0.000 HD
ENDBRANCH   1  11
BRANCH   1  16
ATOM     16  N   UNL     1       5.222   4.975  17.247  0.00  0.00    +0.000 NA
ATOM     17  H   UNL     1       5.330   4.816  18.250  0.00  0.00    +0.000 HD
BRANCH  16  18
ATOM     18  C   UNL     1       4.131   4.157  16.669  0.00  0.00    +0.000 C 
BRANCH  18  19
ATOM     19  C   UNL     1       4.082   2.756  17.317  0.00  0.00    +0.000 C 
ATOM     20  C   UNL     1       2.707   2.131  17.082  0.00  0.00    +0.000 C 
ATOM     21  O   UNL     1       1.709   2.989  17.660  0.00  0.00    +0.000 OA
ATOM     22  C   UNL     1       1.978   3.122  19.000  0.00  0.00    +0.000 A 
ATOM     23  C   UNL     1       0.908   3.416  19.839  0.00  0.00    +0.000 A 
ATOM     24  C   UNL     1       1.083   3.331  21.220  0.00  0.00    +0.000 A 
ATOM     25  C   UNL     1       2.323   2.964  21.747  0.00  0.00    +0.000 A 
ATOM     26  C   UNL     1       3.421   2.784  20.900  0.00  0.00    +0.000 A 
ATOM     27  C   UNL     1       3.259   2.909  19.525  0.00  0.00    +0.000 A 
ATOM     28  O   UNL     1       4.375   2.796  18.733  0.00  0.00    +0.000 OA
ENDBRANCH  18  19
ENDBRANCH  16  18
ENDBRANCH   1  16
TORSDOF 4
ENDMDL
MODEL 9
REMARK VINA RESULT:      -7.9      1.883      2.939
REMARK  Name = 
REMARK  4 active torsions:
REMARK  status: ('A' for Active; 'I' for Inactive)
REMARK    1  A    between atoms: C_8  and  S_9
REMARK    2  A    between atoms: S_9  and  N_12
REMARK    3  A    between atoms: N_12  and  C_13
REMARK    4  A    between atoms: C_13  and  C_14
REMARK                            x       y       z     vdW  Elec       q    Type
REMARK                         _______ _______ _______ _____ _____    ______ ____
ROOT
ATOM      1  S   UNL     1       4.299   3.351  18.766  0.00  0.00    +0.000 S 
ATOM      2  O   UNL     1       5.318   3.188  19.776  0.00  0.00    +0.000 OA
ATOM      3  O   UNL     1       3.331   2.318  18.472  0.00  0.00    +0.000 OA
ENDROOT
BRANCH   1  11
ATOM      4  O   UNL     1       2.049  10.353  17.532  0.00  0.00    +0.000 OA
ATOM      5  C   UNL     1       1.993   9.335  18.224  0.00  0.00    +0.000 C 
ATOM      6  C   UNL     1       1.057   9.197  19.427  0.00  0.00    +0.000 C 
ATOM      7  O   UNL     1       1.327   8.205  20.408  0.00  0.00    +0.000 OA
ATOM      8  C   UNL     1       1.987   7.105  19.935  0.00  0.00    +0.000 A 
ATOM      9  C   UNL     1       2.005   5.995  20.783  0.00  0.00    +0.000 A 
ATOM     10  C   UNL     1       2.695   4.841  20.400  0.00  0.00    +0.000 A 
ATOM     11  C   UNL     1       3.357   4.807  19.170  0.00  0.00    +0.000 A 
ATOM     12  C   UNL     1       3.365   5.922  18.324  0.00  0.00    +0.000 A 
ATOM     13  C   UNL     1       2.675   7.073  18.717  0.00  0.00    +0.000 A 
ATOM     14  N   UNL     1       2.708   8.217  17.914  0.00  0.00    +0.000 N 
ATOM     15  H   UNL     1       3.288   8.258  17.085  0.00  0.00    +0.000 HD
ENDBRANCH   1  11
BRANCH   1  16
ATOM     16  N   UNL     1       5.059   3.756  17.302  0.00  0.00    +0.000 NA
ATOM     17  H   UNL     1       4.422   4.231  16.660  0.00  0.00    +0.000 HD
BRANCH  16  18
ATOM     18  C   UNL     1       6.357   4.459  17.417  0.00  0.00    +0.000 C 
BRANCH  18  19
ATOM     19  C   UNL     1       6.428   5.660  16.448  0.00  0.00    +0.000 C 
ATOM     20  C   UNL     1       5.072   5.853  15.771  0.00  0.00    +0.000 C 
ATOM     21  O   UNL     1       4.740   4.650  15.058  0.00  0.00    +0.000 OA
ATOM     22  C   UNL     1       5.729   4.405  14.139  0.00  0.00    +0.000 A 
ATOM     23  C   UNL     1       5.384   3.669  13.010  0.00  0.00    +0.000 A 
ATOM     24  C   UNL     1       6.281   3.593  11.946  0.00  0.00    +0.000 A 
ATOM     25  C   UNL     1       7.515   4.245  12.024  0.00  0.00    +0.000 A 
ATOM     26  C   UNL     1       7.900   4.884  13.206  0.00  0.00    +0.000 A 
ATOM     27  C   UNL     1       7.022   4.925  14.284  0.00  0.00    +0.000 A 
ATOM     28  O   UNL     1       7.464   5.499  15.451  0.00  0.00    +0.000 OA
ENDBRANCH  18  19
ENDBRANCH  16  18
ENDBRANCH   1  16
TORSDOF 4
ENDMDL
