MODEL 1
REMARK VINA RESULT:      -9.8      0.000      0.000
REMARK  Name = 
REMARK  6 active torsions:
REMARK  status: ('A' for Active; 'I' for Inactive)
REMARK    1  A    between atoms: C_1  and  C_2
REMARK    2  A    between atoms: C_2  and  C_3
REMARK    3  A    between atoms: C_2  and  C_4
REMARK    4  A    between atoms: C_8  and  C_9
REMARK    5  A    between atoms: N_15  and  C_16
REMARK    6  A    between atoms: C_20  and  C_21
REMARK                            x       y       z     vdW  Elec       q    Type
REMARK                         _______ _______ _______ _____ _____    ______ ____
ROOT
ATOM      1  C   UNL     1       0.897  11.549  19.662  0.00  0.00    +0.000 A 
ATOM      2  C   UNL     1       1.521  10.546  18.920  0.00  0.00    +0.000 A 
ATOM      3  C   UNL     1       1.526   9.277  19.431  0.00  0.00    +0.000 A 
ATOM      4  C   UNL     1       1.006   8.937  20.685  0.00  0.00    +0.000 A 
ATOM      5  C   UNL     1       0.443   9.925  21.481  0.00  0.00    +0.000 A 
ATOM      6  C   UNL     1       0.377  11.234  20.943  0.00  0.00    +0.000 A 
ATOM      7  C   UNL     1       1.191   7.468  20.889  0.00  0.00    +0.000 C 
ATOM      8  N   UNL     1       1.776   7.022  19.626  0.00  0.00    +0.000 N 
ATOM      9  C   UNL     1       2.025   8.089  18.779  0.00  0.00    +0.000 C 
ATOM     10  O   UNL     1       2.597   8.146  17.690  0.00  0.00    +0.000 OA
ENDROOT
BRANCH   8  11
ATOM     11  C   UNL     1       2.302   5.730  19.408  0.00  0.00    +0.000 A 
ATOM     12  C   UNL     1       1.612   4.775  18.638  0.00  0.00    +0.000 A 
ATOM     13  C   UNL     1       2.224   3.591  18.231  0.00  0.00    +0.000 A 
ATOM     14  C   UNL     1       3.580   3.433  18.461  0.00  0.00    +0.000 A 
ATOM     15  C   UNL     1       4.280   4.457  19.108  0.00  0.00    +0.000 A 
ATOM     16  C   UNL     1       3.613   5.469  19.787  0.00  0.00    +0.000 A 
BRANCH  15  17
ATOM     17  C   UNL     1       5.604   4.798  18.596  0.00  0.00    +0.000 C 
ATOM     18  C   UNL     1       5.881   4.600  17.308  0.00  0.00    +0.000 C 
ATOM     19  C   UNL     1       5.511   4.194  15.975  0.00  0.00    +0.000 C 
ATOM     20  N   UNL     1       6.565   4.156  15.201  0.00  0.00    +0.000 NA
ATOM     21  N   UNL     1       7.735   4.594  15.994  0.00  0.00    +0.000 NA
ATOM     22  C   UNL     1       7.286   4.874  17.173  0.00  0.00    +0.000 C 
ATOM     23  C   UNL     1       7.800   5.453  18.410  0.00  0.00    +0.000 C 
ATOM     24  C   UNL     1       6.710   5.497  19.194  0.00  0.00    +0.000 C 
ENDBRANCH  15  17
ENDBRANCH   8  11
BRANCH   5  25
ATOM     25  C   UNL     1      -0.120   9.664  22.854  0.00  0.00    +0.000 C 
ATOM     26  F   UNL     1      -1.021   8.634  22.890  0.00  0.00    +0.000 F 
ATOM     27  F   UNL     1       0.836   9.349  23.761  0.00  0.00    +0.000 F 
ATOM     28  F   UNL     1      -0.780  10.743  23.358  0.00  0.00    +0.000 F 
ENDBRANCH   5  25
BRANCH   1  30
ATOM     29  C   UNL     1       1.958  13.179  18.142  0.00  0.00    +0.000 C 
ATOM     30  C   UNL     1       0.705  12.882  18.971  0.00  0.00    +0.000 C 
ATOM     31  C   UNL     1      -0.560  12.996  18.125  0.00  0.00    +0.000 C 
ENDBRANCH   1  30
TORSDOF 4
ENDMDL
MODEL 2
REMARK VINA RESULT:      -9.8      0.939      1.614
REMARK  Name = 
REMARK  6 active torsions:
REMARK  status: ('A' for Active; 'I' for Inactive)
REMARK    1  A    between atoms: C_1  and  C_2
REMARK    2  A    between atoms: C_2  and  C_3
REMARK    3  A    between atoms: C_2  and  C_4
REMARK    4  A    between atoms: C_8  and  C_9
REMARK    5  A    between atoms: N_15  and  C_16
REMARK    6  A    between atoms: C_20  and  C_21
REMARK                            x       y       z     vdW  Elec       q    Type
REMARK                         _______ _______ _______ _____ _____    ______ ____
ROOT
ATOM      1  C   UNL     1       0.599  11.190  19.395  0.00  0.00    +0.000 A 
ATOM      2  C   UNL     1       1.317  10.158  18.791  0.00  0.00    +0.000 A 
ATOM      3  C   UNL     1       1.464   8.987  19.483  0.00  0.00    +0.000 A 
ATOM      4  C   UNL     1       0.998   8.785  20.787  0.00  0.00    +0.000 A 
ATOM      5  C   UNL     1       0.342   9.816  21.444  0.00  0.00    +0.000 A 
ATOM      6  C   UNL     1       0.130  11.017  20.722  0.00  0.00    +0.000 A 
ATOM      7  C   UNL     1       1.340   7.390  21.200  0.00  0.00    +0.000 C 
ATOM      8  N   UNL     1       1.955   6.824  20.000  0.00  0.00    +0.000 N 
ATOM      9  C   UNL     1       2.079   7.773  18.999  0.00  0.00    +0.000 C 
ATOM     10  O   UNL     1       2.629   7.726  17.898  0.00  0.00    +0.000 OA
ENDROOT
BRANCH   8  11
ATOM     11  C   UNL     1       2.613   5.575  19.961  0.00  0.00    +0.000 A 
ATOM     12  C   UNL     1       1.915   4.369  20.166  0.00  0.00    +0.000 A 
ATOM     13  C   UNL     1       2.506   3.136  19.902  0.00  0.00    +0.000 A 
ATOM     14  C   UNL     1       3.743   3.113  19.281  0.00  0.00    +0.000 A 
ATOM     15  C   UNL     1       4.361   4.325  18.959  0.00  0.00    +0.000 A 
ATOM     16  C   UNL     1       3.925   5.525  19.508  0.00  0.00    +0.000 A 
BRANCH  15  17
ATOM     17  C   UNL     1       5.024   4.422  17.662  0.00  0.00    +0.000 C 
ATOM     18  C   UNL     1       6.074   5.230  17.519  0.00  0.00    +0.000 C 
ATOM     19  C   UNL     1       7.038   6.166  18.039  0.00  0.00    +0.000 C 
ATOM     20  N   UNL     1       7.741   6.685  17.066  0.00  0.00    +0.000 NA
ATOM     21  N   UNL     1       7.298   6.068  15.797  0.00  0.00    +0.000 NA
ATOM     22  C   UNL     1       6.376   5.218  16.114  0.00  0.00    +0.000 C 
ATOM     23  C   UNL     1       5.584   4.192  15.443  0.00  0.00    +0.000 C 
ATOM     24  C   UNL     1       4.873   3.659  16.451  0.00  0.00    +0.000 C 
ENDBRANCH  15  17
ENDBRANCH   8  11
BRANCH   5  25
ATOM     25  C   UNL     1      -0.175   9.706  22.855  0.00  0.00    +0.000 C 
ATOM     26  F   UNL     1      -1.115   8.725  23.020  0.00  0.00    +0.000 F 
ATOM     27  F   UNL     1       0.804   9.432  23.752  0.00  0.00    +0.000 F 
ATOM     28  F   UNL     1      -0.768  10.855  23.282  0.00  0.00    +0.000 F 
ENDBRANCH   5  25
BRANCH   1  30
ATOM     29  C   UNL     1      -1.225  12.291  18.147  0.00  0.00    +0.000 C 
ATOM     30  C   UNL     1       0.258  12.378  18.521  0.00  0.00    +0.000 C 
ATOM     31  C   UNL     1       0.600  13.741  19.118  0.00  0.00    +0.000 C 
ENDBRANCH   1  30
TORSDOF 4
ENDMDL
MODEL 3
REMARK VINA RESULT:      -9.3      3.565      8.634
REMARK  Name = 
REMARK  6 active torsions:
REMARK  status: ('A' for Active; 'I' for Inactive)
REMARK    1  A    between atoms: C_1  and  C_2
REMARK    2  A    between atoms: C_2  and  C_3
REMARK    3  A    between atoms: C_2  and  C_4
REMARK    4  A    between atoms: C_8  and  C_9
REMARK    5  A    between atoms: N_15  and  C_16
REMARK    6  A    between atoms: C_20  and  C_21
REMARK                            x       y       z     vdW  Elec       q    Type
REMARK                         _______ _______ _______ _____ _____    ______ ____
ROOT
ATOM      1  C   UNL     1       4.042   5.937  17.357  0.00  0.00    +0.000 A 
ATOM      2  C   UNL     1       3.545   7.238  17.270  0.00  0.00    +0.000 A 
ATOM      3  C   UNL     1       2.698   7.669  18.255  0.00  0.00    +0.000 A 
ATOM      4  C   UNL     1       2.245   6.863  19.304  0.00  0.00    +0.000 A 
ATOM      5  C   UNL     1       2.663   5.542  19.380  0.00  0.00    +0.000 A 
ATOM      6  C   UNL     1       3.586   5.095  18.402  0.00  0.00    +0.000 A 
ATOM      7  C   UNL     1       1.345   7.681  20.173  0.00  0.00    +0.000 C 
ATOM      8  N   UNL     1       1.404   9.009  19.564  0.00  0.00    +0.000 N 
ATOM      9  C   UNL     1       2.158   9.000  18.403  0.00  0.00    +0.000 C 
ATOM     10  O   UNL     1       2.358   9.873  17.557  0.00  0.00    +0.000 OA
ENDROOT
BRANCH   8  11
ATOM     11  C   UNL     1       0.564  10.085  19.927  0.00  0.00    +0.000 A 
ATOM     12  C   UNL     1       1.093  11.330  20.319  0.00  0.00    +0.000 A 
ATOM     13  C   UNL     1       0.280  12.453  20.454  0.00  0.00    +0.000 A 
ATOM     14  C   UNL     1      -1.039  12.370  20.042  0.00  0.00    +0.000 A 
ATOM     15  C   UNL     1      -1.511  11.159  19.525  0.00  0.00    +0.000 A 
ATOM     16  C   UNL     1      -0.801   9.977  19.694  0.00  0.00    +0.000 A 
BRANCH  15  17
ATOM     17  C   UNL     1      -2.379  11.219  18.353  0.00  0.00    +0.000 C 
ATOM     18  C   UNL     1      -3.620  11.689  18.477  0.00  0.00    +0.000 C 
ATOM     19  C   UNL     1      -4.690  12.264  19.253  0.00  0.00    +0.000 C 
ATOM     20  N   UNL     1      -5.797  12.285  18.557  0.00  0.00    +0.000 NA
ATOM     21  N   UNL     1      -5.506  11.745  17.211  0.00  0.00    +0.000 NA
ATOM     22  C   UNL     1      -4.245  11.459  17.204  0.00  0.00    +0.000 C 
ATOM     23  C   UNL     1      -3.250  11.014  16.234  0.00  0.00    +0.000 C 
ATOM     24  C   UNL     1      -2.115  11.005  16.954  0.00  0.00    +0.000 C 
ENDBRANCH  15  17
ENDBRANCH   8  11
BRANCH   5  25
ATOM     25  C   UNL     1       2.213   4.588  20.456  0.00  0.00    +0.000 C 
ATOM     26  F   UNL     1       2.785   3.348  20.364  0.00  0.00    +0.000 F 
ATOM     27  F   UNL     1       2.499   5.033  21.704  0.00  0.00    +0.000 F 
ATOM     28  F   UNL     1       0.868   4.372  20.430  0.00  0.00    +0.000 F 
ENDBRANCH   5  25
BRANCH   1  30
ATOM     29  C   UNL     1       6.448   6.217  16.878  0.00  0.00    +0.000 C 
ATOM     30  C   UNL     1       5.147   5.570  16.390  0.00  0.00    +0.000 C 
ATOM     31  C   UNL     1       5.328   4.074  16.151  0.00  0.00    +0.000 C 
ENDBRANCH   1  30
TORSDOF 4
ENDMDL
MODEL 4
REMARK VINA RESULT:      -9.3      2.429      3.868
REMARK  Name = 
REMARK  6 active torsions:
REMARK  status: ('A' for Active; 'I' for Inactive)
REMARK    1  A    between atoms: C_1  and  C_2
REMARK    2  A    between atoms: C_2  and  C_3
REMARK    3  A    between atoms: C_2  and  C_4
REMARK    4  A    between atoms: C_8  and  C_9
REMARK    5  A    between atoms: N_15  and  C_16
REMARK    6  A    between atoms: C_20  and  C_21
REMARK                            x       y       z     vdW  Elec       q    Type
REMARK                         _______ _______ _______ _____ _____    ______ ____
ROOT
ATOM      1  C   UNL     1       0.262  12.455  20.089  0.00  0.00    +0.000 A 
ATOM      2  C   UNL     1       0.974  11.808  19.079  0.00  0.00    +0.000 A 
ATOM      3  C   UNL     1       1.223  10.470  19.224  0.00  0.00    +0.000 A 
ATOM      4  C   UNL     1       0.869   9.727  20.355  0.00  0.00    +0.000 A 
ATOM      5  C   UNL     1       0.223  10.356  21.410  0.00  0.00    +0.000 A 
ATOM      6  C   UNL     1      -0.095  11.728  21.253  0.00  0.00    +0.000 A 
ATOM      7  C   UNL     1       1.301   8.312  20.144  0.00  0.00    +0.000 C 
ATOM      8  N   UNL     1       1.845   8.324  18.786  0.00  0.00    +0.000 N 
ATOM      9  C   UNL     1       1.850   9.603  18.255  0.00  0.00    +0.000 C 
ATOM     10  O   UNL     1       2.315  10.043  17.203  0.00  0.00    +0.000 OA
ENDROOT
BRANCH   8  11
ATOM     11  C   UNL     1       2.551   7.248  18.206  0.00  0.00    +0.000 A 
ATOM     12  C   UNL     1       3.956   7.256  18.110  0.00  0.00    +0.000 A 
ATOM     13  C   UNL     1       4.665   6.111  17.754  0.00  0.00    +0.000 A 
ATOM     14  C   UNL     1       3.979   4.913  17.647  0.00  0.00    +0.000 A 
ATOM     15  C   UNL     1       2.601   4.900  17.881  0.00  0.00    +0.000 A 
ATOM     16  C   UNL     1       1.863   6.077  17.914  0.00  0.00    +0.000 A 
BRANCH  15  17
ATOM     17  C   UNL     1       2.058   3.786  18.654  0.00  0.00    +0.000 C 
ATOM     18  C   UNL     1       2.093   3.831  19.985  0.00  0.00    +0.000 C 
ATOM     19  C   UNL     1       2.404   4.492  21.228  0.00  0.00    +0.000 C 
ATOM     20  N   UNL     1       2.241   3.672  22.234  0.00  0.00    +0.000 NA
ATOM     21  N   UNL     1       1.750   2.381  21.702  0.00  0.00    +0.000 NA
ATOM     22  C   UNL     1       1.644   2.537  20.423  0.00  0.00    +0.000 C 
ATOM     23  C   UNL     1       1.134   1.777  19.286  0.00  0.00    +0.000 C 
ATOM     24  C   UNL     1       1.297   2.630  18.261  0.00  0.00    +0.000 C 
ENDBRANCH  15  17
ENDBRANCH   8  11
BRANCH   5  25
ATOM     25  C   UNL     1      -0.177   9.649  22.679  0.00  0.00    +0.000 C 
ATOM     26  F   UNL     1       0.886   9.264  23.451  0.00  0.00    +0.000 F 
ATOM     27  F   UNL     1      -0.957  10.414  23.481  0.00  0.00    +0.000 F 
ATOM     28  F   UNL     1      -0.883   8.509  22.438  0.00  0.00    +0.000 F 
ENDBRANCH   5  25
BRANCH   1  30
ATOM     29  C   UNL     1      -1.350  14.207  20.746  0.00  0.00    +0.000 C 
ATOM     30  C   UNL     1      -0.197  13.867  19.796  0.00  0.00    +0.000 C 
ATOM     31  C   UNL     1       0.899  14.928  19.852  0.00  0.00    +0.000 C 
ENDBRANCH   1  30
TORSDOF 4
ENDMDL
MODEL 5
REMARK VINA RESULT:      -9.1      4.258      9.117
REMARK  Name = 
REMARK  6 active torsions:
REMARK  status: ('A' for Active; 'I' for Inactive)
REMARK    1  A    between atoms: C_1  and  C_2
REMARK    2  A    between atoms: C_2  and  C_3
REMARK    3  A    between atoms: C_2  and  C_4
REMARK    4  A    between atoms: C_8  and  C_9
REMARK    5  A    between atoms: N_15  and  C_16
REMARK    6  A    between atoms: C_20  and  C_21
REMARK                            x       y       z     vdW  Elec       q    Type
REMARK                         _______ _______ _______ _____ _____    ______ ____
ROOT
ATOM      1  C   UNL     1       3.952   4.125  19.065  0.00  0.00    +0.000 A 
ATOM      2  C   UNL     1       3.120   5.040  19.710  0.00  0.00    +0.000 A 
ATOM      3  C   UNL     1       2.925   6.258  19.119  0.00  0.00    +0.000 A 
ATOM      4  C   UNL     1       3.563   6.668  17.944  0.00  0.00    +0.000 A 
ATOM      5  C   UNL     1       4.453   5.809  17.315  0.00  0.00    +0.000 A 
ATOM      6  C   UNL     1       4.623   4.521  17.881  0.00  0.00    +0.000 A 
ATOM      7  C   UNL     1       3.097   8.048  17.610  0.00  0.00    +0.000 C 
ATOM      8  N   UNL     1       2.102   8.327  18.644  0.00  0.00    +0.000 N 
ATOM      9  C   UNL     1       2.030   7.299  19.568  0.00  0.00    +0.000 C 
ATOM     10  O   UNL     1       1.407   7.199  20.626  0.00  0.00    +0.000 OA
ENDROOT
BRANCH   8  11
ATOM     11  C   UNL     1       1.513   9.594  18.857  0.00  0.00    +0.000 A 
ATOM     12  C   UNL     1       2.208  10.785  18.573  0.00  0.00    +0.000 A 
ATOM     13  C   UNL     1       1.559  12.017  18.561  0.00  0.00    +0.000 A 
ATOM     14  C   UNL     1       0.180  12.042  18.677  0.00  0.00    +0.000 A 
ATOM     15  C   UNL     1      -0.508  10.833  18.820  0.00  0.00    +0.000 A 
ATOM     16  C   UNL     1       0.157   9.659  19.153  0.00  0.00    +0.000 A 
BRANCH  15  17
ATOM     17  C   UNL     1      -1.751  10.670  18.071  0.00  0.00    +0.000 C 
ATOM     18  C   UNL     1      -2.843  11.328  18.459  0.00  0.00    +0.000 C 
ATOM     19  C   UNL     1      -3.530  12.251  19.327  0.00  0.00    +0.000 C 
ATOM     20  N   UNL     1      -4.817  12.225  19.093  0.00  0.00    +0.000 NA
ATOM     21  N   UNL     1      -5.065  11.280  17.982  0.00  0.00    +0.000 NA
ATOM     22  C   UNL     1      -3.905  10.828  17.630  0.00  0.00    +0.000 C 
ATOM     23  C   UNL     1      -3.357   9.982  16.575  0.00  0.00    +0.000 C 
ATOM     24  C   UNL     1      -2.036  10.022  16.818  0.00  0.00    +0.000 C 
ENDBRANCH  15  17
ENDBRANCH   8  11
BRANCH   5  25
ATOM     25  C   UNL     1       5.208   6.166  16.061  0.00  0.00    +0.000 C 
ATOM     26  F   UNL     1       5.470   5.092  15.254  0.00  0.00    +0.000 F 
ATOM     27  F   UNL     1       4.543   7.056  15.285  0.00  0.00    +0.000 F 
ATOM     28  F   UNL     1       6.420   6.727  16.326  0.00  0.00    +0.000 F 
ENDBRANCH   5  25
BRANCH   1  30
ATOM     29  C   UNL     1       3.004   2.658  20.810  0.00  0.00    +0.000 C 
ATOM     30  C   UNL     1       3.965   2.716  19.618  0.00  0.00    +0.000 C 
ATOM     31  C   UNL     1       3.655   1.619  18.603  0.00  0.00    +0.000 C 
ENDBRANCH   1  30
TORSDOF 4
ENDMDL
MODEL 6
REMARK VINA RESULT:      -9.1      0.744      1.011
REMARK  Name = 
REMARK  6 active torsions:
REMARK  status: ('A' for Active; 'I' for Inactive)
REMARK    1  A    between atoms: C_1  and  C_2
REMARK    2  A    between atoms: C_2  and  C_3
REMARK    3  A    between atoms: C_2  and  C_4
REMARK    4  A    between atoms: C_8  and  C_9
REMARK    5  A    between atoms: N_15  and  C_16
REMARK    6  A    between atoms: C_20  and  C_21
REMARK                            x       y       z     vdW  Elec       q    Type
REMARK                         _______ _______ _______ _____ _____    ______ ____
ROOT
ATOM      1  C   UNL     1       0.223  11.446  19.659  0.00  0.00    +0.000 A 
ATOM      2  C   UNL     1       0.959  10.536  18.900  0.00  0.00    +0.000 A 
ATOM      3  C   UNL     1       1.212   9.305  19.440  0.00  0.00    +0.000 A 
ATOM      4  C   UNL     1       0.839   8.928  20.734  0.00  0.00    +0.000 A 
ATOM      5  C   UNL     1       0.168   9.834  21.543  0.00  0.00    +0.000 A 
ATOM      6  C   UNL     1      -0.153  11.094  20.979  0.00  0.00    +0.000 A 
ATOM      7  C   UNL     1       1.283   7.518  20.961  0.00  0.00    +0.000 C 
ATOM      8  N   UNL     1       1.854   7.133  19.672  0.00  0.00    +0.000 N 
ATOM      9  C   UNL     1       1.863   8.196  18.784  0.00  0.00    +0.000 C 
ATOM     10  O   UNL     1       2.347   8.309  17.657  0.00  0.00    +0.000 OA
ENDROOT
BRANCH   8  11
ATOM     11  C   UNL     1       2.577   5.940  19.450  0.00  0.00    +0.000 A 
ATOM     12  C   UNL     1       1.943   4.771  18.984  0.00  0.00    +0.000 A 
ATOM     13  C   UNL     1       2.679   3.673  18.548  0.00  0.00    +0.000 A 
ATOM     14  C   UNL     1       4.052   3.800  18.428  0.00  0.00    +0.000 A 
ATOM     15  C   UNL     1       4.651   5.018  18.765  0.00  0.00    +0.000 A 
ATOM     16  C   UNL     1       3.964   5.981  19.494  0.00  0.00    +0.000 A 
BRANCH  15  17
ATOM     17  C   UNL     1       5.711   5.514  17.893  0.00  0.00    +0.000 C 
ATOM     18  C   UNL     1       5.812   5.046  16.649  0.00  0.00    +0.000 C 
ATOM     19  C   UNL     1       5.358   4.215  15.563  0.00  0.00    +0.000 C 
ATOM     20  N   UNL     1       6.230   4.222  14.588  0.00  0.00    +0.000 NA
ATOM     21  N   UNL     1       7.337   5.128  14.966  0.00  0.00    +0.000 NA
ATOM     22  C   UNL     1       7.031   5.602  16.129  0.00  0.00    +0.000 C 
ATOM     23  C   UNL     1       7.555   6.603  17.053  0.00  0.00    +0.000 C 
ATOM     24  C   UNL     1       6.648   6.596  18.045  0.00  0.00    +0.000 C 
ENDBRANCH  15  17
ENDBRANCH   8  11
BRANCH   5  25
ATOM     25  C   UNL     1      -0.254   9.532  22.958  0.00  0.00    +0.000 C 
ATOM     26  F   UNL     1      -0.939  10.555  23.556  0.00  0.00    +0.000 F 
ATOM     27  F   UNL     1      -1.063   8.448  23.042  0.00  0.00    +0.000 F 
ATOM     28  F   UNL     1       0.807   9.278  23.773  0.00  0.00    +0.000 F 
ENDBRANCH   5  25
BRANCH   1  30
ATOM     29  C   UNL     1       1.002  13.527  18.581  0.00  0.00    +0.000 C 
ATOM     30  C   UNL     1      -0.236  12.703  18.951  0.00  0.00    +0.000 C 
ATOM     31  C   UNL     1      -1.131  12.471  17.737  0.00  0.00    +0.000 C 
ENDBRANCH   1  30
TORSDOF 4
ENDMDL
MODEL 7
REMARK VINA RESULT:      -9.0      3.332      7.945
REMARK  Name = 
REMARK  6 active torsions:
REMARK  status: ('A' for Active; 'I' for Inactive)
REMARK    1  A    between atoms: C_1  and  C_2
REMARK    2  A    between atoms: C_2  and  C_3
REMARK    3  A    between atoms: C_2  and  C_4
REMARK    4  A    between atoms: C_8  and  C_9
REMARK    5  A    between atoms: N_15  and  C_16
REMARK    6  A    between atoms: C_20  and  C_21
REMARK                            x       y       z     vdW  Elec       q    Type
REMARK                         _______ _______ _______ _____ _____    ______ ____
ROOT
ATOM      1  C   UNL     1       3.894   5.509  17.956  0.00  0.00    +0.000 A 
ATOM      2  C   UNL     1       3.340   6.784  18.071  0.00  0.00    +0.000 A 
ATOM      3  C   UNL     1       2.483   7.021  19.111  0.00  0.00    +0.000 A 
ATOM      4  C   UNL     1       2.075   6.044  20.025  0.00  0.00    +0.000 A 
ATOM      5  C   UNL     1       2.551   4.747  19.896  0.00  0.00    +0.000 A 
ATOM      6  C   UNL     1       3.484   4.497  18.860  0.00  0.00    +0.000 A 
ATOM      7  C   UNL     1       1.147   6.678  21.010  0.00  0.00    +0.000 C 
ATOM      8  N   UNL     1       1.142   8.085  20.612  0.00  0.00    +0.000 N 
ATOM      9  C   UNL     1       1.887   8.288  19.462  0.00  0.00    +0.000 C 
ATOM     10  O   UNL     1       2.042   9.289  18.761  0.00  0.00    +0.000 OA
ENDROOT
BRANCH   8  11
ATOM     11  C   UNL     1       0.260   9.055  21.137  0.00  0.00    +0.000 A 
ATOM     12  C   UNL     1       0.178   9.302  22.522  0.00  0.00    +0.000 A 
ATOM     13  C   UNL     1      -0.512  10.404  23.022  0.00  0.00    +0.000 A 
ATOM     14  C   UNL     1      -0.988  11.349  22.129  0.00  0.00    +0.000 A 
ATOM     15  C   UNL     1      -0.776  11.154  20.761  0.00  0.00    +0.000 A 
ATOM     16  C   UNL     1      -0.383   9.919  20.260  0.00  0.00    +0.000 A 
BRANCH  15  17
ATOM     17  C   UNL     1      -0.390  12.316  19.965  0.00  0.00    +0.000 C 
ATOM     18  C   UNL     1       0.831  12.831  20.105  0.00  0.00    +0.000 C 
ATOM     19  C   UNL     1       2.150  12.838  20.686  0.00  0.00    +0.000 C 
ATOM     20  N   UNL     1       2.789  13.930  20.356  0.00  0.00    +0.000 NA
ATOM     21  N   UNL     1       1.914  14.725  19.466  0.00  0.00    +0.000 NA
ATOM     22  C   UNL     1       0.829  14.036  19.321  0.00  0.00    +0.000 C 
ATOM     23  C   UNL     1      -0.394  14.112  18.529  0.00  0.00    +0.000 C 
ATOM     24  C   UNL     1      -1.038  12.983  18.867  0.00  0.00    +0.000 C 
ENDBRANCH  15  17
ENDBRANCH   8  11
BRANCH   5  25
ATOM     25  C   UNL     1       2.152   3.621  20.814  0.00  0.00    +0.000 C 
ATOM     26  F   UNL     1       0.801   3.402  20.858  0.00  0.00    +0.000 F 
ATOM     27  F   UNL     1       2.705   2.435  20.460  0.00  0.00    +0.000 F 
ATOM     28  F   UNL     1       2.527   3.843  22.104  0.00  0.00    +0.000 F 
ENDBRANCH   5  25
BRANCH   1  30
ATOM     29  C   UNL     1       4.843   3.980  16.266  0.00  0.00    +0.000 C 
ATOM     30  C   UNL     1       5.006   5.344  16.943  0.00  0.00    +0.000 C 
ATOM     31  C   UNL     1       5.115   6.465  15.912  0.00  0.00    +0.000 C 
ENDBRANCH   1  30
TORSDOF 4
ENDMDL
MODEL 8
REMARK VINA RESULT:      -8.9      3.395      8.000
REMARK  Name = 
REMARK  6 active torsions:
REMARK  status: ('A' for Active; 'I' for Inactive)
REMARK    1  A    between atoms: C_1  and  C_2
REMARK    2  A    between atoms: C_2  and  C_3
REMARK    3  A    between atoms: C_2  and  C_4
REMARK    4  A    between atoms: C_8  and  C_9
REMARK    5  A    between atoms: N_15  and  C_16
REMARK    6  A    between atoms: C_20  and  C_21
REMARK                            x       y       z     vdW  Elec       q    Type
REMARK                         _______ _______ _______ _____ _____    ______ ____
ROOT
ATOM      1  C   UNL     1       4.191   4.914  17.243  0.00  0.00    +0.000 A 
ATOM      2  C   UNL     1       3.701   6.193  17.508  0.00  0.00    +0.000 A 
ATOM      3  C   UNL     1       2.913   6.364  18.613  0.00  0.00    +0.000 A 
ATOM      4  C   UNL     1       2.510   5.321  19.454  0.00  0.00    +0.000 A 
ATOM      5  C   UNL     1       2.920   4.025  19.178  0.00  0.00    +0.000 A 
ATOM      6  C   UNL     1       3.785   3.838  18.071  0.00  0.00    +0.000 A 
ATOM      7  C   UNL     1       1.665   5.895  20.545  0.00  0.00    +0.000 C 
ATOM      8  N   UNL     1       1.703   7.333  20.281  0.00  0.00    +0.000 N 
ATOM      9  C   UNL     1       2.394   7.614  19.114  0.00  0.00    +0.000 C 
ATOM     10  O   UNL     1       2.556   8.670  18.501  0.00  0.00    +0.000 OA
ENDROOT
BRANCH   8  11
ATOM     11  C   UNL     1       0.894   8.282  20.943  0.00  0.00    +0.000 A 
ATOM     12  C   UNL     1       1.306   8.886  22.147  0.00  0.00    +0.000 A 
ATOM     13  C   UNL     1       0.627   9.981  22.678  0.00  0.00    +0.000 A 
ATOM     14  C   UNL     1      -0.372  10.571  21.922  0.00  0.00    +0.000 A 
ATOM     15  C   UNL     1      -0.674  10.038  20.665  0.00  0.00    +0.000 A 
ATOM     16  C   UNL     1      -0.227   8.777  20.290  0.00  0.00    +0.000 A 
BRANCH  15  17
ATOM     17  C   UNL     1      -0.919  10.978  19.575  0.00  0.00    +0.000 C 
ATOM     18  C   UNL     1      -1.789  10.660  18.617  0.00  0.00    +0.000 C 
ATOM     19  C   UNL     1      -2.757   9.773  18.021  0.00  0.00    +0.000 C 
ATOM     20  N   UNL     1      -3.088  10.196  16.828  0.00  0.00    +0.000 NA
ATOM     21  N   UNL     1      -2.366  11.460  16.569  0.00  0.00    +0.000 NA
ATOM     22  C   UNL     1      -1.672  11.702  17.634  0.00  0.00    +0.000 C 
ATOM     23  C   UNL     1      -0.835  12.780  18.149  0.00  0.00    +0.000 C 
ATOM     24  C   UNL     1      -0.507  12.342  19.376  0.00  0.00    +0.000 C 
ENDBRANCH  15  17
ENDBRANCH   8  11
BRANCH   5  25
ATOM     25  C   UNL     1       2.520   2.832  20.008  0.00  0.00    +0.000 C 
ATOM     26  F   UNL     1       2.931   1.636  19.484  0.00  0.00    +0.000 F 
ATOM     27  F   UNL     1       3.025   2.876  21.265  0.00  0.00    +0.000 F 
ATOM     28  F   UNL     1       1.169   2.725  20.146  0.00  0.00    +0.000 F 
ENDBRANCH   5  25
BRANCH   1  30
ATOM     29  C   UNL     1       5.302   6.139  15.409  0.00  0.00    +0.000 C 
ATOM     30  C   UNL     1       5.240   4.803  16.157  0.00  0.00    +0.000 C 
ATOM     31  C   UNL     1       6.623   4.369  16.635  0.00  0.00    +0.000 C 
ENDBRANCH   1  30
TORSDOF 4
ENDMDL
MODEL 9
REMARK VINA RESULT:      -8.9      4.146      9.168
REMARK  Name = 
REMARK  6 active torsions:
REMARK  status: ('A' for Active; 'I' for Inactive)
REMARK    1  A    between atoms: C_1  and  C_2
REMARK    2  A    between atoms: C_2  and  C_3
REMARK    3  A    between atoms: C_2  and  C_4
REMARK    4  A    between atoms: C_8  and  C_9
REMARK    5  A    between atoms: N_15  and  C_16
REMARK    6  A    between atoms: C_20  and  C_21
REMARK                            x       y       z     vdW  Elec       q    Type
REMARK                         _______ _______ _______ _____ _____    ______ ____
ROOT
ATOM      1  C   UNL     1       2.828   4.895  20.245  0.00  0.00    +0.000 A 
ATOM      2  C   UNL     1       1.994   5.918  20.697  0.00  0.00    +0.000 A 
ATOM      3  C   UNL     1       1.907   7.056  19.943  0.00  0.00    +0.000 A 
ATOM      4  C   UNL     1       2.656   7.286  18.785  0.00  0.00    +0.000 A 
ATOM      5  C   UNL     1       3.550   6.318  18.347  0.00  0.00    +0.000 A 
ATOM      6  C   UNL     1       3.610   5.109  19.083  0.00  0.00    +0.000 A 
ATOM      7  C   UNL     1       2.287   8.628  18.242  0.00  0.00    +0.000 C 
ATOM      8  N   UNL     1       1.227   9.077  19.144  0.00  0.00    +0.000 N 
ATOM      9  C   UNL     1       1.032   8.180  20.181  0.00  0.00    +0.000 C 
ATOM     10  O   UNL     1       0.322   8.241  21.186  0.00  0.00    +0.000 OA
ENDROOT
BRANCH   8  11
ATOM     11  C   UNL     1       0.687  10.382  19.145  0.00  0.00    +0.000 A 
ATOM     12  C   UNL     1       1.471  11.503  18.812  0.00  0.00    +0.000 A 
ATOM     13  C   UNL     1       0.894  12.751  18.588  0.00  0.00    +0.000 A 
ATOM     14  C   UNL     1      -0.487  12.844  18.542  0.00  0.00    +0.000 A 
ATOM     15  C   UNL     1      -1.249  11.688  18.739  0.00  0.00    +0.000 A 
ATOM     16  C   UNL     1      -0.688  10.536  19.275  0.00  0.00    +0.000 A 
BRANCH  15  17
ATOM     17  C   UNL     1      -2.410  11.490  17.876  0.00  0.00    +0.000 C 
ATOM     18  C   UNL     1      -3.630  11.755  18.343  0.00  0.00    +0.000 C 
ATOM     19  C   UNL     1      -4.524  12.212  19.376  0.00  0.00    +0.000 C 
ATOM     20  N   UNL     1      -5.766  11.981  19.039  0.00  0.00    +0.000 NA
ATOM     21  N   UNL     1      -5.773  11.372  17.691  0.00  0.00    +0.000 NA
ATOM     22  C   UNL     1      -4.536  11.303  17.322  0.00  0.00    +0.000 C 
ATOM     23  C   UNL     1      -3.791  10.942  16.120  0.00  0.00    +0.000 C 
ATOM     24  C   UNL     1      -2.519  11.192  16.472  0.00  0.00    +0.000 C 
ENDBRANCH  15  17
ENDBRANCH   8  11
BRANCH   5  25
ATOM     25  C   UNL     1       4.419   6.481  17.127  0.00  0.00    +0.000 C 
ATOM     26  F   UNL     1       3.956   7.421  16.245  0.00  0.00    +0.000 F 
ATOM     27  F   UNL     1       5.685   6.855  17.432  0.00  0.00    +0.000 F 
ATOM     28  F   UNL     1       4.526   5.329  16.408  0.00  0.00    +0.000 F 
ENDBRANCH   5  25
BRANCH   1  30
ATOM     29  C   UNL     1       1.264   3.114  20.938  0.00  0.00    +0.000 C 
ATOM     30  C   UNL     1       2.727   3.570  20.970  0.00  0.00    +0.000 C 
ATOM     31  C   UNL     1       3.659   2.477  20.454  0.00  0.00    +0.000 C 
ENDBRANCH   1  30
TORSDOF 4
ENDMDL
