MODEL 1
REMARK VINA RESULT:      -8.5      0.000      0.000
REMARK  Name = 
REMARK  5 active torsions:
REMARK  status: ('A' for Active; 'I' for Inactive)
REMARK    1  A    between atoms: C_2  and  C_12
REMARK    2  A    between atoms: N_3  and  C_4
REMARK    3  A    between atoms: C_4  and  C_5
REMARK    4  A    between atoms: N_19  and  C_20
REMARK    5  A    between atoms: C_20  and  C_21
REMARK                            x       y       z     vdW  Elec       q    Type
REMARK                         _______ _______ _______ _____ _____    ______ ____
ROOT
ATOM      1  C   UNL     1       3.163   6.565  18.514  0.00  0.00    +0.000 A 
ATOM      2  C   UNL     1       3.079   7.661  17.654  0.00  0.00    +0.000 A 
ATOM      3  N   UNL     1       2.373   8.804  17.875  0.00  0.00    +0.000 NA
ATOM      4  C   UNL     1       1.749   8.806  19.073  0.00  0.00    +0.000 A 
ATOM      5  C   UNL     1       1.777   7.797  20.030  0.00  0.00    +0.000 A 
ATOM      6  C   UNL     1       1.009   8.306  21.098  0.00  0.00    +0.000 A 
ATOM      7  N   UNL     1       0.519   9.528  20.861  0.00  0.00    +0.000 NA
ATOM      8  N   UNL     1       0.947   9.793  19.596  0.00  0.00    +0.000 N 
ATOM      9  C   UNL     1       2.503   6.628  19.746  0.00  0.00    +0.000 A 
ENDROOT
BRANCH   1  11
ATOM     10  O   UNL     1       4.096   4.434  18.854  0.00  0.00    +0.000 OA
ATOM     11  C   UNL     1       3.981   5.398  18.104  0.00  0.00    +0.000 C 
ATOM     12  N   UNL     1       4.606   5.473  16.880  0.00  0.00    +0.000 N 
ATOM     13  H   UNL     1       4.643   6.341  16.354  0.00  0.00    +0.000 HD
BRANCH  12  14
ATOM     14  C   UNL     1       5.468   4.401  16.404  0.00  0.00    +0.000 C 
BRANCH  14  15
ATOM     15  C   UNL     1       6.590   4.963  15.519  0.00  0.00    +0.000 C 
ATOM     16  O   UNL     1       7.502   5.634  16.008  0.00  0.00    +0.000 OA
ATOM     17  N   UNL     1       6.540   4.666  14.175  0.00  0.00    +0.000 N 
ATOM     18  C   UNL     1       5.525   3.900  13.473  0.00  0.00    +0.000 C 
ATOM     19  C   UNL     1       6.278   3.326  12.285  0.00  0.00    +0.000 C 
ATOM     20  C   UNL     1       7.274   4.426  11.932  0.00  0.00    +0.000 C 
ATOM     21  C   UNL     1       7.582   5.106  13.263  0.00  0.00    +0.000 C 
ENDBRANCH  14  15
ENDBRANCH  12  14
ENDBRANCH   1  11
BRANCH   8  22
ATOM     22  C   UNL     1       0.548  11.028  18.941  0.00  0.00    +0.000 C 
BRANCH  22  23
ATOM     23  C   UNL     1      -0.885  10.948  18.476  0.00  0.00    +0.000 A 
ATOM     24  C   UNL     1      -1.856  11.817  18.999  0.00  0.00    +0.000 A 
ATOM     25  C   UNL     1      -3.197  11.682  18.636  0.00  0.00    +0.000 A 
ATOM     26  C   UNL     1      -3.581  10.679  17.748  0.00  0.00    +0.000 A 
ATOM     27  C   UNL     1      -2.624   9.822  17.209  0.00  0.00    +0.000 A 
ATOM     28  C   UNL     1      -1.283   9.956  17.569  0.00  0.00    +0.000 A 
ENDBRANCH  22  23
ENDBRANCH   8  22
TORSDOF 5
ENDMDL
MODEL 2
REMARK VINA RESULT:      -8.3      1.318      1.892
REMARK  Name = 
REMARK  5 active torsions:
REMARK  status: ('A' for Active; 'I' for Inactive)
REMARK    1  A    between atoms: C_2  and  C_12
REMARK    2  A    between atoms: N_3  and  C_4
REMARK    3  A    between atoms: C_4  and  C_5
REMARK    4  A    between atoms: N_19  and  C_20
REMARK    5  A    between atoms: C_20  and  C_21
REMARK                            x       y       z     vdW  Elec       q    Type
REMARK                         _______ _______ _______ _____ _____    ______ ____
ROOT
ATOM      1  C   UNL     1       2.497   6.677  19.468  0.00  0.00    +0.000 A 
ATOM      2  C   UNL     1       2.402   7.580  18.408  0.00  0.00    +0.000 A 
ATOM      3  N   UNL     1       1.745   8.772  18.425  0.00  0.00    +0.000 NA
ATOM      4  C   UNL     1       1.187   9.041  19.625  0.00  0.00    +0.000 A 
ATOM      5  C   UNL     1       1.235   8.246  20.764  0.00  0.00    +0.000 A 
ATOM      6  C   UNL     1       0.541   8.991  21.741  0.00  0.00    +0.000 A 
ATOM      7  N   UNL     1       0.079  10.160  21.284  0.00  0.00    +0.000 NA
ATOM      8  N   UNL     1       0.447  10.147  19.973  0.00  0.00    +0.000 N 
ATOM      9  C   UNL     1       1.906   7.014  20.691  0.00  0.00    +0.000 A 
ENDROOT
BRANCH   1  11
ATOM     10  O   UNL     1       2.661   4.344  19.218  0.00  0.00    +0.000 OA
ATOM     11  C   UNL     1       3.255   5.418  19.266  0.00  0.00    +0.000 C 
ATOM     12  N   UNL     1       4.623   5.522  19.166  0.00  0.00    +0.000 N 
ATOM     13  H   UNL     1       5.107   6.388  19.382  0.00  0.00    +0.000 HD
BRANCH  12  14
ATOM     14  C   UNL     1       5.462   4.342  19.012  0.00  0.00    +0.000 C 
BRANCH  14  15
ATOM     15  C   UNL     1       6.639   4.636  18.071  0.00  0.00    +0.000 C 
ATOM     16  O   UNL     1       7.781   4.780  18.516  0.00  0.00    +0.000 OA
ATOM     17  N   UNL     1       6.364   4.708  16.723  0.00  0.00    +0.000 N 
ATOM     18  C   UNL     1       5.073   4.568  16.072  0.00  0.00    +0.000 C 
ATOM     19  C   UNL     1       5.432   4.054  14.689  0.00  0.00    +0.000 C 
ATOM     20  C   UNL     1       6.754   4.752  14.383  0.00  0.00    +0.000 C 
ATOM     21  C   UNL     1       7.417   4.929  15.747  0.00  0.00    +0.000 C 
ENDBRANCH  14  15
ENDBRANCH  12  14
ENDBRANCH   1  11
BRANCH   8  22
ATOM     22  C   UNL     1       0.053  11.240  19.100  0.00  0.00    +0.000 C 
BRANCH  22  23
ATOM     23  C   UNL     1      -1.327  11.004  18.535  0.00  0.00    +0.000 A 
ATOM     24  C   UNL     1      -1.528  10.071  17.506  0.00  0.00    +0.000 A 
ATOM     25  C   UNL     1      -2.788   9.919  16.923  0.00  0.00    +0.000 A 
ATOM     26  C   UNL     1      -3.857  10.697  17.363  0.00  0.00    +0.000 A 
ATOM     27  C   UNL     1      -3.673  11.615  18.396  0.00  0.00    +0.000 A 
ATOM     28  C   UNL     1      -2.416  11.767  18.981  0.00  0.00    +0.000 A 
ENDBRANCH  22  23
ENDBRANCH   8  22
TORSDOF 5
ENDMDL
MODEL 3
REMARK VINA RESULT:      -8.2      1.910      2.551
REMARK  Name = 
REMARK  5 active torsions:
REMARK  status: ('A' for Active; 'I' for Inactive)
REMARK    1  A    between atoms: C_2  and  C_12
REMARK    2  A    between atoms: N_3  and  C_4
REMARK    3  A    between atoms: C_4  and  C_5
REMARK    4  A    between atoms: N_19  and  C_20
REMARK    5  A    between atoms: C_20  and  C_21
REMARK                            x       y       z     vdW  Elec       q    Type
REMARK                         _______ _______ _______ _____ _____    ______ ____
ROOT
ATOM      1  C   UNL     1       1.975   7.550  19.576  0.00  0.00    +0.000 A 
ATOM      2  C   UNL     1       1.868   8.623  18.690  0.00  0.00    +0.000 A 
ATOM      3  N   UNL     1       1.320   9.839  18.964  0.00  0.00    +0.000 NA
ATOM      4  C   UNL     1       0.891   9.940  20.241  0.00  0.00    +0.000 A 
ATOM      5  C   UNL     1       0.968   8.963  21.226  0.00  0.00    +0.000 A 
ATOM      6  C   UNL     1       0.427   9.580  22.374  0.00  0.00    +0.000 A 
ATOM      7  N   UNL     1       0.029  10.839  22.159  0.00  0.00    +0.000 NA
ATOM      8  N   UNL     1       0.281  11.021  20.834  0.00  0.00    +0.000 N 
ATOM      9  C   UNL     1       1.522   7.717  20.890  0.00  0.00    +0.000 A 
ENDROOT
BRANCH   1  11
ATOM     10  O   UNL     1       2.151   5.714  18.116  0.00  0.00    +0.000 OA
ATOM     11  C   UNL     1       2.602   6.292  19.100  0.00  0.00    +0.000 C 
ATOM     12  N   UNL     1       3.671   5.815  19.824  0.00  0.00    +0.000 N 
ATOM     13  H   UNL     1       3.919   6.207  20.727  0.00  0.00    +0.000 HD
BRANCH  12  14
ATOM     14  C   UNL     1       4.329   4.566  19.468  0.00  0.00    +0.000 C 
BRANCH  14  15
ATOM     15  C   UNL     1       5.753   4.831  18.962  0.00  0.00    +0.000 C 
ATOM     16  O   UNL     1       6.670   5.068  19.753  0.00  0.00    +0.000 OA
ATOM     17  N   UNL     1       5.959   4.771  17.601  0.00  0.00    +0.000 N 
ATOM     18  C   UNL     1       4.974   4.513  16.565  0.00  0.00    +0.000 C 
ATOM     19  C   UNL     1       5.796   3.896  15.446  0.00  0.00    +0.000 C 
ATOM     20  C   UNL     1       7.131   4.626  15.543  0.00  0.00    +0.000 C 
ATOM     21  C   UNL     1       7.281   4.955  17.026  0.00  0.00    +0.000 C 
ENDBRANCH  14  15
ENDBRANCH  12  14
ENDBRANCH   1  11
BRANCH   8  22
ATOM     22  C   UNL     1      -0.091  12.270  20.191  0.00  0.00    +0.000 C 
BRANCH  22  23
ATOM     23  C   UNL     1      -1.531  12.233  19.741  0.00  0.00    +0.000 A 
ATOM     24  C   UNL     1      -2.550  12.744  20.559  0.00  0.00    +0.000 A 
ATOM     25  C   UNL     1      -3.889  12.627  20.182  0.00  0.00    +0.000 A 
ATOM     26  C   UNL     1      -4.222  11.998  18.983  0.00  0.00    +0.000 A 
ATOM     27  C   UNL     1      -3.218  11.501  18.154  0.00  0.00    +0.000 A 
ATOM     28  C   UNL     1      -1.879  11.619  18.529  0.00  0.00    +0.000 A 
ENDBRANCH  22  23
ENDBRANCH   8  22
TORSDOF 5
ENDMDL
MODEL 4
REMARK VINA RESULT:      -8.1      1.189      1.431
REMARK  Name = 
REMARK  5 active torsions:
REMARK  status: ('A' for Active; 'I' for Inactive)
REMARK    1  A    between atoms: C_2  and  C_12
REMARK    2  A    between atoms: N_3  and  C_4
REMARK    3  A    between atoms: C_4  and  C_5
REMARK    4  A    between atoms: N_19  and  C_20
REMARK    5  A    between atoms: C_20  and  C_21
REMARK                            x       y       z     vdW  Elec       q    Type
REMARK                         _______ _______ _______ _____ _____    ______ ____
ROOT
ATOM      1  C   UNL     1       2.463   6.870  19.359  0.00  0.00    +0.000 A 
ATOM      2  C   UNL     1       2.354   7.727  18.263  0.00  0.00    +0.000 A 
ATOM      3  N   UNL     1       1.685   8.913  18.234  0.00  0.00    +0.000 NA
ATOM      4  C   UNL     1       1.132   9.227  19.425  0.00  0.00    +0.000 A 
ATOM      5  C   UNL     1       1.194   8.480  20.597  0.00  0.00    +0.000 A 
ATOM      6  C   UNL     1       0.498   9.260  21.545  0.00  0.00    +0.000 A 
ATOM      7  N   UNL     1       0.022  10.404  21.043  0.00  0.00    +0.000 NA
ATOM      8  N   UNL     1       0.383  10.339  19.731  0.00  0.00    +0.000 N 
ATOM      9  C   UNL     1       1.876   7.253  20.571  0.00  0.00    +0.000 A 
ENDROOT
BRANCH   1  11
ATOM     10  O   UNL     1       3.744   5.080  20.187  0.00  0.00    +0.000 OA
ATOM     11  C   UNL     1       3.232   5.611  19.206  0.00  0.00    +0.000 C 
ATOM     12  N   UNL     1       3.355   5.106  17.932  0.00  0.00    +0.000 N 
ATOM     13  H   UNL     1       3.077   5.645  17.117  0.00  0.00    +0.000 HD
BRANCH  12  14
ATOM     14  C   UNL     1       4.126   3.900  17.667  0.00  0.00    +0.000 C 
BRANCH  14  15
ATOM     15  C   UNL     1       5.590   4.251  17.366  0.00  0.00    +0.000 C 
ATOM     16  O   UNL     1       6.425   4.303  18.272  0.00  0.00    +0.000 OA
ATOM     17  N   UNL     1       5.923   4.481  16.049  0.00  0.00    +0.000 N 
ATOM     18  C   UNL     1       5.044   4.462  14.894  0.00  0.00    +0.000 C 
ATOM     19  C   UNL     1       5.973   4.089  13.751  0.00  0.00    +0.000 C 
ATOM     20  C   UNL     1       7.286   4.766  14.128  0.00  0.00    +0.000 C 
ATOM     21  C   UNL     1       7.292   4.769  15.654  0.00  0.00    +0.000 C 
ENDBRANCH  14  15
ENDBRANCH  12  14
ENDBRANCH   1  11
BRANCH   8  22
ATOM     22  C   UNL     1      -0.027  11.391  18.815  0.00  0.00    +0.000 C 
BRANCH  22  23
ATOM     23  C   UNL     1      -1.434  11.153  18.322  0.00  0.00    +0.000 A 
ATOM     24  C   UNL     1      -2.503  11.918  18.814  0.00  0.00    +0.000 A 
ATOM     25  C   UNL     1      -3.814  11.636  18.424  0.00  0.00    +0.000 A 
ATOM     26  C   UNL     1      -4.068  10.589  17.541  0.00  0.00    +0.000 A 
ATOM     27  C   UNL     1      -3.013   9.833  17.032  0.00  0.00    +0.000 A 
ATOM     28  C   UNL     1      -1.702  10.114  17.419  0.00  0.00    +0.000 A 
ENDBRANCH  22  23
ENDBRANCH   8  22
TORSDOF 5
ENDMDL
MODEL 5
REMARK VINA RESULT:      -8.0      3.651      9.450
REMARK  Name = 
REMARK  5 active torsions:
REMARK  status: ('A' for Active; 'I' for Inactive)
REMARK    1  A    between atoms: C_2  and  C_12
REMARK    2  A    between atoms: N_3  and  C_4
REMARK    3  A    between atoms: C_4  and  C_5
REMARK    4  A    between atoms: N_19  and  C_20
REMARK    5  A    between atoms: C_20  and  C_21
REMARK                            x       y       z     vdW  Elec       q    Type
REMARK                         _______ _______ _______ _____ _____    ______ ____
ROOT
ATOM      1  C   UNL     1       1.319   9.542  19.028  0.00  0.00    +0.000 A 
ATOM      2  C   UNL     1       2.034   9.222  17.873  0.00  0.00    +0.000 A 
ATOM      3  N   UNL     1       2.719   8.068  17.646  0.00  0.00    +0.000 NA
ATOM      4  C   UNL     1       2.622   7.195  18.672  0.00  0.00    +0.000 A 
ATOM      5  C   UNL     1       1.919   7.377  19.858  0.00  0.00    +0.000 A 
ATOM      6  C   UNL     1       2.102   6.168  20.562  0.00  0.00    +0.000 A 
ATOM      7  N   UNL     1       2.858   5.282  19.904  0.00  0.00    +0.000 NA
ATOM      8  N   UNL     1       3.202   5.952  18.770  0.00  0.00    +0.000 N 
ATOM      9  C   UNL     1       1.245   8.594  20.055  0.00  0.00    +0.000 A 
ENDROOT
BRANCH   1  11
ATOM     10  O   UNL     1       1.004  11.698  19.913  0.00  0.00    +0.000 OA
ATOM     11  C   UNL     1       0.633  10.855  19.101  0.00  0.00    +0.000 C 
ATOM     12  N   UNL     1      -0.429  11.053  18.248  0.00  0.00    +0.000 N 
ATOM     13  H   UNL     1      -0.829  10.290  17.712  0.00  0.00    +0.000 HD
BRANCH  12  14
ATOM     14  C   UNL     1      -1.197  12.289  18.272  0.00  0.00    +0.000 C 
BRANCH  14  15
ATOM     15  C   UNL     1      -2.440  12.136  19.159  0.00  0.00    +0.000 C 
ATOM     16  O   UNL     1      -2.377  12.342  20.374  0.00  0.00    +0.000 OA
ATOM     17  N   UNL     1      -3.617  11.782  18.537  0.00  0.00    +0.000 N 
ATOM     18  C   UNL     1      -3.827  11.502  17.128  0.00  0.00    +0.000 C 
ATOM     19  C   UNL     1      -5.289  11.855  16.914  0.00  0.00    +0.000 C 
ATOM     20  C   UNL     1      -5.947  11.453  18.230  0.00  0.00    +0.000 C 
ATOM     21  C   UNL     1      -4.860  11.662  19.281  0.00  0.00    +0.000 C 
ENDBRANCH  14  15
ENDBRANCH  12  14
ENDBRANCH   1  11
BRANCH   8  22
ATOM     22  C   UNL     1       4.100   5.333  17.809  0.00  0.00    +0.000 C 
BRANCH  22  23
ATOM     23  C   UNL     1       5.518   5.805  18.020  0.00  0.00    +0.000 A 
ATOM     24  C   UNL     1       6.292   5.295  19.074  0.00  0.00    +0.000 A 
ATOM     25  C   UNL     1       7.570   5.798  19.323  0.00  0.00    +0.000 A 
ATOM     26  C   UNL     1       8.087   6.815  18.523  0.00  0.00    +0.000 A 
ATOM     27  C   UNL     1       7.335   7.318  17.463  0.00  0.00    +0.000 A 
ATOM     28  C   UNL     1       6.058   6.816  17.211  0.00  0.00    +0.000 A 
ENDBRANCH  22  23
ENDBRANCH   8  22
TORSDOF 5
ENDMDL
MODEL 6
REMARK VINA RESULT:      -8.0      2.633      3.734
REMARK  Name = 
REMARK  5 active torsions:
REMARK  status: ('A' for Active; 'I' for Inactive)
REMARK    1  A    between atoms: C_2  and  C_12
REMARK    2  A    between atoms: N_3  and  C_4
REMARK    3  A    between atoms: C_4  and  C_5
REMARK    4  A    between atoms: N_19  and  C_20
REMARK    5  A    between atoms: C_20  and  C_21
REMARK                            x       y       z     vdW  Elec       q    Type
REMARK                         _______ _______ _______ _____ _____    ______ ____
ROOT
ATOM      1  C   UNL     1       1.893   7.680  19.846  0.00  0.00    +0.000 A 
ATOM      2  C   UNL     1       1.688   8.838  19.095  0.00  0.00    +0.000 A 
ATOM      3  N   UNL     1       1.105   9.988  19.534  0.00  0.00    +0.000 NA
ATOM      4  C   UNL     1       0.750   9.926  20.836  0.00  0.00    +0.000 A 
ATOM      5  C   UNL     1       0.927   8.850  21.699  0.00  0.00    +0.000 A 
ATOM      6  C   UNL     1       0.430   9.309  22.937  0.00  0.00    +0.000 A 
ATOM      7  N   UNL     1      -0.034  10.563  22.889  0.00  0.00    +0.000 NA
ATOM      8  N   UNL     1       0.131  10.902  21.580  0.00  0.00    +0.000 N 
ATOM      9  C   UNL     1       1.513   7.678  21.193  0.00  0.00    +0.000 A 
ENDROOT
BRANCH   1  11
ATOM     10  O   UNL     1       2.255   6.215  18.042  0.00  0.00    +0.000 OA
ATOM     11  C   UNL     1       2.544   6.515  19.197  0.00  0.00    +0.000 C 
ATOM     12  N   UNL     1       3.442   5.799  19.954  0.00  0.00    +0.000 N 
ATOM     13  H   UNL     1       3.536   5.954  20.953  0.00  0.00    +0.000 HD
BRANCH  12  14
ATOM     14  C   UNL     1       4.101   4.614  19.427  0.00  0.00    +0.000 C 
BRANCH  14  15
ATOM     15  C   UNL     1       5.530   4.945  18.977  0.00  0.00    +0.000 C 
ATOM     16  O   UNL     1       6.391   5.269  19.800  0.00  0.00    +0.000 OA
ATOM     17  N   UNL     1       5.806   4.843  17.632  0.00  0.00    +0.000 N 
ATOM     18  C   UNL     1       4.892   4.485  16.562  0.00  0.00    +0.000 C 
ATOM     19  C   UNL     1       5.803   3.876  15.511  0.00  0.00    +0.000 C 
ATOM     20  C   UNL     1       7.086   4.689  15.640  0.00  0.00    +0.000 C 
ATOM     21  C   UNL     1       7.142   5.085  17.113  0.00  0.00    +0.000 C 
ENDBRANCH  14  15
ENDBRANCH  12  14
ENDBRANCH   1  11
BRANCH   8  22
ATOM     22  C   UNL     1      -0.332  12.196  21.106  0.00  0.00    +0.000 C 
BRANCH  22  23
ATOM     23  C   UNL     1      -1.295  12.814  22.089  0.00  0.00    +0.000 A 
ATOM     24  C   UNL     1      -0.871  13.823  22.969  0.00  0.00    +0.000 A 
ATOM     25  C   UNL     1      -1.739  14.329  23.938  0.00  0.00    +0.000 A 
ATOM     26  C   UNL     1      -3.037  13.832  24.039  0.00  0.00    +0.000 A 
ATOM     27  C   UNL     1      -3.475  12.843  23.160  0.00  0.00    +0.000 A 
ATOM     28  C   UNL     1      -2.610  12.337  22.190  0.00  0.00    +0.000 A 
ENDBRANCH  22  23
ENDBRANCH   8  22
TORSDOF 5
ENDMDL
MODEL 7
REMARK VINA RESULT:      -7.9      1.938      2.718
REMARK  Name = 
REMARK  5 active torsions:
REMARK  status: ('A' for Active; 'I' for Inactive)
REMARK    1  A    between atoms: C_2  and  C_12
REMARK    2  A    between atoms: N_3  and  C_4
REMARK    3  A    between atoms: C_4  and  C_5
REMARK    4  A    between atoms: N_19  and  C_20
REMARK    5  A    between atoms: C_20  and  C_21
REMARK                            x       y       z     vdW  Elec       q    Type
REMARK                         _______ _______ _______ _____ _____    ______ ____
ROOT
ATOM      1  C   UNL     1       1.723   7.456  20.234  0.00  0.00    +0.000 A 
ATOM      2  C   UNL     1       1.665   8.154  19.027  0.00  0.00    +0.000 A 
ATOM      3  N   UNL     1       1.083   9.369  18.829  0.00  0.00    +0.000 NA
ATOM      4  C   UNL     1       0.564   9.888  19.963  0.00  0.00    +0.000 A 
ATOM      5  C   UNL     1       0.584   9.313  21.228  0.00  0.00    +0.000 A 
ATOM      6  C   UNL     1      -0.045  10.267  22.056  0.00  0.00    +0.000 A 
ATOM      7  N   UNL     1      -0.443  11.360  21.396  0.00  0.00    +0.000 NA
ATOM      8  N   UNL     1      -0.100  11.084  20.107  0.00  0.00    +0.000 N 
ATOM      9  C   UNL     1       1.176   8.048  21.378  0.00  0.00    +0.000 A 
ENDROOT
BRANCH   1  11
ATOM     10  O   UNL     1       1.916   5.212  20.912  0.00  0.00    +0.000 OA
ATOM     11  C   UNL     1       2.398   6.135  20.261  0.00  0.00    +0.000 C 
ATOM     12  N   UNL     1       3.573   6.020  19.556  0.00  0.00    +0.000 N 
ATOM     13  H   UNL     1       4.044   6.833  19.171  0.00  0.00    +0.000 HD
BRANCH  12  14
ATOM     14  C   UNL     1       4.337   4.781  19.555  0.00  0.00    +0.000 C 
BRANCH  14  15
ATOM     15  C   UNL     1       5.750   5.017  19.005  0.00  0.00    +0.000 C 
ATOM     16  O   UNL     1       6.686   5.281  19.764  0.00  0.00    +0.000 OA
ATOM     17  N   UNL     1       5.923   4.901  17.643  0.00  0.00    +0.000 N 
ATOM     18  C   UNL     1       4.913   4.606  16.642  0.00  0.00    +0.000 C 
ATOM     19  C   UNL     1       5.704   3.940  15.530  0.00  0.00    +0.000 C 
ATOM     20  C   UNL     1       7.045   4.666  15.566  0.00  0.00    +0.000 C 
ATOM     21  C   UNL     1       7.232   5.054  17.030  0.00  0.00    +0.000 C 
ENDBRANCH  14  15
ENDBRANCH  12  14
ENDBRANCH   1  11
BRANCH   8  22
ATOM     22  C   UNL     1      -0.441  12.022  19.051  0.00  0.00    +0.000 C 
BRANCH  22  23
ATOM     23  C   UNL     1      -1.794  11.699  18.464  0.00  0.00    +0.000 A 
ATOM     24  C   UNL     1      -1.901  11.128  17.186  0.00  0.00    +0.000 A 
ATOM     25  C   UNL     1      -3.154  10.914  16.609  0.00  0.00    +0.000 A 
ATOM     26  C   UNL     1      -4.310  11.267  17.302  0.00  0.00    +0.000 A 
ATOM     27  C   UNL     1      -4.217  11.819  18.578  0.00  0.00    +0.000 A 
ATOM     28  C   UNL     1      -2.966  12.033  19.158  0.00  0.00    +0.000 A 
ENDBRANCH  22  23
ENDBRANCH   8  22
TORSDOF 5
ENDMDL
MODEL 8
REMARK VINA RESULT:      -7.9      1.670      2.183
REMARK  Name = 
REMARK  5 active torsions:
REMARK  status: ('A' for Active; 'I' for Inactive)
REMARK    1  A    between atoms: C_2  and  C_12
REMARK    2  A    between atoms: N_3  and  C_4
REMARK    3  A    between atoms: C_4  and  C_5
REMARK    4  A    between atoms: N_19  and  C_20
REMARK    5  A    between atoms: C_20  and  C_21
REMARK                            x       y       z     vdW  Elec       q    Type
REMARK                         _______ _______ _______ _____ _____    ______ ____
ROOT
ATOM      1  C   UNL     1       2.272   6.941  19.790  0.00  0.00    +0.000 A 
ATOM      2  C   UNL     1       2.184   7.719  18.635  0.00  0.00    +0.000 A 
ATOM      3  N   UNL     1       1.551   8.920  18.523  0.00  0.00    +0.000 NA
ATOM      4  C   UNL     1       1.012   9.335  19.689  0.00  0.00    +0.000 A 
ATOM      5  C   UNL     1       1.056   8.672  20.911  0.00  0.00    +0.000 A 
ATOM      6  C   UNL     1       0.389   9.538  21.803  0.00  0.00    +0.000 A 
ATOM      7  N   UNL     1      -0.055  10.657  21.221  0.00  0.00    +0.000 NA
ATOM      8  N   UNL     1       0.298  10.488  19.917  0.00  0.00    +0.000 N 
ATOM      9  C   UNL     1       1.702   7.426  20.972  0.00  0.00    +0.000 A 
ENDROOT
BRANCH   1  11
ATOM     10  O   UNL     1       2.467   4.620  20.123  0.00  0.00    +0.000 OA
ATOM     11  C   UNL     1       3.002   5.651  19.725  0.00  0.00    +0.000 C 
ATOM     12  N   UNL     1       4.287   5.684  19.232  0.00  0.00    +0.000 N 
ATOM     13  H   UNL     1       4.772   6.562  19.073  0.00  0.00    +0.000 HD
BRANCH  12  14
ATOM     14  C   UNL     1       5.104   4.482  19.169  0.00  0.00    +0.000 C 
BRANCH  14  15
ATOM     15  C   UNL     1       4.926   3.778  17.816  0.00  0.00    +0.000 C 
ATOM     16  O   UNL     1       4.028   2.949  17.651  0.00  0.00    +0.000 OA
ATOM     17  N   UNL     1       5.792   4.131  16.805  0.00  0.00    +0.000 N 
ATOM     18  C   UNL     1       6.891   5.078  16.867  0.00  0.00    +0.000 C 
ATOM     19  C   UNL     1       7.015   5.566  15.433  0.00  0.00    +0.000 C 
ATOM     20  C   UNL     1       6.666   4.332  14.608  0.00  0.00    +0.000 C 
ATOM     21  C   UNL     1       5.672   3.560  15.473  0.00  0.00    +0.000 C 
ENDBRANCH  14  15
ENDBRANCH  12  14
ENDBRANCH   1  11
BRANCH   8  22
ATOM     22  C   UNL     1      -0.084  11.484  18.929  0.00  0.00    +0.000 C 
BRANCH  22  23
ATOM     23  C   UNL     1      -1.474  11.214  18.406  0.00  0.00    +0.000 A 
ATOM     24  C   UNL     1      -2.569  11.960  18.868  0.00  0.00    +0.000 A 
ATOM     25  C   UNL     1      -3.865  11.649  18.452  0.00  0.00    +0.000 A 
ATOM     26  C   UNL     1      -4.079  10.590  17.572  0.00  0.00    +0.000 A 
ATOM     27  C   UNL     1      -2.998   9.852  17.093  0.00  0.00    +0.000 A 
ATOM     28  C   UNL     1      -1.702  10.163  17.506  0.00  0.00    +0.000 A 
ENDBRANCH  22  23
ENDBRANCH   8  22
TORSDOF 5
ENDMDL
MODEL 9
REMARK VINA RESULT:      -7.9      3.808      9.249
REMARK  Name = 
REMARK  5 active torsions:
REMARK  status: ('A' for Active; 'I' for Inactive)
REMARK    1  A    between atoms: C_2  and  C_12
REMARK    2  A    between atoms: N_3  and  C_4
REMARK    3  A    between atoms: C_4  and  C_5
REMARK    4  A    between atoms: N_19  and  C_20
REMARK    5  A    between atoms: C_20  and  C_21
REMARK                            x       y       z     vdW  Elec       q    Type
REMARK                         _______ _______ _______ _____ _____    ______ ____
ROOT
ATOM      1  C   UNL     1       1.316   9.345  18.953  0.00  0.00    +0.000 A 
ATOM      2  C   UNL     1       1.408   8.473  20.038  0.00  0.00    +0.000 A 
ATOM      3  N   UNL     1       2.178   7.352  20.105  0.00  0.00    +0.000 NA
ATOM      4  C   UNL     1       2.910   7.157  18.987  0.00  0.00    +0.000 A 
ATOM      5  C   UNL     1       2.935   7.964  17.855  0.00  0.00    +0.000 A 
ATOM      6  C   UNL     1       3.881   7.349  17.008  0.00  0.00    +0.000 A 
ATOM      7  N   UNL     1       4.420   6.242  17.532  0.00  0.00    +0.000 NA
ATOM      8  N   UNL     1       3.775   6.121  18.725  0.00  0.00    +0.000 N 
ATOM      9  C   UNL     1       2.106   9.098  17.825  0.00  0.00    +0.000 A 
ENDROOT
BRANCH   1  11
ATOM     10  O   UNL     1       0.596  11.355  19.940  0.00  0.00    +0.000 OA
ATOM     11  C   UNL     1       0.417  10.521  19.057  0.00  0.00    +0.000 C 
ATOM     12  N   UNL     1      -0.613  10.601  18.148  0.00  0.00    +0.000 N 
ATOM     13  H   UNL     1      -0.850   9.821  17.543  0.00  0.00    +0.000 HD
BRANCH  12  14
ATOM     14  C   UNL     1      -1.578  11.690  18.193  0.00  0.00    +0.000 C 
BRANCH  14  15
ATOM     15  C   UNL     1      -2.772  11.392  17.275  0.00  0.00    +0.000 C 
ATOM     16  O   UNL     1      -2.598  10.922  16.148  0.00  0.00    +0.000 OA
ATOM     17  N   UNL     1      -4.029  11.650  17.775  0.00  0.00    +0.000 N 
ATOM     18  C   UNL     1      -4.372  12.207  19.072  0.00  0.00    +0.000 C 
ATOM     19  C   UNL     1      -5.756  11.642  19.342  0.00  0.00    +0.000 C 
ATOM     20  C   UNL     1      -6.394  11.592  17.957  0.00  0.00    +0.000 C 
ATOM     21  C   UNL     1      -5.225  11.353  17.005  0.00  0.00    +0.000 C 
ENDBRANCH  14  15
ENDBRANCH  12  14
ENDBRANCH   1  11
BRANCH   8  22
ATOM     22  C   UNL     1       4.041   4.973  19.576  0.00  0.00    +0.000 C 
BRANCH  22  23
ATOM     23  C   UNL     1       2.867   4.024  19.578  0.00  0.00    +0.000 A 
ATOM     24  C   UNL     1       2.425   3.430  18.385  0.00  0.00    +0.000 A 
ATOM     25  C   UNL     1       1.285   2.626  18.374  0.00  0.00    +0.000 A 
ATOM     26  C   UNL     1       0.574   2.407  19.553  0.00  0.00    +0.000 A 
ATOM     27  C   UNL     1       1.013   2.977  20.747  0.00  0.00    +0.000 A 
ATOM     28  C   UNL     1       2.153   3.781  20.761  0.00  0.00    +0.000 A 
ENDBRANCH  22  23
ENDBRANCH   8  22
TORSDOF 5
ENDMDL
