MODEL 1
REMARK VINA RESULT:      -8.1      0.000      0.000
REMARK  Name = 
REMARK  3 active torsions:
REMARK  status: ('A' for Active; 'I' for Inactive)
REMARK    1  A    between atoms: C_2  and  C_15
REMARK    2  A    between atoms: C_7  and  C_8
REMARK    3  A    between atoms: C_19  and  C_20
REMARK                            x       y       z     vdW  Elec       q    Type
REMARK                         _______ _______ _______ _____ _____    ______ ____
ROOT
ATOM      1  O   UNL     1       1.540   8.693  18.429  0.00  0.00    +0.000 OA
ATOM      2  C   UNL     1       2.014   7.963  19.291  0.00  0.00    +0.000 C 
ATOM      3  N   UNL     1       1.861   8.075  20.655  0.00  0.00    +0.000 N 
ATOM      4  C   UNL     1       1.088   9.010  21.302  0.00  0.00    +0.000 A 
ATOM      5  N   UNL     1       1.138   9.196  22.601  0.00  0.00    +0.000 NA
ATOM      6  N   UNL     1       0.256  10.176  23.017  0.00  0.00    +0.000 NA
ATOM      7  C   UNL     1      -0.440  10.686  22.017  0.00  0.00    +0.000 A 
ATOM      8  S   UNL     1      -0.059   9.973  20.499  0.00  0.00    +0.000 S 
ATOM      9  H   UNL     1       2.446   7.538  21.280  0.00  0.00    +0.000 HD
ENDROOT
BRANCH   7  10
ATOM     10  C   UNL     1      -1.502  11.693  22.142  0.00  0.00    +0.000 A 
ATOM     11  C   UNL     1      -1.827  12.584  21.105  0.00  0.00    +0.000 A 
ATOM     12  C   UNL     1      -2.877  13.495  21.243  0.00  0.00    +0.000 A 
ATOM     13  C   UNL     1      -3.616  13.533  22.424  0.00  0.00    +0.000 A 
ATOM     14  C   UNL     1      -3.294  12.675  23.471  0.00  0.00    +0.000 A 
ATOM     15  C   UNL     1      -2.241  11.766  23.334  0.00  0.00    +0.000 A 
ENDBRANCH   7  10
BRANCH   2  16
ATOM     16  C   UNL     1       2.912   6.864  18.850  0.00  0.00    +0.000 A 
ATOM     17  C   UNL     1       3.036   5.743  19.679  0.00  0.00    +0.000 A 
ATOM     18  C   UNL     1       3.869   4.688  19.311  0.00  0.00    +0.000 A 
ATOM     19  C   UNL     1       4.586   4.751  18.116  0.00  0.00    +0.000 A 
ATOM     20  C   UNL     1       4.484   5.875  17.279  0.00  0.00    +0.000 A 
ATOM     21  C   UNL     1       3.644   6.937  17.658  0.00  0.00    +0.000 A 
BRANCH  20  22
ATOM     22  C   UNL     1       5.261   5.952  15.984  0.00  0.00    +0.000 C 
ATOM     23  F   UNL     1       6.601   6.110  16.160  0.00  0.00    +0.000 F 
ATOM     24  F   UNL     1       5.109   4.828  15.233  0.00  0.00    +0.000 F 
ATOM     25  F   UNL     1       4.858   6.986  15.199  0.00  0.00    +0.000 F 
ENDBRANCH  20  22
ENDBRANCH   2  16
TORSDOF 3
ENDMDL
MODEL 2
REMARK VINA RESULT:      -8.1      2.082      2.558
REMARK  Name = 
REMARK  3 active torsions:
REMARK  status: ('A' for Active; 'I' for Inactive)
REMARK    1  A    between atoms: C_2  and  C_15
REMARK    2  A    between atoms: C_7  and  C_8
REMARK    3  A    between atoms: C_19  and  C_20
REMARK                            x       y       z     vdW  Elec       q    Type
REMARK                         _______ _______ _______ _____ _____    ______ ____
ROOT
ATOM      1  O   UNL     1       1.821   8.376  17.912  0.00  0.00    +0.000 OA
ATOM      2  C   UNL     1       2.210   7.548  18.727  0.00  0.00    +0.000 C 
ATOM      3  N   UNL     1       2.074   7.599  20.097  0.00  0.00    +0.000 N 
ATOM      4  C   UNL     1       1.415   8.577  20.803  0.00  0.00    +0.000 A 
ATOM      5  N   UNL     1       1.488   8.680  22.109  0.00  0.00    +0.000 NA
ATOM      6  N   UNL     1       0.724   9.729  22.589  0.00  0.00    +0.000 NA
ATOM      7  C   UNL     1       0.089  10.371  21.625  0.00  0.00    +0.000 A 
ATOM      8  S   UNL     1       0.382   9.708  20.065  0.00  0.00    +0.000 S 
ATOM      9  H   UNL     1       2.596   6.963  20.685  0.00  0.00    +0.000 HD
ENDROOT
BRANCH   7  10
ATOM     10  C   UNL     1      -0.851  11.484  21.817  0.00  0.00    +0.000 A 
ATOM     11  C   UNL     1      -1.109  12.438  20.818  0.00  0.00    +0.000 A 
ATOM     12  C   UNL     1      -2.047  13.453  21.019  0.00  0.00    +0.000 A 
ATOM     13  C   UNL     1      -2.739  13.533  22.226  0.00  0.00    +0.000 A 
ATOM     14  C   UNL     1      -2.480  12.611  23.236  0.00  0.00    +0.000 A 
ATOM     15  C   UNL     1      -1.539  11.598  23.036  0.00  0.00    +0.000 A 
ENDBRANCH   7  10
BRANCH   2  16
ATOM     16  C   UNL     1       2.976   6.382  18.216  0.00  0.00    +0.000 A 
ATOM     17  C   UNL     1       4.093   6.631  17.411  0.00  0.00    +0.000 A 
ATOM     18  C   UNL     1       4.842   5.570  16.904  0.00  0.00    +0.000 A 
ATOM     19  C   UNL     1       4.474   4.256  17.195  0.00  0.00    +0.000 A 
ATOM     20  C   UNL     1       3.347   3.988  17.990  0.00  0.00    +0.000 A 
ATOM     21  C   UNL     1       2.594   5.063  18.496  0.00  0.00    +0.000 A 
BRANCH  20  22
ATOM     22  C   UNL     1       2.939   2.567  18.306  0.00  0.00    +0.000 C 
ATOM     23  F   UNL     1       3.970   1.782  18.723  0.00  0.00    +0.000 F 
ATOM     24  F   UNL     1       2.004   2.515  19.293  0.00  0.00    +0.000 F 
ATOM     25  F   UNL     1       2.392   1.935  17.234  0.00  0.00    +0.000 F 
ENDBRANCH  20  22
ENDBRANCH   2  16
TORSDOF 3
ENDMDL
MODEL 3
REMARK VINA RESULT:      -8.0      2.224      2.764
REMARK  Name = 
REMARK  3 active torsions:
REMARK  status: ('A' for Active; 'I' for Inactive)
REMARK    1  A    between atoms: C_2  and  C_15
REMARK    2  A    between atoms: C_7  and  C_8
REMARK    3  A    between atoms: C_19  and  C_20
REMARK                            x       y       z     vdW  Elec       q    Type
REMARK                         _______ _______ _______ _____ _____    ______ ____
ROOT
ATOM      1  O   UNL     1       2.027   8.585  17.982  0.00  0.00    +0.000 OA
ATOM      2  C   UNL     1       2.198   7.669  18.777  0.00  0.00    +0.000 C 
ATOM      3  N   UNL     1       1.938   7.679  20.129  0.00  0.00    +0.000 N 
ATOM      4  C   UNL     1       1.375   8.719  20.831  0.00  0.00    +0.000 A 
ATOM      5  N   UNL     1       1.335   8.749  22.143  0.00  0.00    +0.000 NA
ATOM      6  N   UNL     1       0.703   9.886  22.615  0.00  0.00    +0.000 NA
ATOM      7  C   UNL     1       0.276  10.666  21.638  0.00  0.00    +0.000 A 
ATOM      8  S   UNL     1       0.613  10.036  20.074  0.00  0.00    +0.000 S 
ATOM      9  H   UNL     1       2.292   6.941  20.722  0.00  0.00    +0.000 HD
ENDROOT
BRANCH   7  10
ATOM     10  C   UNL     1      -0.491  11.908  21.812  0.00  0.00    +0.000 A 
ATOM     11  C   UNL     1      -0.514  12.925  20.843  0.00  0.00    +0.000 A 
ATOM     12  C   UNL     1      -1.295  14.070  21.021  0.00  0.00    +0.000 A 
ATOM     13  C   UNL     1      -2.061  14.218  22.176  0.00  0.00    +0.000 A 
ATOM     14  C   UNL     1      -2.031  13.232  23.158  0.00  0.00    +0.000 A 
ATOM     15  C   UNL     1      -1.247  12.089  22.981  0.00  0.00    +0.000 A 
ENDBRANCH   7  10
BRANCH   2  16
ATOM     16  C   UNL     1       2.816   6.418  18.267  0.00  0.00    +0.000 A 
ATOM     17  C   UNL     1       4.010   6.522  17.544  0.00  0.00    +0.000 A 
ATOM     18  C   UNL     1       4.626   5.377  17.041  0.00  0.00    +0.000 A 
ATOM     19  C   UNL     1       4.050   4.125  17.254  0.00  0.00    +0.000 A 
ATOM     20  C   UNL     1       2.845   4.003  17.967  0.00  0.00    +0.000 A 
ATOM     21  C   UNL     1       2.226   5.163  18.469  0.00  0.00    +0.000 A 
BRANCH  20  22
ATOM     22  C   UNL     1       2.212   2.650  18.199  0.00  0.00    +0.000 C 
ATOM     23  F   UNL     1       0.861   2.699  18.356  0.00  0.00    +0.000 F 
ATOM     24  F   UNL     1       2.440   1.799  17.162  0.00  0.00    +0.000 F 
ATOM     25  F   UNL     1       2.700   2.033  19.307  0.00  0.00    +0.000 F 
ENDBRANCH  20  22
ENDBRANCH   2  16
TORSDOF 3
ENDMDL
MODEL 4
REMARK VINA RESULT:      -8.0      0.339      1.290
REMARK  Name = 
REMARK  3 active torsions:
REMARK  status: ('A' for Active; 'I' for Inactive)
REMARK    1  A    between atoms: C_2  and  C_15
REMARK    2  A    between atoms: C_7  and  C_8
REMARK    3  A    between atoms: C_19  and  C_20
REMARK                            x       y       z     vdW  Elec       q    Type
REMARK                         _______ _______ _______ _____ _____    ______ ____
ROOT
ATOM      1  O   UNL     1       1.448   8.886  18.599  0.00  0.00    +0.000 OA
ATOM      2  C   UNL     1       1.873   8.100  19.439  0.00  0.00    +0.000 C 
ATOM      3  N   UNL     1       1.698   8.163  20.803  0.00  0.00    +0.000 N 
ATOM      4  C   UNL     1       0.953   9.103  21.475  0.00  0.00    +0.000 A 
ATOM      5  N   UNL     1       0.985   9.232  22.781  0.00  0.00    +0.000 NA
ATOM      6  N   UNL     1       0.137  10.232  23.222  0.00  0.00    +0.000 NA
ATOM      7  C   UNL     1      -0.515  10.813  22.231  0.00  0.00    +0.000 A 
ATOM      8  S   UNL     1      -0.135  10.148  20.692  0.00  0.00    +0.000 S 
ATOM      9  H   UNL     1       2.247   7.575  21.415  0.00  0.00    +0.000 HD
ENDROOT
BRANCH   7  10
ATOM     10  C   UNL     1      -1.535  11.860  22.380  0.00  0.00    +0.000 A 
ATOM     11  C   UNL     1      -2.512  11.827  23.389  0.00  0.00    +0.000 A 
ATOM     12  C   UNL     1      -3.435  12.867  23.531  0.00  0.00    +0.000 A 
ATOM     13  C   UNL     1      -3.398  13.954  22.660  0.00  0.00    +0.000 A 
ATOM     14  C   UNL     1      -2.453  13.993  21.638  0.00  0.00    +0.000 A 
ATOM     15  C   UNL     1      -1.533  12.951  21.496  0.00  0.00    +0.000 A 
ENDBRANCH   7  10
BRANCH   2  16
ATOM     16  C   UNL     1       2.731   6.983  18.968  0.00  0.00    +0.000 A 
ATOM     17  C   UNL     1       2.764   5.811  19.733  0.00  0.00    +0.000 A 
ATOM     18  C   UNL     1       3.557   4.736  19.336  0.00  0.00    +0.000 A 
ATOM     19  C   UNL     1       4.325   4.829  18.175  0.00  0.00    +0.000 A 
ATOM     20  C   UNL     1       4.315   6.003  17.402  0.00  0.00    +0.000 A 
ATOM     21  C   UNL     1       3.515   7.085  17.811  0.00  0.00    +0.000 A 
BRANCH  20  22
ATOM     22  C   UNL     1       5.148   6.113  16.145  0.00  0.00    +0.000 C 
ATOM     23  F   UNL     1       4.714   7.074  15.285  0.00  0.00    +0.000 F 
ATOM     24  F   UNL     1       6.446   6.413  16.421  0.00  0.00    +0.000 F 
ATOM     25  F   UNL     1       5.172   4.953  15.436  0.00  0.00    +0.000 F 
ENDBRANCH  20  22
ENDBRANCH   2  16
TORSDOF 3
ENDMDL
MODEL 5
REMARK VINA RESULT:      -8.0      0.815      1.047
REMARK  Name = 
REMARK  3 active torsions:
REMARK  status: ('A' for Active; 'I' for Inactive)
REMARK    1  A    between atoms: C_2  and  C_15
REMARK    2  A    between atoms: C_7  and  C_8
REMARK    3  A    between atoms: C_19  and  C_20
REMARK                            x       y       z     vdW  Elec       q    Type
REMARK                         _______ _______ _______ _____ _____    ______ ____
ROOT
ATOM      1  O   UNL     1       1.467   9.137  18.620  0.00  0.00    +0.000 OA
ATOM      2  C   UNL     1       1.813   8.227  19.363  0.00  0.00    +0.000 C 
ATOM      3  N   UNL     1       1.655   8.159  20.729  0.00  0.00    +0.000 N 
ATOM      4  C   UNL     1       1.017   9.092  21.511  0.00  0.00    +0.000 A 
ATOM      5  N   UNL     1       1.071   9.075  22.823  0.00  0.00    +0.000 NA
ATOM      6  N   UNL     1       0.335  10.103  23.384  0.00  0.00    +0.000 NA
ATOM      7  C   UNL     1      -0.260  10.851  22.473  0.00  0.00    +0.000 A 
ATOM      8  S   UNL     1       0.037  10.321  20.864  0.00  0.00    +0.000 S 
ATOM      9  H   UNL     1       2.145   7.455  21.265  0.00  0.00    +0.000 HD
ENDROOT
BRANCH   7  10
ATOM     10  C   UNL     1      -1.166  11.975  22.751  0.00  0.00    +0.000 A 
ATOM     11  C   UNL     1      -0.802  13.313  22.528  0.00  0.00    +0.000 A 
ATOM     12  C   UNL     1      -1.707  14.352  22.756  0.00  0.00    +0.000 A 
ATOM     13  C   UNL     1      -2.991  14.068  23.219  0.00  0.00    +0.000 A 
ATOM     14  C   UNL     1      -3.362  12.750  23.469  0.00  0.00    +0.000 A 
ATOM     15  C   UNL     1      -2.455  11.712  23.243  0.00  0.00    +0.000 A 
ENDBRANCH   7  10
BRANCH   2  16
ATOM     16  C   UNL     1       2.548   7.085  18.760  0.00  0.00    +0.000 A 
ATOM     17  C   UNL     1       2.266   5.798  19.232  0.00  0.00    +0.000 A 
ATOM     18  C   UNL     1       2.931   4.694  18.701  0.00  0.00    +0.000 A 
ATOM     19  C   UNL     1       3.886   4.873  17.700  0.00  0.00    +0.000 A 
ATOM     20  C   UNL     1       4.192   6.159  17.223  0.00  0.00    +0.000 A 
ATOM     21  C   UNL     1       3.519   7.268  17.766  0.00  0.00    +0.000 A 
BRANCH  20  22
ATOM     22  C   UNL     1       5.228   6.360  16.141  0.00  0.00    +0.000 C 
ATOM     23  F   UNL     1       5.649   5.202  15.564  0.00  0.00    +0.000 F 
ATOM     24  F   UNL     1       4.758   7.137  15.127  0.00  0.00    +0.000 F 
ATOM     25  F   UNL     1       6.346   6.981  16.603  0.00  0.00    +0.000 F 
ENDBRANCH  20  22
ENDBRANCH   2  16
TORSDOF 3
ENDMDL
MODEL 6
REMARK VINA RESULT:      -8.0      2.842      3.437
REMARK  Name = 
REMARK  3 active torsions:
REMARK  status: ('A' for Active; 'I' for Inactive)
REMARK    1  A    between atoms: C_2  and  C_15
REMARK    2  A    between atoms: C_7  and  C_8
REMARK    3  A    between atoms: C_19  and  C_20
REMARK                            x       y       z     vdW  Elec       q    Type
REMARK                         _______ _______ _______ _____ _____    ______ ____
ROOT
ATOM      1  O   UNL     1       1.716   8.558  19.165  0.00  0.00    +0.000 OA
ATOM      2  C   UNL     1       1.749   7.772  20.104  0.00  0.00    +0.000 C 
ATOM      3  N   UNL     1       1.311   7.992  21.391  0.00  0.00    +0.000 N 
ATOM      4  C   UNL     1       0.693   9.133  21.846  0.00  0.00    +0.000 A 
ATOM      5  N   UNL     1       0.479   9.364  23.120  0.00  0.00    +0.000 NA
ATOM      6  N   UNL     1      -0.173  10.567  23.325  0.00  0.00    +0.000 NA
ATOM      7  C   UNL     1      -0.439  11.194  22.193  0.00  0.00    +0.000 A 
ATOM      8  S   UNL     1       0.083  10.328  20.802  0.00  0.00    +0.000 S 
ATOM      9  H   UNL     1       1.558   7.349  22.131  0.00  0.00    +0.000 HD
ENDROOT
BRANCH   7  10
ATOM     10  C   UNL     1      -1.182  12.457  22.072  0.00  0.00    +0.000 A 
ATOM     11  C   UNL     1      -1.905  12.802  20.918  0.00  0.00    +0.000 A 
ATOM     12  C   UNL     1      -2.640  13.988  20.859  0.00  0.00    +0.000 A 
ATOM     13  C   UNL     1      -2.658  14.852  21.952  0.00  0.00    +0.000 A 
ATOM     14  C   UNL     1      -1.928  14.539  23.095  0.00  0.00    +0.000 A 
ATOM     15  C   UNL     1      -1.190  13.353  23.152  0.00  0.00    +0.000 A 
ENDBRANCH   7  10
BRANCH   2  16
ATOM     16  C   UNL     1       2.389   6.450  19.878  0.00  0.00    +0.000 A 
ATOM     17  C   UNL     1       3.458   6.383  18.978  0.00  0.00    +0.000 A 
ATOM     18  C   UNL     1       4.089   5.166  18.728  0.00  0.00    +0.000 A 
ATOM     19  C   UNL     1       3.650   4.009  19.372  0.00  0.00    +0.000 A 
ATOM     20  C   UNL     1       2.568   4.055  20.268  0.00  0.00    +0.000 A 
ATOM     21  C   UNL     1       1.935   5.287  20.513  0.00  0.00    +0.000 A 
BRANCH  20  22
ATOM     22  C   UNL     1       2.084   2.805  20.966  0.00  0.00    +0.000 C 
ATOM     23  F   UNL     1       0.927   2.981  21.662  0.00  0.00    +0.000 F 
ATOM     24  F   UNL     1       1.844   1.793  20.088  0.00  0.00    +0.000 F 
ATOM     25  F   UNL     1       2.992   2.324  21.857  0.00  0.00    +0.000 F 
ENDBRANCH  20  22
ENDBRANCH   2  16
TORSDOF 3
ENDMDL
MODEL 7
REMARK VINA RESULT:      -8.0      1.306      1.533
REMARK  Name = 
REMARK  3 active torsions:
REMARK  status: ('A' for Active; 'I' for Inactive)
REMARK    1  A    between atoms: C_2  and  C_15
REMARK    2  A    between atoms: C_7  and  C_8
REMARK    3  A    between atoms: C_19  and  C_20
REMARK                            x       y       z     vdW  Elec       q    Type
REMARK                         _______ _______ _______ _____ _____    ______ ____
ROOT
ATOM      1  O   UNL     1       2.446   8.431  17.640  0.00  0.00    +0.000 OA
ATOM      2  C   UNL     1       2.606   7.471  18.384  0.00  0.00    +0.000 C 
ATOM      3  N   UNL     1       2.215   7.361  19.700  0.00  0.00    +0.000 N 
ATOM      4  C   UNL     1       1.512   8.305  20.411  0.00  0.00    +0.000 A 
ATOM      5  N   UNL     1       1.342   8.233  21.710  0.00  0.00    +0.000 NA
ATOM      6  N   UNL     1       0.586   9.287  22.192  0.00  0.00    +0.000 NA
ATOM      7  C   UNL     1       0.200  10.108  21.233  0.00  0.00    +0.000 A 
ATOM      8  S   UNL     1       0.732   9.622  19.672  0.00  0.00    +0.000 S 
ATOM      9  H   UNL     1       2.563   6.605  20.274  0.00  0.00    +0.000 HD
ENDROOT
BRANCH   7  10
ATOM     10  C   UNL     1      -0.670  11.280  21.412  0.00  0.00    +0.000 A 
ATOM     11  C   UNL     1      -1.248  11.966  20.331  0.00  0.00    +0.000 A 
ATOM     12  C   UNL     1      -2.110  13.045  20.543  0.00  0.00    +0.000 A 
ATOM     13  C   UNL     1      -2.402  13.458  21.841  0.00  0.00    +0.000 A 
ATOM     14  C   UNL     1      -1.820  12.806  22.924  0.00  0.00    +0.000 A 
ATOM     15  C   UNL     1      -0.955  11.730  22.711  0.00  0.00    +0.000 A 
ENDBRANCH   7  10
BRANCH   2  16
ATOM     16  C   UNL     1       3.361   6.305  17.856  0.00  0.00    +0.000 A 
ATOM     17  C   UNL     1       2.726   5.058  17.850  0.00  0.00    +0.000 A 
ATOM     18  C   UNL     1       3.394   3.934  17.368  0.00  0.00    +0.000 A 
ATOM     19  C   UNL     1       4.701   4.050  16.895  0.00  0.00    +0.000 A 
ATOM     20  C   UNL     1       5.359   5.291  16.906  0.00  0.00    +0.000 A 
ATOM     21  C   UNL     1       4.680   6.421  17.397  0.00  0.00    +0.000 A 
BRANCH  20  22
ATOM     22  C   UNL     1       6.777   5.424  16.399  0.00  0.00    +0.000 C 
ATOM     23  F   UNL     1       7.388   6.578  16.783  0.00  0.00    +0.000 F 
ATOM     24  F   UNL     1       7.571   4.412  16.842  0.00  0.00    +0.000 F 
ATOM     25  F   UNL     1       6.847   5.391  15.042  0.00  0.00    +0.000 F 
ENDBRANCH  20  22
ENDBRANCH   2  16
TORSDOF 3
ENDMDL
MODEL 8
REMARK VINA RESULT:      -8.0      2.021      2.722
REMARK  Name = 
REMARK  3 active torsions:
REMARK  status: ('A' for Active; 'I' for Inactive)
REMARK    1  A    between atoms: C_2  and  C_15
REMARK    2  A    between atoms: C_7  and  C_8
REMARK    3  A    between atoms: C_19  and  C_20
REMARK                            x       y       z     vdW  Elec       q    Type
REMARK                         _______ _______ _______ _____ _____    ______ ____
ROOT
ATOM      1  O   UNL     1       1.750   8.518  17.969  0.00  0.00    +0.000 OA
ATOM      2  C   UNL     1       2.141   7.675  18.767  0.00  0.00    +0.000 C 
ATOM      3  N   UNL     1       2.001   7.694  20.137  0.00  0.00    +0.000 N 
ATOM      4  C   UNL     1       1.335   8.654  20.862  0.00  0.00    +0.000 A 
ATOM      5  N   UNL     1       1.404   8.728  22.171  0.00  0.00    +0.000 NA
ATOM      6  N   UNL     1       0.633   9.762  22.671  0.00  0.00    +0.000 NA
ATOM      7  C   UNL     1      -0.002  10.422  21.720  0.00  0.00    +0.000 A 
ATOM      8  S   UNL     1       0.299   9.795  20.147  0.00  0.00    +0.000 S 
ATOM      9  H   UNL     1       2.524   7.049  20.712  0.00  0.00    +0.000 HD
ENDROOT
BRANCH   7  10
ATOM     10  C   UNL     1      -0.949  11.526  21.933  0.00  0.00    +0.000 A 
ATOM     11  C   UNL     1      -1.717  11.649  23.103  0.00  0.00    +0.000 A 
ATOM     12  C   UNL     1      -2.569  12.739  23.293  0.00  0.00    +0.000 A 
ATOM     13  C   UNL     1      -2.671  13.722  22.310  0.00  0.00    +0.000 A 
ATOM     14  C   UNL     1      -1.936  13.606  21.134  0.00  0.00    +0.000 A 
ATOM     15  C   UNL     1      -1.086  12.513  20.944  0.00  0.00    +0.000 A 
ENDBRANCH   7  10
BRANCH   2  16
ATOM     16  C   UNL     1       2.914   6.524  18.233  0.00  0.00    +0.000 A 
ATOM     17  C   UNL     1       4.018   6.796  17.417  0.00  0.00    +0.000 A 
ATOM     18  C   UNL     1       4.773   5.751  16.888  0.00  0.00    +0.000 A 
ATOM     19  C   UNL     1       4.425   4.429  17.167  0.00  0.00    +0.000 A 
ATOM     20  C   UNL     1       3.312   4.137  17.974  0.00  0.00    +0.000 A 
ATOM     21  C   UNL     1       2.553   5.198  18.502  0.00  0.00    +0.000 A 
BRANCH  20  22
ATOM     22  C   UNL     1       2.926   2.708  18.278  0.00  0.00    +0.000 C 
ATOM     23  F   UNL     1       2.403   2.044  17.212  0.00  0.00    +0.000 F 
ATOM     24  F   UNL     1       3.992   1.972  18.694  0.00  0.00    +0.000 F 
ATOM     25  F   UNL     1       1.999   2.622  19.270  0.00  0.00    +0.000 F 
ENDBRANCH  20  22
ENDBRANCH   2  16
TORSDOF 3
ENDMDL
MODEL 9
REMARK VINA RESULT:      -8.0      2.138      2.695
REMARK  Name = 
REMARK  3 active torsions:
REMARK  status: ('A' for Active; 'I' for Inactive)
REMARK    1  A    between atoms: C_2  and  C_15
REMARK    2  A    between atoms: C_7  and  C_8
REMARK    3  A    between atoms: C_19  and  C_20
REMARK                            x       y       z     vdW  Elec       q    Type
REMARK                         _______ _______ _______ _____ _____    ______ ____
ROOT
ATOM      1  O   UNL     1       2.212   6.214  19.941  0.00  0.00    +0.000 OA
ATOM      2  C   UNL     1       2.686   6.578  18.872  0.00  0.00    +0.000 C 
ATOM      3  N   UNL     1       2.504   7.792  18.248  0.00  0.00    +0.000 N 
ATOM      4  C   UNL     1       1.790   8.854  18.751  0.00  0.00    +0.000 A 
ATOM      5  N   UNL     1       1.484   9.908  18.031  0.00  0.00    +0.000 NA
ATOM      6  N   UNL     1       0.780  10.847  18.762  0.00  0.00    +0.000 NA
ATOM      7  C   UNL     1       0.594  10.473  20.015  0.00  0.00    +0.000 A 
ATOM      8  S   UNL     1       1.292   8.943  20.373  0.00  0.00    +0.000 S 
ATOM      9  H   UNL     1       2.783   7.918  17.285  0.00  0.00    +0.000 HD
ENDROOT
BRANCH   7  10
ATOM     10  C   UNL     1      -0.056  11.279  21.058  0.00  0.00    +0.000 A 
ATOM     11  C   UNL     1      -0.813  10.708  22.095  0.00  0.00    +0.000 A 
ATOM     12  C   UNL     1      -1.373  11.503  23.098  0.00  0.00    +0.000 A 
ATOM     13  C   UNL     1      -1.191  12.884  23.075  0.00  0.00    +0.000 A 
ATOM     14  C   UNL     1      -0.464  13.471  22.043  0.00  0.00    +0.000 A 
ATOM     15  C   UNL     1       0.093  12.676  21.038  0.00  0.00    +0.000 A 
ENDBRANCH   7  10
BRANCH   2  16
ATOM     16  C   UNL     1       3.499   5.597  18.107  0.00  0.00    +0.000 A 
ATOM     17  C   UNL     1       2.884   4.408  17.700  0.00  0.00    +0.000 A 
ATOM     18  C   UNL     1       3.606   3.454  16.985  0.00  0.00    +0.000 A 
ATOM     19  C   UNL     1       4.947   3.682  16.677  0.00  0.00    +0.000 A 
ATOM     20  C   UNL     1       5.585   4.865  17.090  0.00  0.00    +0.000 A 
ATOM     21  C   UNL     1       4.851   5.821  17.814  0.00  0.00    +0.000 A 
BRANCH  20  22
ATOM     22  C   UNL     1       7.039   5.118  16.764  0.00  0.00    +0.000 C 
ATOM     23  F   UNL     1       7.423   6.411  16.944  0.00  0.00    +0.000 F 
ATOM     24  F   UNL     1       7.870   4.367  17.538  0.00  0.00    +0.000 F 
ATOM     25  F   UNL     1       7.343   4.808  15.476  0.00  0.00    +0.000 F 
ENDBRANCH  20  22
ENDBRANCH   2  16
TORSDOF 3
ENDMDL
