MODEL 1
REMARK VINA RESULT:      -8.8      0.000      0.000
REMARK  Name = 
REMARK  5 active torsions:
REMARK  status: ('A' for Active; 'I' for Inactive)
REMARK    1  A    between atoms: C_1  and  C_2
REMARK    2  A    between atoms: C_2  and  C_3
REMARK    3  A    between atoms: C_10  and  C_12
REMARK    4  A    between atoms: C_16  and  C_17
REMARK    5  A    between atoms: N_24  and  C_25
REMARK                            x       y       z     vdW  Elec       q    Type
REMARK                         _______ _______ _______ _____ _____    ______ ____
ROOT
ATOM      1  C   UNL     1       3.385   4.982  18.595  0.00  0.00    +0.000 A 
ATOM      2  C   UNL     1       3.276   4.237  19.773  0.00  0.00    +0.000 A 
ATOM      3  C   UNL     1       2.356   4.589  20.748  0.00  0.00    +0.000 A 
ATOM      4  C   UNL     1       1.686   5.799  20.645  0.00  0.00    +0.000 A 
ATOM      5  C   UNL     1       1.982   6.715  19.617  0.00  0.00    +0.000 A 
ATOM      6  C   UNL     1       2.784   6.257  18.550  0.00  0.00    +0.000 A 
ENDROOT
BRANCH   5   7
ATOM      7  C   UNL     1       1.530   8.122  19.754  0.00  0.00    +0.000 A 
ATOM      8  C   UNL     1       1.704   9.105  18.758  0.00  0.00    +0.000 A 
ATOM      9  N   UNL     1       1.329  10.415  18.857  0.00  0.00    +0.000 NA
ATOM     10  C   UNL     1       0.756  10.727  20.021  0.00  0.00    +0.000 A 
ATOM     11  N   UNL     1       0.278  11.973  20.404  0.00  0.00    +0.000 N 
ATOM     12  C   UNL     1      -0.257  11.884  21.698  0.00  0.00    +0.000 A 
ATOM     13  O   UNL     1      -0.762  12.799  22.326  0.00  0.00    +0.000 OA
ATOM     14  N   UNL     1      -0.093  10.549  22.108  0.00  0.00    +0.000 N 
ATOM     15  C   UNL     1      -0.500   9.991  23.368  0.00  0.00    +0.000 C 
ATOM     16  C   UNL     1       0.532   9.852  21.072  0.00  0.00    +0.000 A 
ATOM     17  C   UNL     1       0.926   8.540  20.963  0.00  0.00    +0.000 A 
ATOM     18  H   UNL     1       0.311  12.801  19.844  0.00  0.00    +0.000 HD
ENDBRANCH   5   7
BRANCH   1  26
ATOM     19  C   UNL     1       5.829   5.044  15.564  0.00  0.00    +0.000 C 
ATOM     20  C   UNL     1       7.246   5.665  15.303  0.00  0.00    +0.000 C 
ATOM     21  O   UNL     1       7.851   5.535  14.239  0.00  0.00    +0.000 OA
ATOM     22  N   UNL     1       7.795   6.479  16.257  0.00  0.00    +0.000 N 
ATOM     23  C   UNL     1       7.306   6.522  17.606  0.00  0.00    +0.000 C 
ATOM     24  C   UNL     1       5.799   6.402  17.644  0.00  0.00    +0.000 C 
ATOM     25  N   UNL     1       5.319   5.190  16.968  0.00  0.00    +0.000 N 
ATOM     26  C   UNL     1       4.185   4.478  17.424  0.00  0.00    +0.000 C 
ATOM     27  O   UNL     1       3.810   3.415  16.935  0.00  0.00    +0.000 OA
ATOM     28  H   UNL     1       8.740   6.784  16.055  0.00  0.00    +0.000 HD
BRANCH  19  30
ATOM     29  C   UNL     1       5.434   3.658  13.426  0.00  0.00    +0.000 C 
ATOM     30  C   UNL     1       5.806   3.649  14.903  0.00  0.00    +0.000 C 
ENDBRANCH  19  30
ENDBRANCH   1  26
TORSDOF 3
ENDMDL
MODEL 2
REMARK VINA RESULT:      -8.5      3.333      5.133
REMARK  Name = 
REMARK  5 active torsions:
REMARK  status: ('A' for Active; 'I' for Inactive)
REMARK    1  A    between atoms: C_1  and  C_2
REMARK    2  A    between atoms: C_2  and  C_3
REMARK    3  A    between atoms: C_10  and  C_12
REMARK    4  A    between atoms: C_16  and  C_17
REMARK    5  A    between atoms: N_24  and  C_25
REMARK                            x       y       z     vdW  Elec       q    Type
REMARK                         _______ _______ _______ _____ _____    ______ ____
ROOT
ATOM      1  C   UNL     1       2.113   7.391  19.127  0.00  0.00    +0.000 A 
ATOM      2  C   UNL     1       2.963   7.718  18.066  0.00  0.00    +0.000 A 
ATOM      3  C   UNL     1       2.921   8.979  17.491  0.00  0.00    +0.000 A 
ATOM      4  C   UNL     1       1.895   9.848  17.833  0.00  0.00    +0.000 A 
ATOM      5  C   UNL     1       0.850   9.447  18.686  0.00  0.00    +0.000 A 
ATOM      6  C   UNL     1       1.014   8.235  19.390  0.00  0.00    +0.000 A 
ENDROOT
BRANCH   5   7
ATOM      7  C   UNL     1      -0.396  10.252  18.727  0.00  0.00    +0.000 A 
ATOM      8  C   UNL     1      -0.760  11.086  19.804  0.00  0.00    +0.000 A 
ATOM      9  N   UNL     1      -1.909  11.819  19.892  0.00  0.00    +0.000 NA
ATOM     10  C   UNL     1      -2.715  11.690  18.837  0.00  0.00    +0.000 A 
ATOM     11  N   UNL     1      -3.943  12.309  18.649  0.00  0.00    +0.000 N 
ATOM     12  C   UNL     1      -4.471  11.920  17.409  0.00  0.00    +0.000 A 
ATOM     13  O   UNL     1      -5.534  12.287  16.938  0.00  0.00    +0.000 OA
ATOM     14  N   UNL     1      -3.538  11.037  16.835  0.00  0.00    +0.000 N 
ATOM     15  C   UNL     1      -3.654  10.390  15.559  0.00  0.00    +0.000 C 
ATOM     16  C   UNL     1      -2.468  10.904  17.723  0.00  0.00    +0.000 A 
ATOM     17  C   UNL     1      -1.313  10.162  17.654  0.00  0.00    +0.000 A 
ATOM     18  H   UNL     1      -4.380  12.933  19.296  0.00  0.00    +0.000 HD
ENDBRANCH   5   7
BRANCH   1  26
ATOM     19  C   UNL     1       3.274   3.775  19.986  0.00  0.00    +0.000 C 
ATOM     20  C   UNL     1       4.607   2.969  19.792  0.00  0.00    +0.000 C 
ATOM     21  O   UNL     1       4.750   1.807  20.171  0.00  0.00    +0.000 OA
ATOM     22  N   UNL     1       5.624   3.540  19.074  0.00  0.00    +0.000 N 
ATOM     23  C   UNL     1       5.667   4.945  18.785  0.00  0.00    +0.000 C 
ATOM     24  C   UNL     1       4.284   5.484  18.494  0.00  0.00    +0.000 C 
ATOM     25  N   UNL     1       3.340   5.220  19.587  0.00  0.00    +0.000 N 
ATOM     26  C   UNL     1       2.314   6.133  19.927  0.00  0.00    +0.000 C 
ATOM     27  O   UNL     1       1.565   5.982  20.889  0.00  0.00    +0.000 OA
ATOM     28  H   UNL     1       6.478   2.996  19.052  0.00  0.00    +0.000 HD
BRANCH  19  30
ATOM     29  C   UNL     1       1.392   2.649  21.341  0.00  0.00    +0.000 C 
ATOM     30  C   UNL     1       2.711   3.410  21.376  0.00  0.00    +0.000 C 
ENDBRANCH  19  30
ENDBRANCH   1  26
TORSDOF 3
ENDMDL
MODEL 3
REMARK VINA RESULT:      -8.4      2.995      4.600
REMARK  Name = 
REMARK  5 active torsions:
REMARK  status: ('A' for Active; 'I' for Inactive)
REMARK    1  A    between atoms: C_1  and  C_2
REMARK    2  A    between atoms: C_2  and  C_3
REMARK    3  A    between atoms: C_10  and  C_12
REMARK    4  A    between atoms: C_16  and  C_17
REMARK    5  A    between atoms: N_24  and  C_25
REMARK                            x       y       z     vdW  Elec       q    Type
REMARK                         _______ _______ _______ _____ _____    ______ ____
ROOT
ATOM      1  C   UNL     1       1.993   7.407  19.417  0.00  0.00    +0.000 A 
ATOM      2  C   UNL     1       2.366   7.603  18.083  0.00  0.00    +0.000 A 
ATOM      3  C   UNL     1       2.375   8.875  17.533  0.00  0.00    +0.000 A 
ATOM      4  C   UNL     1       1.818   9.928  18.245  0.00  0.00    +0.000 A 
ATOM      5  C   UNL     1       1.169   9.716  19.476  0.00  0.00    +0.000 A 
ATOM      6  C   UNL     1       1.333   8.455  20.089  0.00  0.00    +0.000 A 
ENDROOT
BRANCH   5   7
ATOM      7  C   UNL     1       0.277  10.775  20.011  0.00  0.00    +0.000 A 
ATOM      8  C   UNL     1       0.621  11.627  21.081  0.00  0.00    +0.000 A 
ATOM      9  N   UNL     1      -0.181  12.592  21.621  0.00  0.00    +0.000 NA
ATOM     10  C   UNL     1      -1.380  12.684  21.043  0.00  0.00    +0.000 A 
ATOM     11  N   UNL     1      -2.398  13.567  21.378  0.00  0.00    +0.000 N 
ATOM     12  C   UNL     1      -3.493  13.351  20.528  0.00  0.00    +0.000 A 
ATOM     13  O   UNL     1      -4.548  13.962  20.554  0.00  0.00    +0.000 OA
ATOM     14  N   UNL     1      -3.128  12.307  19.660  0.00  0.00    +0.000 N 
ATOM     15  C   UNL     1      -3.938  11.750  18.612  0.00  0.00    +0.000 C 
ATOM     16  C   UNL     1      -1.831  11.906  19.989  0.00  0.00    +0.000 A 
ATOM     17  C   UNL     1      -1.017  10.930  19.464  0.00  0.00    +0.000 A 
ATOM     18  H   UNL     1      -2.355  14.247  22.109  0.00  0.00    +0.000 HD
ENDBRANCH   5   7
BRANCH   1  26
ATOM     19  C   UNL     1       3.269   3.770  19.976  0.00  0.00    +0.000 C 
ATOM     20  C   UNL     1       4.637   3.035  19.754  0.00  0.00    +0.000 C 
ATOM     21  O   UNL     1       4.815   1.849  20.028  0.00  0.00    +0.000 OA
ATOM     22  N   UNL     1       5.653   3.708  19.128  0.00  0.00    +0.000 N 
ATOM     23  C   UNL     1       5.649   5.134  18.971  0.00  0.00    +0.000 C 
ATOM     24  C   UNL     1       4.256   5.648  18.684  0.00  0.00    +0.000 C 
ATOM     25  N   UNL     1       3.290   5.248  19.715  0.00  0.00    +0.000 N 
ATOM     26  C   UNL     1       2.219   6.087  20.103  0.00  0.00    +0.000 C 
ATOM     27  O   UNL     1       1.447   5.820  21.021  0.00  0.00    +0.000 OA
ATOM     28  H   UNL     1       6.528   3.199  19.084  0.00  0.00    +0.000 HD
BRANCH  19  30
ATOM     29  C   UNL     1       1.359   2.508  21.162  0.00  0.00    +0.000 C 
ATOM     30  C   UNL     1       2.678   3.256  21.307  0.00  0.00    +0.000 C 
ENDBRANCH  19  30
ENDBRANCH   1  26
TORSDOF 3
ENDMDL
MODEL 4
REMARK VINA RESULT:      -8.2      4.085      5.805
REMARK  Name = 
REMARK  5 active torsions:
REMARK  status: ('A' for Active; 'I' for Inactive)
REMARK    1  A    between atoms: C_1  and  C_2
REMARK    2  A    between atoms: C_2  and  C_3
REMARK    3  A    between atoms: C_10  and  C_12
REMARK    4  A    between atoms: C_16  and  C_17
REMARK    5  A    between atoms: N_24  and  C_25
REMARK                            x       y       z     vdW  Elec       q    Type
REMARK                         _______ _______ _______ _____ _____    ______ ____
ROOT
ATOM      1  C   UNL     1       1.556   9.591  18.134  0.00  0.00    +0.000 A 
ATOM      2  C   UNL     1       2.187  10.767  18.553  0.00  0.00    +0.000 A 
ATOM      3  C   UNL     1       1.444  11.828  19.048  0.00  0.00    +0.000 A 
ATOM      4  C   UNL     1       0.062  11.801  18.936  0.00  0.00    +0.000 A 
ATOM      5  C   UNL     1      -0.597  10.760  18.255  0.00  0.00    +0.000 A 
ATOM      6  C   UNL     1       0.162   9.617  17.925  0.00  0.00    +0.000 A 
ENDROOT
BRANCH   5   7
ATOM      7  C   UNL     1      -2.008  10.953  17.837  0.00  0.00    +0.000 A 
ATOM      8  C   UNL     1      -2.506  10.603  16.565  0.00  0.00    +0.000 A 
ATOM      9  N   UNL     1      -3.788  10.792  16.132  0.00  0.00    +0.000 NA
ATOM     10  C   UNL     1      -4.586  11.363  17.036  0.00  0.00    +0.000 A 
ATOM     11  N   UNL     1      -5.929  11.676  16.878  0.00  0.00    +0.000 N 
ATOM     12  C   UNL     1      -6.409  12.257  18.062  0.00  0.00    +0.000 A 
ATOM     13  O   UNL     1      -7.549  12.642  18.257  0.00  0.00    +0.000 OA
ATOM     14  N   UNL     1      -5.324  12.299  18.956  0.00  0.00    +0.000 N 
ATOM     15  C   UNL     1      -5.350  12.809  20.299  0.00  0.00    +0.000 C 
ATOM     16  C   UNL     1      -4.213  11.750  18.313  0.00  0.00    +0.000 A 
ATOM     17  C   UNL     1      -2.917  11.566  18.731  0.00  0.00    +0.000 A 
ATOM     18  H   UNL     1      -6.467  11.513  16.051  0.00  0.00    +0.000 HD
ENDBRANCH   5   7
BRANCH   1  26
ATOM     19  C   UNL     1       3.662   6.381  18.782  0.00  0.00    +0.000 C 
ATOM     20  C   UNL     1       3.548   5.169  19.773  0.00  0.00    +0.000 C 
ATOM     21  O   UNL     1       4.347   4.232  19.783  0.00  0.00    +0.000 OA
ATOM     22  N   UNL     1       2.583   5.199  20.744  0.00  0.00    +0.000 N 
ATOM     23  C   UNL     1       1.470   6.103  20.694  0.00  0.00    +0.000 C 
ATOM     24  C   UNL     1       1.886   7.451  20.149  0.00  0.00    +0.000 C 
ATOM     25  N   UNL     1       2.516   7.349  18.827  0.00  0.00    +0.000 N 
ATOM     26  C   UNL     1       2.346   8.345  17.837  0.00  0.00    +0.000 C 
ATOM     27  O   UNL     1       2.786   8.247  16.695  0.00  0.00    +0.000 OA
ATOM     28  H   UNL     1       2.520   4.354  21.299  0.00  0.00    +0.000 HD
BRANCH  19  30
ATOM     29  C   UNL     1       5.564   6.117  17.062  0.00  0.00    +0.000 C 
ATOM     30  C   UNL     1       4.112   5.820  17.416  0.00  0.00    +0.000 C 
ENDBRANCH  19  30
ENDBRANCH   1  26
TORSDOF 3
ENDMDL
MODEL 5
REMARK VINA RESULT:      -8.2      1.077      1.890
REMARK  Name = 
REMARK  5 active torsions:
REMARK  status: ('A' for Active; 'I' for Inactive)
REMARK    1  A    between atoms: C_1  and  C_2
REMARK    2  A    between atoms: C_2  and  C_3
REMARK    3  A    between atoms: C_10  and  C_12
REMARK    4  A    between atoms: C_16  and  C_17
REMARK    5  A    between atoms: N_24  and  C_25
REMARK                            x       y       z     vdW  Elec       q    Type
REMARK                         _______ _______ _______ _____ _____    ______ ____
ROOT
ATOM      1  C   UNL     1       3.336   4.562  18.807  0.00  0.00    +0.000 A 
ATOM      2  C   UNL     1       3.208   3.675  19.881  0.00  0.00    +0.000 A 
ATOM      3  C   UNL     1       2.283   3.913  20.885  0.00  0.00    +0.000 A 
ATOM      4  C   UNL     1       1.627   5.135  20.931  0.00  0.00    +0.000 A 
ATOM      5  C   UNL     1       1.944   6.169  20.029  0.00  0.00    +0.000 A 
ATOM      6  C   UNL     1       2.750   5.839  18.919  0.00  0.00    +0.000 A 
ENDROOT
BRANCH   5   7
ATOM      7  C   UNL     1       1.506   7.553  20.339  0.00  0.00    +0.000 A 
ATOM      8  C   UNL     1       0.774   7.907  21.491  0.00  0.00    +0.000 A 
ATOM      9  N   UNL     1       0.328   9.162  21.797  0.00  0.00    +0.000 NA
ATOM     10  C   UNL     1       0.642  10.085  20.886  0.00  0.00    +0.000 A 
ATOM     11  N   UNL     1       0.323  11.435  20.928  0.00  0.00    +0.000 N 
ATOM     12  C   UNL     1       0.841  12.067  19.788  0.00  0.00    +0.000 A 
ATOM     13  O   UNL     1       0.741  13.252  19.520  0.00  0.00    +0.000 OA
ATOM     14  N   UNL     1       1.486  11.069  19.034  0.00  0.00    +0.000 N 
ATOM     15  C   UNL     1       2.169  11.256  17.785  0.00  0.00    +0.000 C 
ATOM     16  C   UNL     1       1.354   9.859  19.719  0.00  0.00    +0.000 A 
ATOM     17  C   UNL     1       1.786   8.589  19.418  0.00  0.00    +0.000 A 
ATOM     18  H   UNL     1      -0.193  11.884  21.657  0.00  0.00    +0.000 HD
ENDBRANCH   5   7
BRANCH   1  26
ATOM     19  C   UNL     1       5.786   4.985  15.810  0.00  0.00    +0.000 C 
ATOM     20  C   UNL     1       7.200   5.640  15.625  0.00  0.00    +0.000 C 
ATOM     21  O   UNL     1       7.807   5.636  14.555  0.00  0.00    +0.000 OA
ATOM     22  N   UNL     1       7.742   6.343  16.668  0.00  0.00    +0.000 N 
ATOM     23  C   UNL     1       7.250   6.229  18.011  0.00  0.00    +0.000 C 
ATOM     24  C   UNL     1       5.744   6.095  18.031  0.00  0.00    +0.000 C 
ATOM     25  N   UNL     1       5.272   4.966  17.220  0.00  0.00    +0.000 N 
ATOM     26  C   UNL     1       4.142   4.199  17.589  0.00  0.00    +0.000 C 
ATOM     27  O   UNL     1       3.775   3.197  16.980  0.00  0.00    +0.000 OA
ATOM     28  H   UNL     1       8.685   6.675  16.504  0.00  0.00    +0.000 HD
BRANCH  19  30
ATOM     29  C   UNL     1       5.379   3.846  13.533  0.00  0.00    +0.000 C 
ATOM     30  C   UNL     1       5.774   3.674  14.994  0.00  0.00    +0.000 C 
ENDBRANCH  19  30
ENDBRANCH   1  26
TORSDOF 3
ENDMDL
MODEL 6
REMARK VINA RESULT:      -8.1      1.981      8.516
REMARK  Name = 
REMARK  5 active torsions:
REMARK  status: ('A' for Active; 'I' for Inactive)
REMARK    1  A    between atoms: C_1  and  C_2
REMARK    2  A    between atoms: C_2  and  C_3
REMARK    3  A    between atoms: C_10  and  C_12
REMARK    4  A    between atoms: C_16  and  C_17
REMARK    5  A    between atoms: N_24  and  C_25
REMARK                            x       y       z     vdW  Elec       q    Type
REMARK                         _______ _______ _______ _____ _____    ______ ____
ROOT
ATOM      1  C   UNL     1       2.656   5.414  19.692  0.00  0.00    +0.000 A 
ATOM      2  C   UNL     1       2.417   4.069  19.992  0.00  0.00    +0.000 A 
ATOM      3  C   UNL     1       3.352   3.098  19.667  0.00  0.00    +0.000 A 
ATOM      4  C   UNL     1       4.431   3.433  18.863  0.00  0.00    +0.000 A 
ATOM      5  C   UNL     1       4.552   4.719  18.300  0.00  0.00    +0.000 A 
ATOM      6  C   UNL     1       3.693   5.725  18.788  0.00  0.00    +0.000 A 
ENDROOT
BRANCH   5   7
ATOM      7  C   UNL     1       5.491   4.923  17.169  0.00  0.00    +0.000 A 
ATOM      8  C   UNL     1       6.671   5.689  17.255  0.00  0.00    +0.000 A 
ATOM      9  N   UNL     1       7.544   5.926  16.231  0.00  0.00    +0.000 NA
ATOM     10  C   UNL     1       7.192   5.356  15.077  0.00  0.00    +0.000 A 
ATOM     11  N   UNL     1       7.880   5.424  13.874  0.00  0.00    +0.000 N 
ATOM     12  C   UNL     1       7.185   4.686  12.903  0.00  0.00    +0.000 A 
ATOM     13  O   UNL     1       7.523   4.539  11.741  0.00  0.00    +0.000 OA
ATOM     14  N   UNL     1       6.044   4.163  13.538  0.00  0.00    +0.000 N 
ATOM     15  C   UNL     1       5.039   3.335  12.932  0.00  0.00    +0.000 C 
ATOM     16  C   UNL     1       6.060   4.585  14.870  0.00  0.00    +0.000 A 
ATOM     17  C   UNL     1       5.184   4.366  15.906  0.00  0.00    +0.000 A 
ATOM     18  H   UNL     1       8.735   5.920  13.724  0.00  0.00    +0.000 HD
ENDBRANCH   5   7
BRANCH   1  26
ATOM     19  C   UNL     1       1.314   9.004  20.382  0.00  0.00    +0.000 C 
ATOM     20  C   UNL     1       1.014  10.259  19.489  0.00  0.00    +0.000 C 
ATOM     21  O   UNL     1       0.563  11.312  19.940  0.00  0.00    +0.000 OA
ATOM     22  N   UNL     1       1.368  10.227  18.167  0.00  0.00    +0.000 N 
ATOM     23  C   UNL     1       1.681   9.005  17.483  0.00  0.00    +0.000 C 
ATOM     24  C   UNL     1       2.443   8.058  18.382  0.00  0.00    +0.000 C 
ATOM     25  N   UNL     1       1.724   7.771  19.630  0.00  0.00    +0.000 N 
ATOM     26  C   UNL     1       1.787   6.505  20.257  0.00  0.00    +0.000 C 
ATOM     27  O   UNL     1       1.129   6.208  21.251  0.00  0.00    +0.000 OA
ATOM     28  H   UNL     1       1.078  11.040  17.636  0.00  0.00    +0.000 HD
BRANCH  19  30
ATOM     29  C   UNL     1       0.569   9.372  22.822  0.00  0.00    +0.000 C 
ATOM     30  C   UNL     1       0.182   8.898  21.427  0.00  0.00    +0.000 C 
ENDBRANCH  19  30
ENDBRANCH   1  26
TORSDOF 3
ENDMDL
MODEL 7
REMARK VINA RESULT:      -8.1      3.008      4.437
REMARK  Name = 
REMARK  5 active torsions:
REMARK  status: ('A' for Active; 'I' for Inactive)
REMARK    1  A    between atoms: C_1  and  C_2
REMARK    2  A    between atoms: C_2  and  C_3
REMARK    3  A    between atoms: C_10  and  C_12
REMARK    4  A    between atoms: C_16  and  C_17
REMARK    5  A    between atoms: N_24  and  C_25
REMARK                            x       y       z     vdW  Elec       q    Type
REMARK                         _______ _______ _______ _____ _____    ______ ____
ROOT
ATOM      1  C   UNL     1       2.048   7.480  19.249  0.00  0.00    +0.000 A 
ATOM      2  C   UNL     1       2.760   7.744  18.074  0.00  0.00    +0.000 A 
ATOM      3  C   UNL     1       2.746   9.010  17.510  0.00  0.00    +0.000 A 
ATOM      4  C   UNL     1       1.861   9.961  17.996  0.00  0.00    +0.000 A 
ATOM      5  C   UNL     1       0.919   9.643  18.993  0.00  0.00    +0.000 A 
ATOM      6  C   UNL     1       1.077   8.413  19.667  0.00  0.00    +0.000 A 
ENDROOT
BRANCH   5   7
ATOM      7  C   UNL     1      -0.233  10.553  19.213  0.00  0.00    +0.000 A 
ATOM      8  C   UNL     1      -1.170  10.892  18.216  0.00  0.00    +0.000 A 
ATOM      9  N   UNL     1      -2.223  11.747  18.369  0.00  0.00    +0.000 NA
ATOM     10  C   UNL     1      -2.318  12.275  19.591  0.00  0.00    +0.000 A 
ATOM     11  N   UNL     1      -3.280  13.170  20.037  0.00  0.00    +0.000 N 
ATOM     12  C   UNL     1      -3.036  13.477  21.384  0.00  0.00    +0.000 A 
ATOM     13  O   UNL     1      -3.699  14.230  22.076  0.00  0.00    +0.000 OA
ATOM     14  N   UNL     1      -1.892  12.750  21.760  0.00  0.00    +0.000 N 
ATOM     15  C   UNL     1      -1.274  12.749  23.056  0.00  0.00    +0.000 C 
ATOM     16  C   UNL     1      -1.461  12.020  20.650  0.00  0.00    +0.000 A 
ATOM     17  C   UNL     1      -0.397  11.167  20.477  0.00  0.00    +0.000 A 
ATOM     18  H   UNL     1      -4.028  13.537  19.484  0.00  0.00    +0.000 HD
ENDBRANCH   5   7
BRANCH   1  26
ATOM     19  C   UNL     1       3.227   3.848  20.009  0.00  0.00    +0.000 C 
ATOM     20  C   UNL     1       4.567   3.057  19.802  0.00  0.00    +0.000 C 
ATOM     21  O   UNL     1       4.716   1.886  20.148  0.00  0.00    +0.000 OA
ATOM     22  N   UNL     1       5.585   3.656  19.109  0.00  0.00    +0.000 N 
ATOM     23  C   UNL     1       5.621   5.069  18.861  0.00  0.00    +0.000 C 
ATOM     24  C   UNL     1       4.237   5.607  18.576  0.00  0.00    +0.000 C 
ATOM     25  N   UNL     1       3.286   5.305  19.654  0.00  0.00    +0.000 N 
ATOM     26  C   UNL     1       2.252   6.200  20.013  0.00  0.00    +0.000 C 
ATOM     27  O   UNL     1       1.497   6.016  20.965  0.00  0.00    +0.000 OA
ATOM     28  H   UNL     1       6.443   3.118  19.077  0.00  0.00    +0.000 HD
BRANCH  19  30
ATOM     29  C   UNL     1       1.378   2.614  21.314  0.00  0.00    +0.000 C 
ATOM     30  C   UNL     1       2.657   3.438  21.385  0.00  0.00    +0.000 C 
ENDBRANCH  19  30
ENDBRANCH   1  26
TORSDOF 3
ENDMDL
MODEL 8
REMARK VINA RESULT:      -8.1      2.797      9.484
REMARK  Name = 
REMARK  5 active torsions:
REMARK  status: ('A' for Active; 'I' for Inactive)
REMARK    1  A    between atoms: C_1  and  C_2
REMARK    2  A    between atoms: C_2  and  C_3
REMARK    3  A    between atoms: C_10  and  C_12
REMARK    4  A    between atoms: C_16  and  C_17
REMARK    5  A    between atoms: N_24  and  C_25
REMARK                            x       y       z     vdW  Elec       q    Type
REMARK                         _______ _______ _______ _____ _____    ______ ____
ROOT
ATOM      1  C   UNL     1       0.943  10.096  19.891  0.00  0.00    +0.000 A 
ATOM      2  C   UNL     1       1.646  10.567  18.777  0.00  0.00    +0.000 A 
ATOM      3  C   UNL     1       2.164   9.682  17.844  0.00  0.00    +0.000 A 
ATOM      4  C   UNL     1       2.162   8.323  18.122  0.00  0.00    +0.000 A 
ATOM      5  C   UNL     1       1.724   7.830  19.367  0.00  0.00    +0.000 A 
ATOM      6  C   UNL     1       1.042   8.728  20.216  0.00  0.00    +0.000 A 
ENDROOT
BRANCH   5   7
ATOM      7  C   UNL     1       2.082   6.445  19.760  0.00  0.00    +0.000 A 
ATOM      8  C   UNL     1       1.353   5.678  20.692  0.00  0.00    +0.000 A 
ATOM      9  N   UNL     1       1.667   4.413  21.101  0.00  0.00    +0.000 NA
ATOM     10  C   UNL     1       2.769   3.919  20.535  0.00  0.00    +0.000 A 
ATOM     11  N   UNL     1       3.327   2.667  20.758  0.00  0.00    +0.000 N 
ATOM     12  C   UNL     1       4.476   2.527  19.965  0.00  0.00    +0.000 A 
ATOM     13  O   UNL     1       5.198   1.546  19.921  0.00  0.00    +0.000 OA
ATOM     14  N   UNL     1       4.618   3.730  19.249  0.00  0.00    +0.000 N 
ATOM     15  C   UNL     1       5.655   4.039  18.304  0.00  0.00    +0.000 C 
ATOM     16  C   UNL     1       3.566   4.574  19.610  0.00  0.00    +0.000 A 
ATOM     17  C   UNL     1       3.245   5.851  19.217  0.00  0.00    +0.000 A 
ATOM     18  H   UNL     1       2.966   1.977  21.384  0.00  0.00    +0.000 HD
ENDBRANCH   5   7
BRANCH   1  26
ATOM     19  C   UNL     1      -1.460  12.993  20.888  0.00  0.00    +0.000 C 
ATOM     20  C   UNL     1      -2.875  13.468  20.403  0.00  0.00    +0.000 C 
ATOM     21  O   UNL     1      -3.465  14.430  20.893  0.00  0.00    +0.000 OA
ATOM     22  N   UNL     1      -3.439  12.857  19.315  0.00  0.00    +0.000 N 
ATOM     23  C   UNL     1      -2.968  11.599  18.809  0.00  0.00    +0.000 C 
ATOM     24  C   UNL     1      -1.461  11.505  18.899  0.00  0.00    +0.000 C 
ATOM     25  N   UNL     1      -0.969  11.718  20.266  0.00  0.00    +0.000 N 
ATOM     26  C   UNL     1       0.160  11.032  20.771  0.00  0.00    +0.000 C 
ATOM     27  O   UNL     1       0.543  11.123  21.935  0.00  0.00    +0.000 OA
ATOM     28  H   UNL     1      -4.381  13.163  19.103  0.00  0.00    +0.000 HD
BRANCH  19  30
ATOM     29  C   UNL     1      -2.414  12.239  23.161  0.00  0.00    +0.000 C 
ATOM     30  C   UNL     1      -1.426  13.135  22.425  0.00  0.00    +0.000 C 
ENDBRANCH  19  30
ENDBRANCH   1  26
TORSDOF 3
ENDMDL
MODEL 9
REMARK VINA RESULT:      -8.0      3.578      9.705
REMARK  Name = 
REMARK  5 active torsions:
REMARK  status: ('A' for Active; 'I' for Inactive)
REMARK    1  A    between atoms: C_1  and  C_2
REMARK    2  A    between atoms: C_2  and  C_3
REMARK    3  A    between atoms: C_10  and  C_12
REMARK    4  A    between atoms: C_16  and  C_17
REMARK    5  A    between atoms: N_24  and  C_25
REMARK                            x       y       z     vdW  Elec       q    Type
REMARK                         _______ _______ _______ _____ _____    ______ ____
ROOT
ATOM      1  C   UNL     1      -0.391  11.338  19.039  0.00  0.00    +0.000 A 
ATOM      2  C   UNL     1       0.514  12.392  18.876  0.00  0.00    +0.000 A 
ATOM      3  C   UNL     1       1.774  12.163  18.347  0.00  0.00    +0.000 A 
ATOM      4  C   UNL     1       2.211  10.859  18.169  0.00  0.00    +0.000 A 
ATOM      5  C   UNL     1       1.435   9.763  18.593  0.00  0.00    +0.000 A 
ATOM      6  C   UNL     1       0.096  10.018  18.958  0.00  0.00    +0.000 A 
ENDROOT
BRANCH   5   7
ATOM      7  C   UNL     1       2.080   8.433  18.730  0.00  0.00    +0.000 A 
ATOM      8  C   UNL     1       1.870   7.565  19.821  0.00  0.00    +0.000 A 
ATOM      9  N   UNL     1       2.467   6.349  19.998  0.00  0.00    +0.000 NA
ATOM     10  C   UNL     1       3.311   6.013  19.021  0.00  0.00    +0.000 A 
ATOM     11  N   UNL     1       4.056   4.846  18.932  0.00  0.00    +0.000 N 
ATOM     12  C   UNL     1       4.813   4.870  17.751  0.00  0.00    +0.000 A 
ATOM     13  O   UNL     1       5.571   3.995  17.370  0.00  0.00    +0.000 OA
ATOM     14  N   UNL     1       4.519   6.088  17.112  0.00  0.00    +0.000 N 
ATOM     15  C   UNL     1       5.060   6.544  15.862  0.00  0.00    +0.000 C 
ATOM     16  C   UNL     1       3.599   6.780  17.903  0.00  0.00    +0.000 A 
ATOM     17  C   UNL     1       3.001   8.007  17.744  0.00  0.00    +0.000 A 
ATOM     18  H   UNL     1       4.053   4.106  19.604  0.00  0.00    +0.000 HD
ENDBRANCH   5   7
BRANCH   1  26
ATOM     19  C   UNL     1      -4.134  12.267  18.494  0.00  0.00    +0.000 C 
ATOM     20  C   UNL     1      -5.223  11.880  17.433  0.00  0.00    +0.000 C 
ATOM     21  O   UNL     1      -6.380  12.297  17.475  0.00  0.00    +0.000 OA
ATOM     22  N   UNL     1      -4.849  11.133  16.347  0.00  0.00    +0.000 N 
ATOM     23  C   UNL     1      -3.612  10.408  16.302  0.00  0.00    +0.000 C 
ATOM     24  C   UNL     1      -2.499  11.185  16.969  0.00  0.00    +0.000 C 
ATOM     25  N   UNL     1      -2.824  11.547  18.354  0.00  0.00    +0.000 N 
ATOM     26  C   UNL     1      -1.837  11.596  19.367  0.00  0.00    +0.000 C 
ATOM     27  O   UNL     1      -2.090  11.810  20.550  0.00  0.00    +0.000 OA
ATOM     28  H   UNL     1      -5.615  10.859  15.743  0.00  0.00    +0.000 HD
BRANCH  19  30
ATOM     29  C   UNL     1      -5.025  13.695  20.447  0.00  0.00    +0.000 C 
ATOM     30  C   UNL     1      -4.824  12.298  19.875  0.00  0.00    +0.000 C 
ENDBRANCH  19  30
ENDBRANCH   1  26
TORSDOF 3
ENDMDL
