MODEL 1
REMARK VINA RESULT:      -8.5      0.000      0.000
REMARK  Name = 
REMARK  8 active torsions:
REMARK  status: ('A' for Active; 'I' for Inactive)
REMARK    1  A    between atoms: C_1  and  N_2
REMARK    2  A    between atoms: N_2  and  C_3
REMARK    3  A    between atoms: C_3  and  C_12
REMARK    4  A    between atoms: C_4  and  C_5
REMARK    5  A    between atoms: C_5  and  C_6
REMARK    6  A    between atoms: N_10  and  C_11
REMARK    7  A    between atoms: C_16  and  N_17
REMARK    8  A    between atoms: C_25  and  C_26
REMARK                            x       y       z     vdW  Elec       q    Type
REMARK                         _______ _______ _______ _____ _____    ______ ____
ROOT
ATOM      1  C   UNL     1       2.286   5.920  19.979  0.00  0.00    +0.000 A 
ATOM      2  C   UNL     1       1.252   5.210  20.612  0.00  0.00    +0.000 A 
ATOM      3  C   UNL     1       1.418   3.901  21.053  0.00  0.00    +0.000 A 
ATOM      4  C   UNL     1       2.594   3.229  20.770  0.00  0.00    +0.000 A 
ATOM      5  C   UNL     1       3.522   3.820  19.901  0.00  0.00    +0.000 A 
ATOM      6  C   UNL     1       3.451   5.202  19.662  0.00  0.00    +0.000 A 
ENDROOT
BRANCH   5   7
ATOM      7  N   UNL     1       4.176   2.988  18.893  0.00  0.00    +0.000 N 
ATOM      8  C   UNL     1       5.635   3.247  18.882  0.00  0.00    +0.000 C 
ATOM      9  C   UNL     1       5.741   4.381  17.904  0.00  0.00    +0.000 A 
ATOM     10  C   UNL     1       4.673   4.254  17.007  0.00  0.00    +0.000 A 
ATOM     11  C   UNL     1       4.340   5.226  16.084  0.00  0.00    +0.000 A 
ATOM     12  C   UNL     1       5.116   6.376  16.091  0.00  0.00    +0.000 A 
ATOM     13  F   UNL     1       4.783   7.394  15.288  0.00  0.00    +0.000 F 
ATOM     14  C   UNL     1       6.185   6.537  16.985  0.00  0.00    +0.000 A 
ATOM     15  C   UNL     1       6.522   5.534  17.920  0.00  0.00    +0.000 A 
ATOM     16  C   UNL     1       3.759   3.226  17.561  0.00  0.00    +0.000 C 
ATOM     17  O   UNL     1       2.734   2.871  17.010  0.00  0.00    +0.000 OA
BRANCH  15  18
ATOM     18  C   UNL     1       7.599   5.806  18.937  0.00  0.00    +0.000 C 
ATOM     19  F   UNL     1       7.167   5.788  20.226  0.00  0.00    +0.000 F 
ATOM     20  F   UNL     1       8.601   4.891  18.874  0.00  0.00    +0.000 F 
ATOM     21  F   UNL     1       8.188   7.022  18.757  0.00  0.00    +0.000 F 
ENDBRANCH  15  18
ENDBRANCH   5   7
BRANCH   1  22
ATOM     22  C   UNL     1       2.116   7.377  19.672  0.00  0.00    +0.000 C 
ATOM     23  C   UNL     1       2.206   7.832  18.406  0.00  0.00    +0.000 C 
BRANCH  22  25
ATOM     24  C   UNL     1       0.649   8.537  21.311  0.00  0.00    +0.000 C 
ATOM     25  N   UNL     1       1.973   8.207  20.782  0.00  0.00    +0.000 N 
ATOM     26  H   UNL     1       2.461   9.083  20.626  0.00  0.00    +0.000 HD
ENDBRANCH  22  25
BRANCH  23  27
ATOM     27  C   UNL     1       2.156   9.266  17.950  0.00  0.00    +0.000 C 
BRANCH  27  28
ATOM     28  C   UNL     1       0.830   9.937  18.107  0.00  0.00    +0.000 A 
ATOM     29  N   UNL     1      -0.334   9.468  17.695  0.00  0.00    +0.000 NA
ATOM     30  N   UNL     1      -1.314  10.363  18.059  0.00  0.00    +0.000 NA
ATOM     31  C   UNL     1      -0.730  11.355  18.687  0.00  0.00    +0.000 A 
ATOM     32  N   UNL     1       0.609  11.136  18.736  0.00  0.00    +0.000 N 
ATOM     33  C   UNL     1       1.579  12.006  19.344  0.00  0.00    +0.000 C 
ENDBRANCH  27  28
ENDBRANCH  23  27
ENDBRANCH   1  22
TORSDOF 6
ENDMDL
MODEL 2
REMARK VINA RESULT:      -8.4      5.369      9.020
REMARK  Name = 
REMARK  8 active torsions:
REMARK  status: ('A' for Active; 'I' for Inactive)
REMARK    1  A    between atoms: C_1  and  N_2
REMARK    2  A    between atoms: N_2  and  C_3
REMARK    3  A    between atoms: C_3  and  C_12
REMARK    4  A    between atoms: C_4  and  C_5
REMARK    5  A    between atoms: C_5  and  C_6
REMARK    6  A    between atoms: N_10  and  C_11
REMARK    7  A    between atoms: C_16  and  N_17
REMARK    8  A    between atoms: C_25  and  C_26
REMARK                            x       y       z     vdW  Elec       q    Type
REMARK                         _______ _______ _______ _____ _____    ______ ____
ROOT
ATOM      1  C   UNL     1      -4.370  11.420  17.689  0.00  0.00    +0.000 A 
ATOM      2  C   UNL     1      -4.109  10.960  16.387  0.00  0.00    +0.000 A 
ATOM      3  C   UNL     1      -2.860  10.472  16.014  0.00  0.00    +0.000 A 
ATOM      4  C   UNL     1      -1.807  10.536  16.909  0.00  0.00    +0.000 A 
ATOM      5  C   UNL     1      -1.975  11.244  18.107  0.00  0.00    +0.000 A 
ATOM      6  C   UNL     1      -3.274  11.517  18.562  0.00  0.00    +0.000 A 
ENDROOT
BRANCH   5   7
ATOM      7  N   UNL     1      -0.893  12.108  18.576  0.00  0.00    +0.000 N 
ATOM      8  C   UNL     1       0.419  11.468  18.327  0.00  0.00    +0.000 C 
ATOM      9  C   UNL     1       0.618  10.668  19.582  0.00  0.00    +0.000 A 
ATOM     10  C   UNL     1      -0.068  11.333  20.606  0.00  0.00    +0.000 A 
ATOM     11  C   UNL     1      -0.266  10.789  21.860  0.00  0.00    +0.000 A 
ATOM     12  C   UNL     1       0.240   9.515  22.068  0.00  0.00    +0.000 A 
ATOM     13  F   UNL     1      -0.004   8.895  23.229  0.00  0.00    +0.000 F 
ATOM     14  C   UNL     1       0.923   8.820  21.058  0.00  0.00    +0.000 A 
ATOM     15  C   UNL     1       1.126   9.387  19.781  0.00  0.00    +0.000 A 
ATOM     16  C   UNL     1      -0.904  12.377  19.965  0.00  0.00    +0.000 C 
ATOM     17  O   UNL     1      -1.618  13.141  20.587  0.00  0.00    +0.000 OA
BRANCH  15  18
ATOM     18  C   UNL     1       1.755   8.554  18.696  0.00  0.00    +0.000 C 
ATOM     19  F   UNL     1       2.921   9.057  18.210  0.00  0.00    +0.000 F 
ATOM     20  F   UNL     1       2.049   7.298  19.124  0.00  0.00    +0.000 F 
ATOM     21  F   UNL     1       0.936   8.401  17.617  0.00  0.00    +0.000 F 
ENDBRANCH  15  18
ENDBRANCH   5   7
BRANCH   1  22
ATOM     22  C   UNL     1      -5.769  11.780  18.089  0.00  0.00    +0.000 C 
ATOM     23  C   UNL     1      -6.210  11.552  19.343  0.00  0.00    +0.000 C 
BRANCH  22  25
ATOM     24  C   UNL     1      -6.796  13.685  16.864  0.00  0.00    +0.000 C 
ATOM     25  N   UNL     1      -6.581  12.250  17.059  0.00  0.00    +0.000 N 
ATOM     26  H   UNL     1      -7.496  11.814  17.110  0.00  0.00    +0.000 HD
ENDBRANCH  22  25
BRANCH  23  27
ATOM     27  C   UNL     1      -7.604  11.765  19.869  0.00  0.00    +0.000 C 
BRANCH  27  28
ATOM     28  C   UNL     1      -7.728  11.765  21.358  0.00  0.00    +0.000 A 
ATOM     29  N   UNL     1      -7.875  10.703  22.128  0.00  0.00    +0.000 NA
ATOM     30  N   UNL     1      -7.916  11.119  23.438  0.00  0.00    +0.000 NA
ATOM     31  C   UNL     1      -7.791  12.425  23.442  0.00  0.00    +0.000 A 
ATOM     32  N   UNL     1      -7.677  12.873  22.166  0.00  0.00    +0.000 N 
ATOM     33  C   UNL     1      -7.523  14.247  21.770  0.00  0.00    +0.000 C 
ENDBRANCH  27  28
ENDBRANCH  23  27
ENDBRANCH   1  22
TORSDOF 6
ENDMDL
MODEL 3
REMARK VINA RESULT:      -8.3      3.044      4.864
REMARK  Name = 
REMARK  8 active torsions:
REMARK  status: ('A' for Active; 'I' for Inactive)
REMARK    1  A    between atoms: C_1  and  N_2
REMARK    2  A    between atoms: N_2  and  C_3
REMARK    3  A    between atoms: C_3  and  C_12
REMARK    4  A    between atoms: C_4  and  C_5
REMARK    5  A    between atoms: C_5  and  C_6
REMARK    6  A    between atoms: N_10  and  C_11
REMARK    7  A    between atoms: C_16  and  N_17
REMARK    8  A    between atoms: C_25  and  C_26
REMARK                            x       y       z     vdW  Elec       q    Type
REMARK                         _______ _______ _______ _____ _____    ______ ____
ROOT
ATOM      1  C   UNL     1       1.626   8.877  18.800  0.00  0.00    +0.000 A 
ATOM      2  C   UNL     1       1.361   8.364  20.081  0.00  0.00    +0.000 A 
ATOM      3  C   UNL     1       1.981   7.213  20.557  0.00  0.00    +0.000 A 
ATOM      4  C   UNL     1       2.802   6.482  19.716  0.00  0.00    +0.000 A 
ATOM      5  C   UNL     1       2.857   6.820  18.357  0.00  0.00    +0.000 A 
ATOM      6  C   UNL     1       2.425   8.092  17.951  0.00  0.00    +0.000 A 
ENDROOT
BRANCH   5   7
ATOM      7  N   UNL     1       2.850   5.750  17.362  0.00  0.00    +0.000 N 
ATOM      8  C   UNL     1       1.813   4.746  17.695  0.00  0.00    +0.000 C 
ATOM      9  C   UNL     1       2.568   3.805  18.589  0.00  0.00    +0.000 A 
ATOM     10  C   UNL     1       3.913   3.862  18.205  0.00  0.00    +0.000 A 
ATOM     11  C   UNL     1       4.931   3.273  18.929  0.00  0.00    +0.000 A 
ATOM     12  C   UNL     1       4.562   2.617  20.094  0.00  0.00    +0.000 A 
ATOM     13  F   UNL     1       5.513   2.111  20.889  0.00  0.00    +0.000 F 
ATOM     14  C   UNL     1       3.223   2.553  20.510  0.00  0.00    +0.000 A 
ATOM     15  C   UNL     1       2.189   3.152  19.760  0.00  0.00    +0.000 A 
ATOM     16  C   UNL     1       4.053   5.008  17.275  0.00  0.00    +0.000 C 
ATOM     17  O   UNL     1       5.104   5.322  16.749  0.00  0.00    +0.000 OA
BRANCH  15  18
ATOM     18  C   UNL     1       0.787   3.160  20.311  0.00  0.00    +0.000 C 
ATOM     19  F   UNL     1       0.267   4.401  20.498  0.00  0.00    +0.000 F 
ATOM     20  F   UNL     1      -0.085   2.517  19.491  0.00  0.00    +0.000 F 
ATOM     21  F   UNL     1       0.701   2.532  21.518  0.00  0.00    +0.000 F 
ENDBRANCH  15  18
ENDBRANCH   5   7
BRANCH   1  22
ATOM     22  C   UNL     1       1.063  10.205  18.394  0.00  0.00    +0.000 C 
ATOM     23  C   UNL     1      -0.264  10.442  18.454  0.00  0.00    +0.000 C 
BRANCH  22  25
ATOM     24  C   UNL     1       2.273  12.373  18.533  0.00  0.00    +0.000 C 
ATOM     25  N   UNL     1       1.984  11.106  17.862  0.00  0.00    +0.000 N 
ATOM     26  H   UNL     1       1.741  11.324  16.900  0.00  0.00    +0.000 HD
ENDBRANCH  22  25
BRANCH  23  27
ATOM     27  C   UNL     1      -0.988  11.679  17.994  0.00  0.00    +0.000 C 
BRANCH  27  28
ATOM     28  C   UNL     1      -2.480  11.580  17.999  0.00  0.00    +0.000 A 
ATOM     29  N   UNL     1      -3.277  11.877  19.009  0.00  0.00    +0.000 NA
ATOM     30  N   UNL     1      -4.578  11.687  18.604  0.00  0.00    +0.000 NA
ATOM     31  C   UNL     1      -4.548  11.282  17.357  0.00  0.00    +0.000 A 
ATOM     32  N   UNL     1      -3.260  11.195  16.938  0.00  0.00    +0.000 N 
ATOM     33  C   UNL     1      -2.829  10.785  15.629  0.00  0.00    +0.000 C 
ENDBRANCH  27  28
ENDBRANCH  23  27
ENDBRANCH   1  22
TORSDOF 6
ENDMDL
MODEL 4
REMARK VINA RESULT:      -8.2      3.041      4.819
REMARK  Name = 
REMARK  8 active torsions:
REMARK  status: ('A' for Active; 'I' for Inactive)
REMARK    1  A    between atoms: C_1  and  N_2
REMARK    2  A    between atoms: N_2  and  C_3
REMARK    3  A    between atoms: C_3  and  C_12
REMARK    4  A    between atoms: C_4  and  C_5
REMARK    5  A    between atoms: C_5  and  C_6
REMARK    6  A    between atoms: N_10  and  C_11
REMARK    7  A    between atoms: C_16  and  N_17
REMARK    8  A    between atoms: C_25  and  C_26
REMARK                            x       y       z     vdW  Elec       q    Type
REMARK                         _______ _______ _______ _____ _____    ______ ____
ROOT
ATOM      1  C   UNL     1       1.391   8.896  19.084  0.00  0.00    +0.000 A 
ATOM      2  C   UNL     1       1.188   8.280  20.330  0.00  0.00    +0.000 A 
ATOM      3  C   UNL     1       1.893   7.144  20.715  0.00  0.00    +0.000 A 
ATOM      4  C   UNL     1       2.743   6.529  19.812  0.00  0.00    +0.000 A 
ATOM      5  C   UNL     1       2.747   6.962  18.479  0.00  0.00    +0.000 A 
ATOM      6  C   UNL     1       2.223   8.227  18.170  0.00  0.00    +0.000 A 
ENDROOT
BRANCH   5   7
ATOM      7  N   UNL     1       2.791   5.965  17.412  0.00  0.00    +0.000 N 
ATOM      8  C   UNL     1       1.788   4.903  17.660  0.00  0.00    +0.000 C 
ATOM      9  C   UNL     1       2.567   3.930  18.497  0.00  0.00    +0.000 A 
ATOM     10  C   UNL     1       3.914   4.062  18.137  0.00  0.00    +0.000 A 
ATOM     11  C   UNL     1       4.945   3.461  18.832  0.00  0.00    +0.000 A 
ATOM     12  C   UNL     1       4.587   2.713  19.944  0.00  0.00    +0.000 A 
ATOM     13  F   UNL     1       5.547   2.187  20.715  0.00  0.00    +0.000 F 
ATOM     14  C   UNL     1       3.247   2.571  20.336  0.00  0.00    +0.000 A 
ATOM     15  C   UNL     1       2.199   3.184  19.614  0.00  0.00    +0.000 A 
ATOM     16  C   UNL     1       4.021   5.275  17.291  0.00  0.00    +0.000 C 
ATOM     17  O   UNL     1       5.066   5.663  16.803  0.00  0.00    +0.000 OA
BRANCH  15  18
ATOM     18  C   UNL     1       0.792   3.103  20.145  0.00  0.00    +0.000 C 
ATOM     19  F   UNL     1      -0.052   2.362  19.380  0.00  0.00    +0.000 F 
ATOM     20  F   UNL     1       0.748   2.545  21.384  0.00  0.00    +0.000 F 
ATOM     21  F   UNL     1       0.210   4.329  20.265  0.00  0.00    +0.000 F 
ENDBRANCH  15  18
ENDBRANCH   5   7
BRANCH   1  22
ATOM     22  C   UNL     1       0.732  10.207  18.781  0.00  0.00    +0.000 C 
ATOM     23  C   UNL     1      -0.539  10.448  19.163  0.00  0.00    +0.000 C 
BRANCH  22  25
ATOM     24  C   UNL     1       2.114  12.266  18.587  0.00  0.00    +0.000 C 
ATOM     25  N   UNL     1       1.482  11.085  17.999  0.00  0.00    +0.000 N 
ATOM     26  H   UNL     1       0.932  11.401  17.206  0.00  0.00    +0.000 HD
ENDBRANCH  22  25
BRANCH  23  27
ATOM     27  C   UNL     1      -1.366  11.666  18.851  0.00  0.00    +0.000 C 
BRANCH  27  28
ATOM     28  C   UNL     1      -2.421  11.469  17.812  0.00  0.00    +0.000 A 
ATOM     29  N   UNL     1      -2.226  11.062  16.571  0.00  0.00    +0.000 NA
ATOM     30  N   UNL     1      -3.448  10.975  15.945  0.00  0.00    +0.000 NA
ATOM     31  C   UNL     1      -4.363  11.328  16.816  0.00  0.00    +0.000 A 
ATOM     32  N   UNL     1      -3.769  11.650  17.993  0.00  0.00    +0.000 N 
ATOM     33  C   UNL     1      -4.448  12.084  19.185  0.00  0.00    +0.000 C 
ENDBRANCH  27  28
ENDBRANCH  23  27
ENDBRANCH   1  22
TORSDOF 6
ENDMDL
MODEL 5
REMARK VINA RESULT:      -8.2      1.449      2.082
REMARK  Name = 
REMARK  8 active torsions:
REMARK  status: ('A' for Active; 'I' for Inactive)
REMARK    1  A    between atoms: C_1  and  N_2
REMARK    2  A    between atoms: N_2  and  C_3
REMARK    3  A    between atoms: C_3  and  C_12
REMARK    4  A    between atoms: C_4  and  C_5
REMARK    5  A    between atoms: C_5  and  C_6
REMARK    6  A    between atoms: N_10  and  C_11
REMARK    7  A    between atoms: C_16  and  N_17
REMARK    8  A    between atoms: C_25  and  C_26
REMARK                            x       y       z     vdW  Elec       q    Type
REMARK                         _______ _______ _______ _____ _____    ______ ____
ROOT
ATOM      1  C   UNL     1       2.298   5.870  20.064  0.00  0.00    +0.000 A 
ATOM      2  C   UNL     1       1.243   5.165  20.668  0.00  0.00    +0.000 A 
ATOM      3  C   UNL     1       1.366   3.831  21.042  0.00  0.00    +0.000 A 
ATOM      4  C   UNL     1       2.518   3.135  20.720  0.00  0.00    +0.000 A 
ATOM      5  C   UNL     1       3.462   3.737  19.876  0.00  0.00    +0.000 A 
ATOM      6  C   UNL     1       3.437   5.130  19.707  0.00  0.00    +0.000 A 
ENDROOT
BRANCH   5   7
ATOM      7  N   UNL     1       4.084   2.934  18.825  0.00  0.00    +0.000 N 
ATOM      8  C   UNL     1       5.547   3.167  18.800  0.00  0.00    +0.000 C 
ATOM      9  C   UNL     1       5.659   4.337  17.866  0.00  0.00    +0.000 A 
ATOM     10  C   UNL     1       4.575   4.265  16.983  0.00  0.00    +0.000 A 
ATOM     11  C   UNL     1       4.245   5.280  16.105  0.00  0.00    +0.000 A 
ATOM     12  C   UNL     1       5.042   6.414  16.145  0.00  0.00    +0.000 A 
ATOM     13  F   UNL     1       4.716   7.470  15.390  0.00  0.00    +0.000 F 
ATOM     14  C   UNL     1       6.129   6.520  17.027  0.00  0.00    +0.000 A 
ATOM     15  C   UNL     1       6.462   5.474  17.915  0.00  0.00    +0.000 A 
ATOM     16  C   UNL     1       3.650   3.233  17.511  0.00  0.00    +0.000 C 
ATOM     17  O   UNL     1       2.610   2.919  16.963  0.00  0.00    +0.000 OA
BRANCH  15  18
ATOM     18  C   UNL     1       7.560   5.685  18.925  0.00  0.00    +0.000 C 
ATOM     19  F   UNL     1       7.149   5.624  20.219  0.00  0.00    +0.000 F 
ATOM     20  F   UNL     1       8.543   4.755  18.808  0.00  0.00    +0.000 F 
ATOM     21  F   UNL     1       8.170   6.896  18.783  0.00  0.00    +0.000 F 
ENDBRANCH  15  18
ENDBRANCH   5   7
BRANCH   1  22
ATOM     22  C   UNL     1       2.175   7.345  19.830  0.00  0.00    +0.000 C 
ATOM     23  C   UNL     1       1.426   8.115  20.646  0.00  0.00    +0.000 C 
BRANCH  22  25
ATOM     24  C   UNL     1       2.000   8.208  17.505  0.00  0.00    +0.000 C 
ATOM     25  N   UNL     1       2.790   7.818  18.673  0.00  0.00    +0.000 N 
ATOM     26  H   UNL     1       3.490   7.155  18.354  0.00  0.00    +0.000 HD
ENDBRANCH  22  25
BRANCH  23  27
ATOM     27  C   UNL     1       1.126   9.582  20.489  0.00  0.00    +0.000 C 
BRANCH  27  28
ATOM     28  C   UNL     1       0.277  10.176  21.566  0.00  0.00    +0.000 A 
ATOM     29  N   UNL     1       0.396   9.955  22.862  0.00  0.00    +0.000 NA
ATOM     30  N   UNL     1      -0.547  10.712  23.519  0.00  0.00    +0.000 NA
ATOM     31  C   UNL     1      -1.219  11.379  22.612  0.00  0.00    +0.000 A 
ATOM     32  N   UNL     1      -0.744  11.073  21.378  0.00  0.00    +0.000 N 
ATOM     33  C   UNL     1      -1.230  11.607  20.135  0.00  0.00    +0.000 C 
ENDBRANCH  27  28
ENDBRANCH  23  27
ENDBRANCH   1  22
TORSDOF 6
ENDMDL
MODEL 6
REMARK VINA RESULT:      -8.2      6.488      9.337
REMARK  Name = 
REMARK  8 active torsions:
REMARK  status: ('A' for Active; 'I' for Inactive)
REMARK    1  A    between atoms: C_1  and  N_2
REMARK    2  A    between atoms: N_2  and  C_3
REMARK    3  A    between atoms: C_3  and  C_12
REMARK    4  A    between atoms: C_4  and  C_5
REMARK    5  A    between atoms: C_5  and  C_6
REMARK    6  A    between atoms: N_10  and  C_11
REMARK    7  A    between atoms: C_16  and  N_17
REMARK    8  A    between atoms: C_25  and  C_26
REMARK                            x       y       z     vdW  Elec       q    Type
REMARK                         _______ _______ _______ _____ _____    ______ ____
ROOT
ATOM      1  C   UNL     1      -3.829  11.256  18.228  0.00  0.00    +0.000 A 
ATOM      2  C   UNL     1      -3.842  10.679  16.947  0.00  0.00    +0.000 A 
ATOM      3  C   UNL     1      -2.762   9.955  16.454  0.00  0.00    +0.000 A 
ATOM      4  C   UNL     1      -1.593   9.884  17.191  0.00  0.00    +0.000 A 
ATOM      5  C   UNL     1      -1.463  10.682  18.336  0.00  0.00    +0.000 A 
ATOM      6  C   UNL     1      -2.617  11.210  18.936  0.00  0.00    +0.000 A 
ENDROOT
BRANCH   5   7
ATOM      7  N   UNL     1      -0.195  11.367  18.580  0.00  0.00    +0.000 N 
ATOM      8  C   UNL     1       0.576  10.661  19.631  0.00  0.00    +0.000 C 
ATOM      9  C   UNL     1       0.068  11.318  20.882  0.00  0.00    +0.000 A 
ATOM     10  C   UNL     1      -0.321  12.618  20.536  0.00  0.00    +0.000 A 
ATOM     11  C   UNL     1      -1.013  13.453  21.391  0.00  0.00    +0.000 A 
ATOM     12  C   UNL     1      -1.333  12.934  22.637  0.00  0.00    +0.000 A 
ATOM     13  F   UNL     1      -2.087  13.658  23.473  0.00  0.00    +0.000 F 
ATOM     14  C   UNL     1      -0.966  11.631  23.008  0.00  0.00    +0.000 A 
ATOM     15  C   UNL     1      -0.252  10.788  22.129  0.00  0.00    +0.000 A 
ATOM     16  C   UNL     1      -0.316  12.695  19.055  0.00  0.00    +0.000 C 
ATOM     17  O   UNL     1      -0.598  13.702  18.434  0.00  0.00    +0.000 OA
BRANCH  15  18
ATOM     18  C   UNL     1       0.010   9.359  22.529  0.00  0.00    +0.000 C 
ATOM     19  F   UNL     1      -0.188   9.103  23.849  0.00  0.00    +0.000 F 
ATOM     20  F   UNL     1      -0.794   8.489  21.863  0.00  0.00    +0.000 F 
ATOM     21  F   UNL     1       1.288   8.971  22.259  0.00  0.00    +0.000 F 
ENDBRANCH  15  18
ENDBRANCH   5   7
BRANCH   1  22
ATOM     22  C   UNL     1      -5.074  11.883  18.780  0.00  0.00    +0.000 C 
ATOM     23  C   UNL     1      -5.005  12.835  19.733  0.00  0.00    +0.000 C 
BRANCH  22  25
ATOM     24  C   UNL     1      -6.845  10.145  18.946  0.00  0.00    +0.000 C 
ATOM     25  N   UNL     1      -6.271  11.337  18.320  0.00  0.00    +0.000 N 
ATOM     26  H   UNL     1      -6.209  11.151  17.324  0.00  0.00    +0.000 HD
ENDBRANCH  22  25
BRANCH  23  27
ATOM     27  C   UNL     1      -6.156  13.486  20.451  0.00  0.00    +0.000 C 
BRANCH  27  28
ATOM     28  C   UNL     1      -6.410  12.980  21.835  0.00  0.00    +0.000 A 
ATOM     29  N   UNL     1      -7.051  11.870  22.152  0.00  0.00    +0.000 NA
ATOM     30  N   UNL     1      -7.042  11.742  23.522  0.00  0.00    +0.000 NA
ATOM     31  C   UNL     1      -6.395  12.773  24.011  0.00  0.00    +0.000 A 
ATOM     32  N   UNL     1      -5.987  13.576  22.996  0.00  0.00    +0.000 N 
ATOM     33  C   UNL     1      -5.247  14.801  23.140  0.00  0.00    +0.000 C 
ENDBRANCH  27  28
ENDBRANCH  23  27
ENDBRANCH   1  22
TORSDOF 6
ENDMDL
MODEL 7
REMARK VINA RESULT:      -8.2      5.950      9.963
REMARK  Name = 
REMARK  8 active torsions:
REMARK  status: ('A' for Active; 'I' for Inactive)
REMARK    1  A    between atoms: C_1  and  N_2
REMARK    2  A    between atoms: N_2  and  C_3
REMARK    3  A    between atoms: C_3  and  C_12
REMARK    4  A    between atoms: C_4  and  C_5
REMARK    5  A    between atoms: C_5  and  C_6
REMARK    6  A    between atoms: N_10  and  C_11
REMARK    7  A    between atoms: C_16  and  N_17
REMARK    8  A    between atoms: C_25  and  C_26
REMARK                            x       y       z     vdW  Elec       q    Type
REMARK                         _______ _______ _______ _____ _____    ______ ____
ROOT
ATOM      1  C   UNL     1       0.683   9.152  21.027  0.00  0.00    +0.000 A 
ATOM      2  C   UNL     1       0.701   9.062  22.429  0.00  0.00    +0.000 A 
ATOM      3  C   UNL     1      -0.193   9.772  23.224  0.00  0.00    +0.000 A 
ATOM      4  C   UNL     1      -1.060  10.677  22.638  0.00  0.00    +0.000 A 
ATOM      5  C   UNL     1      -0.903  10.986  21.279  0.00  0.00    +0.000 A 
ATOM      6  C   UNL     1      -0.173  10.110  20.460  0.00  0.00    +0.000 A 
ENDROOT
BRANCH   5   7
ATOM      7  N   UNL     1      -1.021  12.378  20.852  0.00  0.00    +0.000 N 
ATOM      8  C   UNL     1      -1.697  13.180  21.899  0.00  0.00    +0.000 C 
ATOM      9  C   UNL     1      -3.142  13.023  21.525  0.00  0.00    +0.000 A 
ATOM     10  C   UNL     1      -3.190  12.819  20.140  0.00  0.00    +0.000 A 
ATOM     11  C   UNL     1      -4.338  12.447  19.470  0.00  0.00    +0.000 A 
ATOM     12  C   UNL     1      -5.473  12.261  20.245  0.00  0.00    +0.000 A 
ATOM     13  F   UNL     1      -6.592  11.805  19.668  0.00  0.00    +0.000 F 
ATOM     14  C   UNL     1      -5.454  12.447  21.636  0.00  0.00    +0.000 A 
ATOM     15  C   UNL     1      -4.276  12.834  22.311  0.00  0.00    +0.000 A 
ATOM     16  C   UNL     1      -1.798  12.581  19.687  0.00  0.00    +0.000 C 
ATOM     17  O   UNL     1      -1.495  12.381  18.526  0.00  0.00    +0.000 OA
BRANCH  15  18
ATOM     18  C   UNL     1      -4.278  12.902  23.816  0.00  0.00    +0.000 C 
ATOM     19  F   UNL     1      -5.516  12.879  24.375  0.00  0.00    +0.000 F 
ATOM     20  F   UNL     1      -3.605  11.860  24.372  0.00  0.00    +0.000 F 
ATOM     21  F   UNL     1      -3.675  14.031  24.285  0.00  0.00    +0.000 F 
ENDBRANCH  15  18
ENDBRANCH   5   7
BRANCH   1  22
ATOM     22  C   UNL     1       1.552   8.246  20.208  0.00  0.00    +0.000 C 
ATOM     23  C   UNL     1       1.807   6.984  20.608  0.00  0.00    +0.000 C 
BRANCH  22  25
ATOM     24  C   UNL     1       1.609   8.618  17.749  0.00  0.00    +0.000 C 
ATOM     25  N   UNL     1       2.145   8.837  19.093  0.00  0.00    +0.000 N 
ATOM     26  H   UNL     1       3.134   8.608  19.063  0.00  0.00    +0.000 HD
ENDBRANCH  22  25
BRANCH  23  27
ATOM     27  C   UNL     1       2.730   5.991  19.952  0.00  0.00    +0.000 C 
BRANCH  27  28
ATOM     28  C   UNL     1       2.052   4.922  19.157  0.00  0.00    +0.000 A 
ATOM     29  N   UNL     1       1.880   4.917  17.848  0.00  0.00    +0.000 NA
ATOM     30  N   UNL     1       1.246   3.746  17.499  0.00  0.00    +0.000 NA
ATOM     31  C   UNL     1       1.047   3.062  18.600  0.00  0.00    +0.000 A 
ATOM     32  N   UNL     1       1.528   3.759  19.661  0.00  0.00    +0.000 N 
ATOM     33  C   UNL     1       1.491   3.331  21.033  0.00  0.00    +0.000 C 
ENDBRANCH  27  28
ENDBRANCH  23  27
ENDBRANCH   1  22
TORSDOF 6
ENDMDL
MODEL 8
REMARK VINA RESULT:      -8.1      4.153      8.502
REMARK  Name = 
REMARK  8 active torsions:
REMARK  status: ('A' for Active; 'I' for Inactive)
REMARK    1  A    between atoms: C_1  and  N_2
REMARK    2  A    between atoms: N_2  and  C_3
REMARK    3  A    between atoms: C_3  and  C_12
REMARK    4  A    between atoms: C_4  and  C_5
REMARK    5  A    between atoms: C_5  and  C_6
REMARK    6  A    between atoms: N_10  and  C_11
REMARK    7  A    between atoms: C_16  and  N_17
REMARK    8  A    between atoms: C_25  and  C_26
REMARK                            x       y       z     vdW  Elec       q    Type
REMARK                         _______ _______ _______ _____ _____    ______ ____
ROOT
ATOM      1  C   UNL     1       2.368   7.321  18.940  0.00  0.00    +0.000 A 
ATOM      2  C   UNL     1       2.359   8.150  17.806  0.00  0.00    +0.000 A 
ATOM      3  C   UNL     1       1.980   9.487  17.873  0.00  0.00    +0.000 A 
ATOM      4  C   UNL     1       1.493  10.000  19.062  0.00  0.00    +0.000 A 
ATOM      5  C   UNL     1       1.232   9.123  20.124  0.00  0.00    +0.000 A 
ATOM      6  C   UNL     1       1.827   7.852  20.122  0.00  0.00    +0.000 A 
ENDROOT
BRANCH   5   7
ATOM      7  N   UNL     1       0.009   9.301  20.904  0.00  0.00    +0.000 N 
ATOM      8  C   UNL     1      -1.179   9.205  20.023  0.00  0.00    +0.000 C 
ATOM      9  C   UNL     1      -1.348  10.629  19.575  0.00  0.00    +0.000 A 
ATOM     10  C   UNL     1      -0.837  11.444  20.592  0.00  0.00    +0.000 A 
ATOM     11  C   UNL     1      -0.652  12.805  20.449  0.00  0.00    +0.000 A 
ATOM     12  C   UNL     1      -0.985  13.348  19.216  0.00  0.00    +0.000 A 
ATOM     13  F   UNL     1      -0.737  14.642  18.982  0.00  0.00    +0.000 F 
ATOM     14  C   UNL     1      -1.490  12.554  18.175  0.00  0.00    +0.000 A 
ATOM     15  C   UNL     1      -1.682  11.164  18.334  0.00  0.00    +0.000 A 
ATOM     16  C   UNL     1      -0.116  10.560  21.539  0.00  0.00    +0.000 C 
ATOM     17  O   UNL     1       0.436  10.962  22.546  0.00  0.00    +0.000 OA
BRANCH  15  18
ATOM     18  C   UNL     1      -2.109  10.338  17.149  0.00  0.00    +0.000 C 
ATOM     19  F   UNL     1      -2.347  11.059  16.022  0.00  0.00    +0.000 F 
ATOM     20  F   UNL     1      -1.169   9.420  16.804  0.00  0.00    +0.000 F 
ATOM     21  F   UNL     1      -3.251   9.634  17.391  0.00  0.00    +0.000 F 
ENDBRANCH  15  18
ENDBRANCH   5   7
BRANCH   1  22
ATOM     22  C   UNL     1       2.940   5.938  18.852  0.00  0.00    +0.000 C 
ATOM     23  C   UNL     1       4.225   5.699  19.184  0.00  0.00    +0.000 C 
BRANCH  22  25
ATOM     24  C   UNL     1       1.445   3.974  19.159  0.00  0.00    +0.000 C 
ATOM     25  N   UNL     1       2.091   4.975  18.309  0.00  0.00    +0.000 N 
ATOM     26  H   UNL     1       2.564   4.475  17.563  0.00  0.00    +0.000 HD
ENDBRANCH  22  25
BRANCH  23  27
ATOM     27  C   UNL     1       4.969   4.396  19.058  0.00  0.00    +0.000 C 
BRANCH  27  28
ATOM     28  C   UNL     1       6.084   4.394  18.063  0.00  0.00    +0.000 A 
ATOM     29  N   UNL     1       7.374   4.452  18.338  0.00  0.00    +0.000 NA
ATOM     30  N   UNL     1       8.073   4.392  17.155  0.00  0.00    +0.000 NA
ATOM     31  C   UNL     1       7.197   4.297  16.183  0.00  0.00    +0.000 A 
ATOM     32  N   UNL     1       5.942   4.300  16.701  0.00  0.00    +0.000 N 
ATOM     33  C   UNL     1       4.722   4.211  15.945  0.00  0.00    +0.000 C 
ENDBRANCH  27  28
ENDBRANCH  23  27
ENDBRANCH   1  22
TORSDOF 6
ENDMDL
MODEL 9
REMARK VINA RESULT:      -8.1      6.420      9.465
REMARK  Name = 
REMARK  8 active torsions:
REMARK  status: ('A' for Active; 'I' for Inactive)
REMARK    1  A    between atoms: C_1  and  N_2
REMARK    2  A    between atoms: N_2  and  C_3
REMARK    3  A    between atoms: C_3  and  C_12
REMARK    4  A    between atoms: C_4  and  C_5
REMARK    5  A    between atoms: C_5  and  C_6
REMARK    6  A    between atoms: N_10  and  C_11
REMARK    7  A    between atoms: C_16  and  N_17
REMARK    8  A    between atoms: C_25  and  C_26
REMARK                            x       y       z     vdW  Elec       q    Type
REMARK                         _______ _______ _______ _____ _____    ______ ____
ROOT
ATOM      1  C   UNL     1      -3.807  11.494  17.838  0.00  0.00    +0.000 A 
ATOM      2  C   UNL     1      -3.772  10.734  16.657  0.00  0.00    +0.000 A 
ATOM      3  C   UNL     1      -2.719   9.872  16.366  0.00  0.00    +0.000 A 
ATOM      4  C   UNL     1      -1.617   9.834  17.202  0.00  0.00    +0.000 A 
ATOM      5  C   UNL     1      -1.509  10.783  18.227  0.00  0.00    +0.000 A 
ATOM      6  C   UNL     1      -2.658  11.472  18.645  0.00  0.00    +0.000 A 
ENDROOT
BRANCH   5   7
ATOM      7  N   UNL     1      -0.212  11.409  18.477  0.00  0.00    +0.000 N 
ATOM      8  C   UNL     1       0.551  10.628  19.479  0.00  0.00    +0.000 C 
ATOM      9  C   UNL     1       0.090  11.245  20.768  0.00  0.00    +0.000 A 
ATOM     10  C   UNL     1      -0.256  12.573  20.490  0.00  0.00    +0.000 A 
ATOM     11  C   UNL     1      -0.900  13.392  21.396  0.00  0.00    +0.000 A 
ATOM     12  C   UNL     1      -1.217  12.828  22.623  0.00  0.00    +0.000 A 
ATOM     13  F   UNL     1      -1.928  13.540  23.506  0.00  0.00    +0.000 F 
ATOM     14  C   UNL     1      -0.892  11.497  22.927  0.00  0.00    +0.000 A 
ATOM     15  C   UNL     1      -0.227  10.670  21.997  0.00  0.00    +0.000 A 
ATOM     16  C   UNL     1      -0.274  12.718  19.014  0.00  0.00    +0.000 C 
ATOM     17  O   UNL     1      -0.530  13.762  18.445  0.00  0.00    +0.000 OA
BRANCH  15  18
ATOM     18  C   UNL     1      -0.011   9.216  22.325  0.00  0.00    +0.000 C 
ATOM     19  F   UNL     1      -0.796   8.360  21.619  0.00  0.00    +0.000 F 
ATOM     20  F   UNL     1       1.268   8.824  22.082  0.00  0.00    +0.000 F 
ATOM     21  F   UNL     1      -0.244   8.940  23.640  0.00  0.00    +0.000 F 
ENDBRANCH  15  18
ENDBRANCH   5   7
BRANCH   1  22
ATOM     22  C   UNL     1      -5.036  12.279  18.186  0.00  0.00    +0.000 C 
ATOM     23  C   UNL     1      -6.037  12.429  17.294  0.00  0.00    +0.000 C 
BRANCH  22  25
ATOM     24  C   UNL     1      -5.684  12.333  20.586  0.00  0.00    +0.000 C 
ATOM     25  N   UNL     1      -5.006  12.914  19.426  0.00  0.00    +0.000 N 
ATOM     26  H   UNL     1      -5.332  13.871  19.336  0.00  0.00    +0.000 HD
ENDBRANCH  22  25
BRANCH  23  27
ATOM     27  C   UNL     1      -7.281  13.261  17.456  0.00  0.00    +0.000 C 
BRANCH  27  28
ATOM     28  C   UNL     1      -7.198  14.643  16.893  0.00  0.00    +0.000 A 
ATOM     29  N   UNL     1      -7.347  14.977  15.624  0.00  0.00    +0.000 NA
ATOM     30  N   UNL     1      -7.234  16.344  15.520  0.00  0.00    +0.000 NA
ATOM     31  C   UNL     1      -7.021  16.816  16.725  0.00  0.00    +0.000 A 
ATOM     32  N   UNL     1      -6.985  15.791  17.614  0.00  0.00    +0.000 N 
ATOM     33  C   UNL     1      -6.772  15.915  19.031  0.00  0.00    +0.000 C 
ENDBRANCH  27  28
ENDBRANCH  23  27
ENDBRANCH   1  22
TORSDOF 6
ENDMDL
