MODEL 1
REMARK VINA RESULT:      -9.0      0.000      0.000
REMARK  Name = 
REMARK  4 active torsions:
REMARK  status: ('A' for Active; 'I' for Inactive)
REMARK    1  A    between atoms: C_7  and  C_8
REMARK    2  A    between atoms: N_14  and  C_15
REMARK    3  A    between atoms: C_19  and  C_20
REMARK    4  A    between atoms: C_20  and  C_21
REMARK                            x       y       z     vdW  Elec       q    Type
REMARK                         _______ _______ _______ _____ _____    ______ ____
ROOT
ATOM      1  O   UNL     1       2.112   9.903  17.131  0.00  0.00    +0.000 OA
ATOM      2  C   UNL     1       1.769   9.485  18.222  0.00  0.00    +0.000 C 
ATOM      3  C   UNL     1       1.023  10.320  19.164  0.00  0.00    +0.000 A 
ATOM      4  C   UNL     1       0.608  11.629  18.998  0.00  0.00    +0.000 A 
ATOM      5  C   UNL     1      -0.068  12.224  20.058  0.00  0.00    +0.000 A 
ATOM      6  C   UNL     1      -0.301  11.509  21.249  0.00  0.00    +0.000 A 
ATOM      7  C   UNL     1       0.133  10.178  21.405  0.00  0.00    +0.000 A 
ATOM      8  C   UNL     1       0.793   9.593  20.328  0.00  0.00    +0.000 A 
ATOM      9  C   UNL     1       1.357   8.216  20.171  0.00  0.00    +0.000 C 
ATOM     10  N   UNL     1       1.957   8.247  18.840  0.00  0.00    +0.000 N 
ENDROOT
BRANCH  10  11
ATOM     11  C   UNL     1       2.714   7.163  18.323  0.00  0.00    +0.000 A 
ATOM     12  C   UNL     1       3.917   7.369  17.641  0.00  0.00    +0.000 A 
ATOM     13  C   UNL     1       4.689   6.295  17.193  0.00  0.00    +0.000 A 
ATOM     14  C   UNL     1       4.267   4.988  17.411  0.00  0.00    +0.000 A 
ATOM     15  C   UNL     1       3.061   4.745  18.075  0.00  0.00    +0.000 A 
ATOM     16  C   UNL     1       2.291   5.840  18.514  0.00  0.00    +0.000 A 
BRANCH  15  17
ATOM     17  C   UNL     1       2.583   3.331  18.325  0.00  0.00    +0.000 C 
BRANCH  17  18
ATOM     18  C   UNL     1       2.431   3.034  19.772  0.00  0.00    +0.000 A 
ATOM     19  N   UNL     1       3.379   2.771  20.655  0.00  0.00    +0.000 NA
ATOM     20  N   UNL     1       2.766   2.480  21.863  0.00  0.00    +0.000 NA
ATOM     21  C   UNL     1       1.466   2.581  21.684  0.00  0.00    +0.000 A 
ATOM     22  N   UNL     1       1.234   2.941  20.404  0.00  0.00    +0.000 N 
ATOM     23  F   UNL     1       0.033   3.165  19.859  0.00  0.00    +0.000 F 
ENDBRANCH  17  18
ENDBRANCH  15  17
ENDBRANCH  10  11
BRANCH   7  24
ATOM     24  C   UNL     1      -0.098   9.428  22.690  0.00  0.00    +0.000 C 
ATOM     25  F   UNL     1      -0.733   8.236  22.518  0.00  0.00    +0.000 F 
ATOM     26  F   UNL     1       1.063   9.147  23.340  0.00  0.00    +0.000 F 
ATOM     27  F   UNL     1      -0.859  10.135  23.568  0.00  0.00    +0.000 F 
ENDBRANCH   7  24
TORSDOF 4
ENDMDL
MODEL 2
REMARK VINA RESULT:      -8.9      2.812      4.035
REMARK  Name = 
REMARK  4 active torsions:
REMARK  status: ('A' for Active; 'I' for Inactive)
REMARK    1  A    between atoms: C_7  and  C_8
REMARK    2  A    between atoms: N_14  and  C_15
REMARK    3  A    between atoms: C_19  and  C_20
REMARK    4  A    between atoms: C_20  and  C_21
REMARK                            x       y       z     vdW  Elec       q    Type
REMARK                         _______ _______ _______ _____ _____    ______ ____
ROOT
ATOM      1  O   UNL     1       2.634   8.189  17.491  0.00  0.00    +0.000 OA
ATOM      2  C   UNL     1       2.158   8.163  18.612  0.00  0.00    +0.000 C 
ATOM      3  C   UNL     1       1.393   9.290  19.148  0.00  0.00    +0.000 A 
ATOM      4  C   UNL     1       1.099  10.490  18.528  0.00  0.00    +0.000 A 
ATOM      5  C   UNL     1       0.373  11.425  19.259  0.00  0.00    +0.000 A 
ATOM      6  C   UNL     1      -0.025  11.146  20.580  0.00  0.00    +0.000 A 
ATOM      7  C   UNL     1       0.287   9.920  21.200  0.00  0.00    +0.000 A 
ATOM      8  C   UNL     1       0.998   8.990  20.448  0.00  0.00    +0.000 A 
ATOM      9  C   UNL     1       1.467   7.613  20.802  0.00  0.00    +0.000 C 
ATOM     10  N   UNL     1       2.190   7.185  19.608  0.00  0.00    +0.000 N 
ENDROOT
BRANCH  10  11
ATOM     11  C   UNL     1       2.906   5.961  19.553  0.00  0.00    +0.000 A 
ATOM     12  C   UNL     1       2.450   4.815  20.213  0.00  0.00    +0.000 A 
ATOM     13  C   UNL     1       3.124   3.597  20.102  0.00  0.00    +0.000 A 
ATOM     14  C   UNL     1       4.279   3.503  19.331  0.00  0.00    +0.000 A 
ATOM     15  C   UNL     1       4.772   4.631  18.670  0.00  0.00    +0.000 A 
ATOM     16  C   UNL     1       4.084   5.854  18.799  0.00  0.00    +0.000 A 
BRANCH  15  17
ATOM     17  C   UNL     1       6.024   4.551  17.824  0.00  0.00    +0.000 C 
BRANCH  17  18
ATOM     18  C   UNL     1       6.736   5.850  17.743  0.00  0.00    +0.000 A 
ATOM     19  N   UNL     1       6.723   6.729  16.755  0.00  0.00    +0.000 NA
ATOM     20  N   UNL     1       7.594   7.754  17.086  0.00  0.00    +0.000 NA
ATOM     21  C   UNL     1       8.107   7.476  18.265  0.00  0.00    +0.000 A 
ATOM     22  N   UNL     1       7.578   6.314  18.702  0.00  0.00    +0.000 N 
ATOM     23  F   UNL     1       7.840   5.725  19.875  0.00  0.00    +0.000 F 
ENDBRANCH  17  18
ENDBRANCH  15  17
ENDBRANCH  10  11
BRANCH   7  24
ATOM     24  C   UNL     1      -0.121   9.639  22.621  0.00  0.00    +0.000 C 
ATOM     25  F   UNL     1      -0.778  10.673  23.215  0.00  0.00    +0.000 F 
ATOM     26  F   UNL     1      -0.947   8.562  22.719  0.00  0.00    +0.000 F 
ATOM     27  F   UNL     1       0.947   9.366  23.419  0.00  0.00    +0.000 F 
ENDBRANCH   7  24
TORSDOF 4
ENDMDL
MODEL 3
REMARK VINA RESULT:      -8.9      0.955      1.339
REMARK  Name = 
REMARK  4 active torsions:
REMARK  status: ('A' for Active; 'I' for Inactive)
REMARK    1  A    between atoms: C_7  and  C_8
REMARK    2  A    between atoms: N_14  and  C_15
REMARK    3  A    between atoms: C_19  and  C_20
REMARK    4  A    between atoms: C_20  and  C_21
REMARK                            x       y       z     vdW  Elec       q    Type
REMARK                         _______ _______ _______ _____ _____    ______ ____
ROOT
ATOM      1  O   UNL     1       2.181  10.169  17.225  0.00  0.00    +0.000 OA
ATOM      2  C   UNL     1       1.787   9.717  18.285  0.00  0.00    +0.000 C 
ATOM      3  C   UNL     1       1.065  10.547  19.251  0.00  0.00    +0.000 A 
ATOM      4  C   UNL     1       0.731  11.884  19.143  0.00  0.00    +0.000 A 
ATOM      5  C   UNL     1       0.062  12.463  20.216  0.00  0.00    +0.000 A 
ATOM      6  C   UNL     1      -0.242  11.705  21.363  0.00  0.00    +0.000 A 
ATOM      7  C   UNL     1       0.110  10.345  21.461  0.00  0.00    +0.000 A 
ATOM      8  C   UNL     1       0.763   9.777  20.370  0.00  0.00    +0.000 A 
ATOM      9  C   UNL     1       1.252   8.379  20.156  0.00  0.00    +0.000 C 
ATOM     10  N   UNL     1       1.887   8.441  18.842  0.00  0.00    +0.000 N 
ENDROOT
BRANCH  10  11
ATOM     11  C   UNL     1       2.594   7.342  18.288  0.00  0.00    +0.000 A 
ATOM     12  C   UNL     1       3.833   7.508  17.661  0.00  0.00    +0.000 A 
ATOM     13  C   UNL     1       4.553   6.415  17.177  0.00  0.00    +0.000 A 
ATOM     14  C   UNL     1       4.042   5.127  17.302  0.00  0.00    +0.000 A 
ATOM     15  C   UNL     1       2.799   4.924  17.908  0.00  0.00    +0.000 A 
ATOM     16  C   UNL     1       2.082   6.040  18.386  0.00  0.00    +0.000 A 
BRANCH  15  17
ATOM     17  C   UNL     1       2.225   3.532  18.058  0.00  0.00    +0.000 C 
BRANCH  17  18
ATOM     18  C   UNL     1       2.037   3.149  19.480  0.00  0.00    +0.000 A 
ATOM     19  N   UNL     1       0.903   3.025  20.149  0.00  0.00    +0.000 NA
ATOM     20  N   UNL     1       1.216   2.726  21.465  0.00  0.00    +0.000 NA
ATOM     21  C   UNL     1       2.528   2.670  21.559  0.00  0.00    +0.000 A 
ATOM     22  N   UNL     1       3.058   2.909  20.341  0.00  0.00    +0.000 N 
ATOM     23  F   UNL     1       4.362   2.908  20.040  0.00  0.00    +0.000 F 
ENDBRANCH  17  18
ENDBRANCH  15  17
ENDBRANCH  10  11
BRANCH   7  24
ATOM     24  C   UNL     1      -0.196   9.547  22.699  0.00  0.00    +0.000 C 
ATOM     25  F   UNL     1      -0.962  10.217  23.604  0.00  0.00    +0.000 F 
ATOM     26  F   UNL     1      -0.863   8.394  22.421  0.00  0.00    +0.000 F 
ATOM     27  F   UNL     1       0.931   9.177  23.365  0.00  0.00    +0.000 F 
ENDBRANCH   7  24
TORSDOF 4
ENDMDL
MODEL 4
REMARK VINA RESULT:      -8.9      2.713      3.721
REMARK  Name = 
REMARK  4 active torsions:
REMARK  status: ('A' for Active; 'I' for Inactive)
REMARK    1  A    between atoms: C_7  and  C_8
REMARK    2  A    between atoms: N_14  and  C_15
REMARK    3  A    between atoms: C_19  and  C_20
REMARK    4  A    between atoms: C_20  and  C_21
REMARK                            x       y       z     vdW  Elec       q    Type
REMARK                         _______ _______ _______ _____ _____    ______ ____
ROOT
ATOM      1  O   UNL     1       2.722   8.109  17.493  0.00  0.00    +0.000 OA
ATOM      2  C   UNL     1       2.214   8.097  18.600  0.00  0.00    +0.000 C 
ATOM      3  C   UNL     1       1.482   9.252  19.120  0.00  0.00    +0.000 A 
ATOM      4  C   UNL     1       1.255  10.467  18.500  0.00  0.00    +0.000 A 
ATOM      5  C   UNL     1       0.548  11.427  19.216  0.00  0.00    +0.000 A 
ATOM      6  C   UNL     1       0.101  11.159  20.524  0.00  0.00    +0.000 A 
ATOM      7  C   UNL     1       0.345   9.918  21.145  0.00  0.00    +0.000 A 
ATOM      8  C   UNL     1       1.038   8.962  20.407  0.00  0.00    +0.000 A 
ATOM      9  C   UNL     1       1.439   7.566  20.766  0.00  0.00    +0.000 C 
ATOM     10  N   UNL     1       2.177   7.114  19.590  0.00  0.00    +0.000 N 
ENDROOT
BRANCH  10  11
ATOM     11  C   UNL     1       2.843   5.861  19.548  0.00  0.00    +0.000 A 
ATOM     12  C   UNL     1       2.156   4.658  19.742  0.00  0.00    +0.000 A 
ATOM     13  C   UNL     1       2.804   3.427  19.634  0.00  0.00    +0.000 A 
ATOM     14  C   UNL     1       4.162   3.373  19.337  0.00  0.00    +0.000 A 
ATOM     15  C   UNL     1       4.885   4.555  19.153  0.00  0.00    +0.000 A 
ATOM     16  C   UNL     1       4.217   5.789  19.273  0.00  0.00    +0.000 A 
BRANCH  15  17
ATOM     17  C   UNL     1       6.362   4.520  18.827  0.00  0.00    +0.000 C 
BRANCH  17  18
ATOM     18  C   UNL     1       6.638   4.892  17.417  0.00  0.00    +0.000 A 
ATOM     19  N   UNL     1       7.415   5.863  16.966  0.00  0.00    +0.000 NA
ATOM     20  N   UNL     1       7.307   5.887  15.585  0.00  0.00    +0.000 NA
ATOM     21  C   UNL     1       6.476   4.930  15.234  0.00  0.00    +0.000 A 
ATOM     22  N   UNL     1       6.062   4.288  16.347  0.00  0.00    +0.000 N 
ATOM     23  F   UNL     1       5.231   3.240  16.384  0.00  0.00    +0.000 F 
ENDBRANCH  17  18
ENDBRANCH  15  17
ENDBRANCH  10  11
BRANCH   7  24
ATOM     24  C   UNL     1      -0.115   9.646  22.552  0.00  0.00    +0.000 C 
ATOM     25  F   UNL     1      -0.937   8.565  22.658  0.00  0.00    +0.000 F 
ATOM     26  F   UNL     1       0.923   9.415  23.400  0.00  0.00    +0.000 F 
ATOM     27  F   UNL     1      -0.804  10.693  23.080  0.00  0.00    +0.000 F 
ENDBRANCH   7  24
TORSDOF 4
ENDMDL
MODEL 5
REMARK VINA RESULT:      -8.6      2.962      3.986
REMARK  Name = 
REMARK  4 active torsions:
REMARK  status: ('A' for Active; 'I' for Inactive)
REMARK    1  A    between atoms: C_7  and  C_8
REMARK    2  A    between atoms: N_14  and  C_15
REMARK    3  A    between atoms: C_19  and  C_20
REMARK    4  A    between atoms: C_20  and  C_21
REMARK                            x       y       z     vdW  Elec       q    Type
REMARK                         _______ _______ _______ _____ _____    ______ ____
ROOT
ATOM      1  O   UNL     1       2.696   8.087  17.518  0.00  0.00    +0.000 OA
ATOM      2  C   UNL     1       2.202   8.080  18.632  0.00  0.00    +0.000 C 
ATOM      3  C   UNL     1       1.441   9.222  19.140  0.00  0.00    +0.000 A 
ATOM      4  C   UNL     1       1.169  10.417  18.501  0.00  0.00    +0.000 A 
ATOM      5  C   UNL     1       0.441  11.369  19.208  0.00  0.00    +0.000 A 
ATOM      6  C   UNL     1       0.019  11.111  20.526  0.00  0.00    +0.000 A 
ATOM      7  C   UNL     1       0.308   9.890  21.167  0.00  0.00    +0.000 A 
ATOM      8  C   UNL     1       1.022   8.943  20.437  0.00  0.00    +0.000 A 
ATOM      9  C   UNL     1       1.471   7.566  20.817  0.00  0.00    +0.000 C 
ATOM     10  N   UNL     1       2.208   7.116  19.640  0.00  0.00    +0.000 N 
ENDROOT
BRANCH  10  11
ATOM     11  C   UNL     1       2.912   5.883  19.613  0.00  0.00    +0.000 A 
ATOM     12  C   UNL     1       2.322   4.692  20.046  0.00  0.00    +0.000 A 
ATOM     13  C   UNL     1       2.997   3.473  19.955  0.00  0.00    +0.000 A 
ATOM     14  C   UNL     1       4.286   3.422  19.434  0.00  0.00    +0.000 A 
ATOM     15  C   UNL     1       4.913   4.595  19.006  0.00  0.00    +0.000 A 
ATOM     16  C   UNL     1       4.221   5.818  19.111  0.00  0.00    +0.000 A 
BRANCH  15  17
ATOM     17  C   UNL     1       6.313   4.563  18.433  0.00  0.00    +0.000 C 
BRANCH  17  18
ATOM     18  C   UNL     1       6.316   4.534  16.949  0.00  0.00    +0.000 A 
ATOM     19  N   UNL     1       5.773   3.632  16.149  0.00  0.00    +0.000 NA
ATOM     20  N   UNL     1       6.093   3.973  14.845  0.00  0.00    +0.000 NA
ATOM     21  C   UNL     1       6.814   5.073  14.886  0.00  0.00    +0.000 A 
ATOM     22  N   UNL     1       6.950   5.451  16.174  0.00  0.00    +0.000 N 
ATOM     23  F   UNL     1       7.597   6.539  16.607  0.00  0.00    +0.000 F 
ENDBRANCH  17  18
ENDBRANCH  15  17
ENDBRANCH  10  11
BRANCH   7  24
ATOM     24  C   UNL     1      -0.125   9.631  22.584  0.00  0.00    +0.000 C 
ATOM     25  F   UNL     1       0.911   9.389  23.435  0.00  0.00    +0.000 F 
ATOM     26  F   UNL     1      -0.812  10.677  23.115  0.00  0.00    +0.000 F 
ATOM     27  F   UNL     1      -0.948   8.553  22.681  0.00  0.00    +0.000 F 
ENDBRANCH   7  24
TORSDOF 4
ENDMDL
MODEL 6
REMARK VINA RESULT:      -8.6      2.760      3.962
REMARK  Name = 
REMARK  4 active torsions:
REMARK  status: ('A' for Active; 'I' for Inactive)
REMARK    1  A    between atoms: C_7  and  C_8
REMARK    2  A    between atoms: N_14  and  C_15
REMARK    3  A    between atoms: C_19  and  C_20
REMARK    4  A    between atoms: C_20  and  C_21
REMARK                            x       y       z     vdW  Elec       q    Type
REMARK                         _______ _______ _______ _____ _____    ______ ____
ROOT
ATOM      1  O   UNL     1       2.580   8.715  17.044  0.00  0.00    +0.000 OA
ATOM      2  C   UNL     1       2.156   8.519  18.169  0.00  0.00    +0.000 C 
ATOM      3  C   UNL     1       1.564   9.596  18.964  0.00  0.00    +0.000 A 
ATOM      4  C   UNL     1       1.395  10.922  18.609  0.00  0.00    +0.000 A 
ATOM      5  C   UNL     1       0.826  11.768  19.555  0.00  0.00    +0.000 A 
ATOM      6  C   UNL     1       0.456  11.278  20.822  0.00  0.00    +0.000 A 
ATOM      7  C   UNL     1       0.639   9.926  21.171  0.00  0.00    +0.000 A 
ATOM      8  C   UNL     1       1.194   9.090  20.205  0.00  0.00    +0.000 A 
ATOM      9  C   UNL     1       1.501   7.625  20.254  0.00  0.00    +0.000 C 
ATOM     10  N   UNL     1       2.110   7.365  18.953  0.00  0.00    +0.000 N 
ENDROOT
BRANCH  10  11
ATOM     11  C   UNL     1       2.663   6.102  18.613  0.00  0.00    +0.000 A 
ATOM     12  C   UNL     1       1.854   4.984  18.388  0.00  0.00    +0.000 A 
ATOM     13  C   UNL     1       2.399   3.762  17.990  0.00  0.00    +0.000 A 
ATOM     14  C   UNL     1       3.774   3.631  17.818  0.00  0.00    +0.000 A 
ATOM     15  C   UNL     1       4.615   4.723  18.050  0.00  0.00    +0.000 A 
ATOM     16  C   UNL     1       4.048   5.947  18.458  0.00  0.00    +0.000 A 
BRANCH  15  17
ATOM     17  C   UNL     1       6.112   4.603  17.866  0.00  0.00    +0.000 C 
BRANCH  17  18
ATOM     18  C   UNL     1       6.774   5.927  17.750  0.00  0.00    +0.000 A 
ATOM     19  N   UNL     1       6.702   6.792  16.753  0.00  0.00    +0.000 NA
ATOM     20  N   UNL     1       7.544   7.851  17.046  0.00  0.00    +0.000 NA
ATOM     21  C   UNL     1       8.100   7.607  18.214  0.00  0.00    +0.000 A 
ATOM     22  N   UNL     1       7.626   6.432  18.679  0.00  0.00    +0.000 N 
ATOM     23  F   UNL     1       7.942   5.868  19.850  0.00  0.00    +0.000 F 
ENDBRANCH  17  18
ENDBRANCH  15  17
ENDBRANCH  10  11
BRANCH   7  24
ATOM     24  C   UNL     1       0.264   9.414  22.535  0.00  0.00    +0.000 C 
ATOM     25  F   UNL     1       1.319   8.923  23.242  0.00  0.00    +0.000 F 
ATOM     26  F   UNL     1      -0.296  10.378  23.314  0.00  0.00    +0.000 F 
ATOM     27  F   UNL     1      -0.647   8.405  22.474  0.00  0.00    +0.000 F 
ENDBRANCH   7  24
TORSDOF 4
ENDMDL
MODEL 7
REMARK VINA RESULT:      -8.6      2.761      3.911
REMARK  Name = 
REMARK  4 active torsions:
REMARK  status: ('A' for Active; 'I' for Inactive)
REMARK    1  A    between atoms: C_7  and  C_8
REMARK    2  A    between atoms: N_14  and  C_15
REMARK    3  A    between atoms: C_19  and  C_20
REMARK    4  A    between atoms: C_20  and  C_21
REMARK                            x       y       z     vdW  Elec       q    Type
REMARK                         _______ _______ _______ _____ _____    ______ ____
ROOT
ATOM      1  O   UNL     1       2.713   8.039  17.574  0.00  0.00    +0.000 OA
ATOM      2  C   UNL     1       2.206   8.043  18.682  0.00  0.00    +0.000 C 
ATOM      3  C   UNL     1       1.453   9.195  19.178  0.00  0.00    +0.000 A 
ATOM      4  C   UNL     1       1.201  10.391  18.530  0.00  0.00    +0.000 A 
ATOM      5  C   UNL     1       0.477  11.353  19.225  0.00  0.00    +0.000 A 
ATOM      6  C   UNL     1       0.037  11.106  20.539  0.00  0.00    +0.000 A 
ATOM      7  C   UNL     1       0.306   9.885  21.188  0.00  0.00    +0.000 A 
ATOM      8  C   UNL     1       1.017   8.927  20.471  0.00  0.00    +0.000 A 
ATOM      9  C   UNL     1       1.445   7.547  20.862  0.00  0.00    +0.000 C 
ATOM     10  N   UNL     1       2.191   7.083  19.695  0.00  0.00    +0.000 N 
ENDROOT
BRANCH  10  11
ATOM     11  C   UNL     1       2.881   5.842  19.680  0.00  0.00    +0.000 A 
ATOM     12  C   UNL     1       2.390   4.722  20.360  0.00  0.00    +0.000 A 
ATOM     13  C   UNL     1       3.040   3.489  20.288  0.00  0.00    +0.000 A 
ATOM     14  C   UNL     1       4.203   3.351  19.538  0.00  0.00    +0.000 A 
ATOM     15  C   UNL     1       4.731   4.453  18.859  0.00  0.00    +0.000 A 
ATOM     16  C   UNL     1       4.068   5.692  18.948  0.00  0.00    +0.000 A 
BRANCH  15  17
ATOM     17  C   UNL     1       5.994   4.326  18.034  0.00  0.00    +0.000 C 
BRANCH  17  18
ATOM     18  C   UNL     1       6.809   5.566  18.055  0.00  0.00    +0.000 A 
ATOM     19  N   UNL     1       7.715   5.933  18.945  0.00  0.00    +0.000 NA
ATOM     20  N   UNL     1       8.161   7.199  18.601  0.00  0.00    +0.000 NA
ATOM     21  C   UNL     1       7.521   7.563  17.511  0.00  0.00    +0.000 A 
ATOM     22  N   UNL     1       6.693   6.564  17.142  0.00  0.00    +0.000 N 
ATOM     23  F   UNL     1       5.899   6.561  16.065  0.00  0.00    +0.000 F 
ENDBRANCH  17  18
ENDBRANCH  15  17
ENDBRANCH  10  11
BRANCH   7  24
ATOM     24  C   UNL     1      -0.146   9.637  22.602  0.00  0.00    +0.000 C 
ATOM     25  F   UNL     1       0.878   9.407  23.469  0.00  0.00    +0.000 F 
ATOM     26  F   UNL     1      -0.845  10.686  23.114  0.00  0.00    +0.000 F 
ATOM     27  F   UNL     1      -0.967   8.556  22.698  0.00  0.00    +0.000 F 
ENDBRANCH   7  24
TORSDOF 4
ENDMDL
MODEL 8
REMARK VINA RESULT:      -8.5      2.694      3.672
REMARK  Name = 
REMARK  4 active torsions:
REMARK  status: ('A' for Active; 'I' for Inactive)
REMARK    1  A    between atoms: C_7  and  C_8
REMARK    2  A    between atoms: N_14  and  C_15
REMARK    3  A    between atoms: C_19  and  C_20
REMARK    4  A    between atoms: C_20  and  C_21
REMARK                            x       y       z     vdW  Elec       q    Type
REMARK                         _______ _______ _______ _____ _____    ______ ____
ROOT
ATOM      1  O   UNL     1       2.553   8.336  17.566  0.00  0.00    +0.000 OA
ATOM      2  C   UNL     1       2.047   8.293  18.673  0.00  0.00    +0.000 C 
ATOM      3  C   UNL     1       1.416   9.468  19.274  0.00  0.00    +0.000 A 
ATOM      4  C   UNL     1       1.292  10.736  18.738  0.00  0.00    +0.000 A 
ATOM      5  C   UNL     1       0.670  11.703  19.521  0.00  0.00    +0.000 A 
ATOM      6  C   UNL     1       0.204  11.387  20.811  0.00  0.00    +0.000 A 
ATOM      7  C   UNL     1       0.342  10.091  21.347  0.00  0.00    +0.000 A 
ATOM      8  C   UNL     1       0.951   9.132  20.542  0.00  0.00    +0.000 A 
ATOM      9  C   UNL     1       1.233   7.686  20.805  0.00  0.00    +0.000 C 
ATOM     10  N   UNL     1       1.929   7.253  19.597  0.00  0.00    +0.000 N 
ENDROOT
BRANCH  10  11
ATOM     11  C   UNL     1       2.486   5.954  19.466  0.00  0.00    +0.000 A 
ATOM     12  C   UNL     1       2.544   5.069  20.548  0.00  0.00    +0.000 A 
ATOM     13  C   UNL     1       3.033   3.770  20.398  0.00  0.00    +0.000 A 
ATOM     14  C   UNL     1       3.486   3.330  19.158  0.00  0.00    +0.000 A 
ATOM     15  C   UNL     1       3.458   4.192  18.058  0.00  0.00    +0.000 A 
ATOM     16  C   UNL     1       2.968   5.502  18.229  0.00  0.00    +0.000 A 
BRANCH  15  17
ATOM     17  C   UNL     1       3.942   3.734  16.699  0.00  0.00    +0.000 C 
BRANCH  17  18
ATOM     18  C   UNL     1       5.341   4.149  16.429  0.00  0.00    +0.000 A 
ATOM     19  N   UNL     1       6.303   4.395  17.302  0.00  0.00    +0.000 NA
ATOM     20  N   UNL     1       7.416   4.825  16.599  0.00  0.00    +0.000 NA
ATOM     21  C   UNL     1       7.105   4.822  15.320  0.00  0.00    +0.000 A 
ATOM     22  N   UNL     1       5.833   4.390  15.187  0.00  0.00    +0.000 N 
ATOM     23  F   UNL     1       5.177   4.229  14.032  0.00  0.00    +0.000 F 
ENDBRANCH  17  18
ENDBRANCH  15  17
ENDBRANCH  10  11
BRANCH   7  24
ATOM     24  C   UNL     1      -0.137   9.766  22.736  0.00  0.00    +0.000 C 
ATOM     25  F   UNL     1      -0.799  10.792  23.338  0.00  0.00    +0.000 F 
ATOM     26  F   UNL     1      -0.987   8.705  22.755  0.00  0.00    +0.000 F 
ATOM     27  F   UNL     1       0.887   9.441  23.570  0.00  0.00    +0.000 F 
ENDBRANCH   7  24
TORSDOF 4
ENDMDL
MODEL 9
REMARK VINA RESULT:      -8.5      2.608      3.867
REMARK  Name = 
REMARK  4 active torsions:
REMARK  status: ('A' for Active; 'I' for Inactive)
REMARK    1  A    between atoms: C_7  and  C_8
REMARK    2  A    between atoms: N_14  and  C_15
REMARK    3  A    between atoms: C_19  and  C_20
REMARK    4  A    between atoms: C_20  and  C_21
REMARK                            x       y       z     vdW  Elec       q    Type
REMARK                         _______ _______ _______ _____ _____    ______ ____
ROOT
ATOM      1  O   UNL     1       2.121   9.528  17.141  0.00  0.00    +0.000 OA
ATOM      2  C   UNL     1       1.756   9.209  18.259  0.00  0.00    +0.000 C 
ATOM      3  C   UNL     1       1.070  10.155  19.141  0.00  0.00    +0.000 A 
ATOM      4  C   UNL     1       0.741  11.473  18.885  0.00  0.00    +0.000 A 
ATOM      5  C   UNL     1       0.109  12.182  19.901  0.00  0.00    +0.000 A 
ATOM      6  C   UNL     1      -0.165  11.568  21.137  0.00  0.00    +0.000 A 
ATOM      7  C   UNL     1       0.181  10.225  21.386  0.00  0.00    +0.000 A 
ATOM      8  C   UNL     1       0.797   9.526  20.351  0.00  0.00    +0.000 A 
ATOM      9  C   UNL     1       1.270   8.107  20.290  0.00  0.00    +0.000 C 
ATOM     10  N   UNL     1       1.864   8.007  18.960  0.00  0.00    +0.000 N 
ENDROOT
BRANCH  10  11
ATOM     11  C   UNL     1       2.547   6.843  18.520  0.00  0.00    +0.000 A 
ATOM     12  C   UNL     1       2.028   5.562  18.739  0.00  0.00    +0.000 A 
ATOM     13  C   UNL     1       2.671   4.425  18.247  0.00  0.00    +0.000 A 
ATOM     14  C   UNL     1       3.856   4.546  17.528  0.00  0.00    +0.000 A 
ATOM     15  C   UNL     1       4.412   5.809  17.303  0.00  0.00    +0.000 A 
ATOM     16  C   UNL     1       3.754   6.945  17.813  0.00  0.00    +0.000 A 
BRANCH  15  17
ATOM     17  C   UNL     1       5.698   5.964  16.521  0.00  0.00    +0.000 C 
BRANCH  17  18
ATOM     18  C   UNL     1       6.713   6.760  17.255  0.00  0.00    +0.000 A 
ATOM     19  N   UNL     1       7.167   7.968  16.967  0.00  0.00    +0.000 NA
ATOM     20  N   UNL     1       8.160   8.278  17.883  0.00  0.00    +0.000 NA
ATOM     21  C   UNL     1       8.278   7.257  18.704  0.00  0.00    +0.000 A 
ATOM     22  N   UNL     1       7.381   6.312  18.348  0.00  0.00    +0.000 N 
ATOM     23  F   UNL     1       7.188   5.143  18.968  0.00  0.00    +0.000 F 
ENDBRANCH  17  18
ENDBRANCH  15  17
ENDBRANCH  10  11
BRANCH   7  24
ATOM     24  C   UNL     1      -0.093   9.582  22.718  0.00  0.00    +0.000 C 
ATOM     25  F   UNL     1      -0.824   8.437  22.631  0.00  0.00    +0.000 F 
ATOM     26  F   UNL     1       1.049   9.251  23.378  0.00  0.00    +0.000 F 
ATOM     27  F   UNL     1      -0.784  10.404  23.554  0.00  0.00    +0.000 F 
ENDBRANCH   7  24
TORSDOF 4
ENDMDL
