MODEL 1
REMARK VINA RESULT:      -9.3      0.000      0.000
REMARK  Name = 
REMARK  5 active torsions:
REMARK  status: ('A' for Active; 'I' for Inactive)
REMARK    1  A    between atoms: C_2  and  C_3
REMARK    2  A    between atoms: C_3  and  C_4
REMARK    3  A    between atoms: N_13  and  C_14
REMARK    4  A    between atoms: C_14  and  C_15
REMARK    5  A    between atoms: C_19  and  C_20
REMARK                            x       y       z     vdW  Elec       q    Type
REMARK                         _______ _______ _______ _____ _____    ______ ____
ROOT
ATOM      1  O   UNL     1       5.243   3.900  18.920  0.00  0.00    +0.000 OA
ATOM      2  C   UNL     1       4.432   3.597  18.051  0.00  0.00    +0.000 C 
ATOM      3  N   UNL     1       3.063   3.653  18.225  0.00  0.00    +0.000 N 
ATOM      4  H   UNL     1       2.492   3.393  17.430  0.00  0.00    +0.000 HD
ENDROOT
BRANCH   3   5
ATOM      5  C   UNL     1       2.390   4.227  19.427  0.00  0.00    +0.000 C 
ATOM      6  C   UNL     1       2.875   3.626  20.796  0.00  0.00    +0.000 C 
ATOM      7  C   UNL     1       1.405   3.396  21.180  0.00  0.00    +0.000 C 
ATOM      8  C   UNL     1       1.061   3.419  19.689  0.00  0.00    +0.000 C 
BRANCH   5   9
ATOM      9  C   UNL     1       2.278   5.834  19.316  0.00  0.00    +0.000 A 
ATOM     10  C   UNL     1       2.630   6.524  18.135  0.00  0.00    +0.000 A 
ATOM     11  C   UNL     1       2.493   7.909  18.005  0.00  0.00    +0.000 A 
ATOM     12  C   UNL     1       1.967   8.657  19.053  0.00  0.00    +0.000 A 
ATOM     13  C   UNL     1       1.575   8.023  20.235  0.00  0.00    +0.000 A 
ATOM     14  C   UNL     1       1.748   6.629  20.353  0.00  0.00    +0.000 A 
BRANCH  13  15
ATOM     15  C   UNL     1       0.945   8.798  21.365  0.00  0.00    +0.000 C 
ATOM     16  F   UNL     1      -0.233   8.272  21.802  0.00  0.00    +0.000 F 
ATOM     17  F   UNL     1       1.753   8.860  22.461  0.00  0.00    +0.000 F 
ATOM     18  F   UNL     1       0.676  10.090  21.027  0.00  0.00    +0.000 F 
ENDBRANCH  13  15
ENDBRANCH   5   9
ENDBRANCH   3   5
BRANCH   2  19
ATOM     19  C   UNL     1       4.848   3.172  16.649  0.00  0.00    +0.000 C 
BRANCH  19  20
ATOM     20  C   UNL     1       5.815   4.110  15.998  0.00  0.00    +0.000 A 
ATOM     21  C   UNL     1       6.579   5.076  16.628  0.00  0.00    +0.000 A 
ATOM     22  N   UNL     1       7.391   5.664  15.695  0.00  0.00    +0.000 N 
ATOM     23  C   UNL     1       7.182   5.101  14.459  0.00  0.00    +0.000 A 
ATOM     24  C   UNL     1       7.800   5.365  13.230  0.00  0.00    +0.000 A 
ATOM     25  C   UNL     1       7.385   4.622  12.123  0.00  0.00    +0.000 A 
ATOM     26  C   UNL     1       6.393   3.652  12.242  0.00  0.00    +0.000 A 
ATOM     27  C   UNL     1       5.790   3.398  13.480  0.00  0.00    +0.000 A 
ATOM     28  C   UNL     1       6.188   4.132  14.613  0.00  0.00    +0.000 A 
ATOM     29  H   UNL     1       8.069   6.390  15.882  0.00  0.00    +0.000 HD
ENDBRANCH  19  20
ENDBRANCH   2  19
TORSDOF 5
ENDMDL
MODEL 2
REMARK VINA RESULT:      -9.1      4.228      7.840
REMARK  Name = 
REMARK  5 active torsions:
REMARK  status: ('A' for Active; 'I' for Inactive)
REMARK    1  A    between atoms: C_2  and  C_3
REMARK    2  A    between atoms: C_3  and  C_4
REMARK    3  A    between atoms: N_13  and  C_14
REMARK    4  A    between atoms: C_14  and  C_15
REMARK    5  A    between atoms: C_19  and  C_20
REMARK                            x       y       z     vdW  Elec       q    Type
REMARK                         _______ _______ _______ _____ _____    ______ ____
ROOT
ATOM      1  O   UNL     1       2.001   5.714  17.786  0.00  0.00    +0.000 OA
ATOM      2  C   UNL     1       2.489   5.743  18.911  0.00  0.00    +0.000 C 
ATOM      3  N   UNL     1       3.323   4.762  19.412  0.00  0.00    +0.000 N 
ATOM      4  H   UNL     1       3.678   4.901  20.350  0.00  0.00    +0.000 HD
ENDROOT
BRANCH   3   5
ATOM      5  C   UNL     1       3.861   3.624  18.610  0.00  0.00    +0.000 C 
ATOM      6  C   UNL     1       2.763   2.724  17.935  0.00  0.00    +0.000 C 
ATOM      7  C   UNL     1       3.465   1.487  18.516  0.00  0.00    +0.000 C 
ATOM      8  C   UNL     1       4.093   2.398  19.574  0.00  0.00    +0.000 C 
BRANCH   5   9
ATOM      9  C   UNL     1       5.103   4.099  17.692  0.00  0.00    +0.000 A 
ATOM     10  C   UNL     1       6.308   4.570  18.258  0.00  0.00    +0.000 A 
ATOM     11  C   UNL     1       7.409   4.938  17.480  0.00  0.00    +0.000 A 
ATOM     12  C   UNL     1       7.354   4.820  16.096  0.00  0.00    +0.000 A 
ATOM     13  C   UNL     1       6.196   4.331  15.483  0.00  0.00    +0.000 A 
ATOM     14  C   UNL     1       5.088   3.992  16.286  0.00  0.00    +0.000 A 
BRANCH  13  15
ATOM     15  C   UNL     1       6.128   4.133  13.990  0.00  0.00    +0.000 C 
ATOM     16  F   UNL     1       6.430   2.866  13.589  0.00  0.00    +0.000 F 
ATOM     17  F   UNL     1       4.886   4.393  13.492  0.00  0.00    +0.000 F 
ATOM     18  F   UNL     1       6.978   4.954  13.313  0.00  0.00    +0.000 F 
ENDBRANCH  13  15
ENDBRANCH   5   9
ENDBRANCH   3   5
BRANCH   2  19
ATOM     19  C   UNL     1       2.270   6.902  19.874  0.00  0.00    +0.000 C 
BRANCH  19  20
ATOM     20  C   UNL     1       1.942   8.194  19.195  0.00  0.00    +0.000 A 
ATOM     21  C   UNL     1       2.379   8.605  17.948  0.00  0.00    +0.000 A 
ATOM     22  N   UNL     1       1.790   9.808  17.658  0.00  0.00    +0.000 N 
ATOM     23  C   UNL     1       0.967  10.197  18.687  0.00  0.00    +0.000 A 
ATOM     24  C   UNL     1       0.154  11.330  18.814  0.00  0.00    +0.000 A 
ATOM     25  C   UNL     1      -0.591  11.465  19.987  0.00  0.00    +0.000 A 
ATOM     26  C   UNL     1      -0.526  10.504  20.992  0.00  0.00    +0.000 A 
ATOM     27  C   UNL     1       0.290   9.374  20.846  0.00  0.00    +0.000 A 
ATOM     28  C   UNL     1       1.052   9.212  19.673  0.00  0.00    +0.000 A 
ATOM     29  H   UNL     1       1.916  10.330  16.801  0.00  0.00    +0.000 HD
ENDBRANCH  19  20
ENDBRANCH   2  19
TORSDOF 5
ENDMDL
MODEL 3
REMARK VINA RESULT:      -9.1      1.552      2.698
REMARK  Name = 
REMARK  5 active torsions:
REMARK  status: ('A' for Active; 'I' for Inactive)
REMARK    1  A    between atoms: C_2  and  C_3
REMARK    2  A    between atoms: C_3  and  C_4
REMARK    3  A    between atoms: N_13  and  C_14
REMARK    4  A    between atoms: C_14  and  C_15
REMARK    5  A    between atoms: C_19  and  C_20
REMARK                            x       y       z     vdW  Elec       q    Type
REMARK                         _______ _______ _______ _____ _____    ______ ____
ROOT
ATOM      1  O   UNL     1       4.147   2.427  19.176  0.00  0.00    +0.000 OA
ATOM      2  C   UNL     1       3.917   3.170  18.228  0.00  0.00    +0.000 C 
ATOM      3  N   UNL     1       2.985   4.189  18.259  0.00  0.00    +0.000 N 
ATOM      4  H   UNL     1       2.893   4.749  17.420  0.00  0.00    +0.000 HD
ENDROOT
BRANCH   3   5
ATOM      5  C   UNL     1       2.248   4.618  19.484  0.00  0.00    +0.000 C 
ATOM      6  C   UNL     1       2.734   3.933  20.813  0.00  0.00    +0.000 C 
ATOM      7  C   UNL     1       1.272   3.585  21.131  0.00  0.00    +0.000 C 
ATOM      8  C   UNL     1       0.964   3.715  19.637  0.00  0.00    +0.000 C 
BRANCH   5   9
ATOM      9  C   UNL     1       2.041   6.220  19.504  0.00  0.00    +0.000 A 
ATOM     10  C   UNL     1       2.409   7.030  18.408  0.00  0.00    +0.000 A 
ATOM     11  C   UNL     1       2.192   8.411  18.389  0.00  0.00    +0.000 A 
ATOM     12  C   UNL     1       1.568   9.032  19.465  0.00  0.00    +0.000 A 
ATOM     13  C   UNL     1       1.156   8.274  20.565  0.00  0.00    +0.000 A 
ATOM     14  C   UNL     1       1.410   6.888  20.574  0.00  0.00    +0.000 A 
BRANCH  13  15
ATOM     15  C   UNL     1       0.422   8.908  21.720  0.00  0.00    +0.000 C 
ATOM     16  F   UNL     1       1.143   8.947  22.875  0.00  0.00    +0.000 F 
ATOM     17  F   UNL     1       0.068  10.199  21.460  0.00  0.00    +0.000 F 
ATOM     18  F   UNL     1      -0.737   8.259  22.022  0.00  0.00    +0.000 F 
ENDBRANCH  13  15
ENDBRANCH   5   9
ENDBRANCH   3   5
BRANCH   2  19
ATOM     19  C   UNL     1       4.679   3.087  16.912  0.00  0.00    +0.000 C 
BRANCH  19  20
ATOM     20  C   UNL     1       5.407   4.345  16.558  0.00  0.00    +0.000 A 
ATOM     21  C   UNL     1       5.280   5.070  15.387  0.00  0.00    +0.000 A 
ATOM     22  N   UNL     1       6.053   6.197  15.488  0.00  0.00    +0.000 N 
ATOM     23  C   UNL     1       6.685   6.233  16.708  0.00  0.00    +0.000 A 
ATOM     24  C   UNL     1       7.542   7.198  17.252  0.00  0.00    +0.000 A 
ATOM     25  C   UNL     1       8.038   6.972  18.538  0.00  0.00    +0.000 A 
ATOM     26  C   UNL     1       7.689   5.828  19.250  0.00  0.00    +0.000 A 
ATOM     27  C   UNL     1       6.827   4.876  18.692  0.00  0.00    +0.000 A 
ATOM     28  C   UNL     1       6.311   5.078  17.397  0.00  0.00    +0.000 A 
ATOM     29  H   UNL     1       6.134   6.918  14.784  0.00  0.00    +0.000 HD
ENDBRANCH  19  20
ENDBRANCH   2  19
TORSDOF 5
ENDMDL
MODEL 4
REMARK VINA RESULT:      -9.0      0.793      1.037
REMARK  Name = 
REMARK  5 active torsions:
REMARK  status: ('A' for Active; 'I' for Inactive)
REMARK    1  A    between atoms: C_2  and  C_3
REMARK    2  A    between atoms: C_3  and  C_4
REMARK    3  A    between atoms: N_13  and  C_14
REMARK    4  A    between atoms: C_14  and  C_15
REMARK    5  A    between atoms: C_19  and  C_20
REMARK                            x       y       z     vdW  Elec       q    Type
REMARK                         _______ _______ _______ _____ _____    ______ ____
ROOT
ATOM      1  O   UNL     1       2.508   3.639  16.668  0.00  0.00    +0.000 OA
ATOM      2  C   UNL     1       3.563   3.599  17.294  0.00  0.00    +0.000 C 
ATOM      3  N   UNL     1       3.705   4.061  18.588  0.00  0.00    +0.000 N 
ATOM      4  H   UNL     1       4.620   3.962  19.009  0.00  0.00    +0.000 HD
ENDROOT
BRANCH   3   5
ATOM      5  C   UNL     1       2.574   4.526  19.445  0.00  0.00    +0.000 C 
ATOM      6  C   UNL     1       2.576   3.937  20.903  0.00  0.00    +0.000 C 
ATOM      7  C   UNL     1       1.103   3.544  20.712  0.00  0.00    +0.000 C 
ATOM      8  C   UNL     1       1.339   3.577  19.200  0.00  0.00    +0.000 C 
BRANCH   5   9
ATOM      9  C   UNL     1       2.340   6.116  19.283  0.00  0.00    +0.000 A 
ATOM     10  C   UNL     1       2.544   6.775  18.052  0.00  0.00    +0.000 A 
ATOM     11  C   UNL     1       2.299   8.141  17.882  0.00  0.00    +0.000 A 
ATOM     12  C   UNL     1       1.809   8.897  18.941  0.00  0.00    +0.000 A 
ATOM     13  C   UNL     1       1.560   8.289  20.175  0.00  0.00    +0.000 A 
ATOM     14  C   UNL     1       1.841   6.917  20.331  0.00  0.00    +0.000 A 
BRANCH  13  15
ATOM     15  C   UNL     1       0.970   9.068  21.324  0.00  0.00    +0.000 C 
ATOM     16  F   UNL     1       1.641   8.907  22.499  0.00  0.00    +0.000 F 
ATOM     17  F   UNL     1       0.957  10.410  21.085  0.00  0.00    +0.000 F 
ATOM     18  F   UNL     1      -0.323   8.723  21.580  0.00  0.00    +0.000 F 
ENDBRANCH  13  15
ENDBRANCH   5   9
ENDBRANCH   3   5
BRANCH   2  19
ATOM     19  C   UNL     1       4.835   2.982  16.728  0.00  0.00    +0.000 C 
BRANCH  19  20
ATOM     20  C   UNL     1       5.750   3.975  16.085  0.00  0.00    +0.000 A 
ATOM     21  C   UNL     1       6.466   4.972  16.722  0.00  0.00    +0.000 A 
ATOM     22  N   UNL     1       7.244   5.610  15.793  0.00  0.00    +0.000 N 
ATOM     23  C   UNL     1       7.060   5.049  14.551  0.00  0.00    +0.000 A 
ATOM     24  C   UNL     1       7.660   5.357  13.324  0.00  0.00    +0.000 A 
ATOM     25  C   UNL     1       7.280   4.604  12.211  0.00  0.00    +0.000 A 
ATOM     26  C   UNL     1       6.339   3.584  12.322  0.00  0.00    +0.000 A 
ATOM     27  C   UNL     1       5.753   3.287  13.559  0.00  0.00    +0.000 A 
ATOM     28  C   UNL     1       6.118   4.030  14.699  0.00  0.00    +0.000 A 
ATOM     29  H   UNL     1       7.885   6.368  15.985  0.00  0.00    +0.000 HD
ENDBRANCH  19  20
ENDBRANCH   2  19
TORSDOF 5
ENDMDL
MODEL 5
REMARK VINA RESULT:      -9.0      5.302      6.928
REMARK  Name = 
REMARK  5 active torsions:
REMARK  status: ('A' for Active; 'I' for Inactive)
REMARK    1  A    between atoms: C_2  and  C_3
REMARK    2  A    between atoms: C_3  and  C_4
REMARK    3  A    between atoms: N_13  and  C_14
REMARK    4  A    between atoms: C_14  and  C_15
REMARK    5  A    between atoms: C_19  and  C_20
REMARK                            x       y       z     vdW  Elec       q    Type
REMARK                         _______ _______ _______ _____ _____    ______ ____
ROOT
ATOM      1  O   UNL     1       8.351   7.436  18.783  0.00  0.00    +0.000 OA
ATOM      2  C   UNL     1       7.907   8.072  17.833  0.00  0.00    +0.000 C 
ATOM      3  N   UNL     1       7.050   7.543  16.887  0.00  0.00    +0.000 N 
ATOM      4  H   UNL     1       6.736   8.168  16.156  0.00  0.00    +0.000 HD
ENDROOT
BRANCH   3   5
ATOM      5  C   UNL     1       6.434   6.186  16.976  0.00  0.00    +0.000 C 
ATOM      6  C   UNL     1       7.427   5.045  17.405  0.00  0.00    +0.000 C 
ATOM      7  C   UNL     1       6.941   4.215  16.207  0.00  0.00    +0.000 C 
ATOM      8  C   UNL     1       6.486   5.519  15.547  0.00  0.00    +0.000 C 
BRANCH   5   9
ATOM      9  C   UNL     1       5.002   6.248  17.720  0.00  0.00    +0.000 A 
ATOM     10  C   UNL     1       4.069   7.272  17.453  0.00  0.00    +0.000 A 
ATOM     11  C   UNL     1       2.806   7.314  18.052  0.00  0.00    +0.000 A 
ATOM     12  C   UNL     1       2.418   6.305  18.927  0.00  0.00    +0.000 A 
ATOM     13  C   UNL     1       3.291   5.249  19.206  0.00  0.00    +0.000 A 
ATOM     14  C   UNL     1       4.570   5.244  18.612  0.00  0.00    +0.000 A 
BRANCH  13  15
ATOM     15  C   UNL     1       2.877   4.109  20.102  0.00  0.00    +0.000 C 
ATOM     16  F   UNL     1       3.845   3.166  20.274  0.00  0.00    +0.000 F 
ATOM     17  F   UNL     1       2.543   4.532  21.354  0.00  0.00    +0.000 F 
ATOM     18  F   UNL     1       1.786   3.444  19.631  0.00  0.00    +0.000 F 
ENDBRANCH  13  15
ENDBRANCH   5   9
ENDBRANCH   3   5
BRANCH   2  19
ATOM     19  C   UNL     1       8.210   9.549  17.615  0.00  0.00    +0.000 C 
BRANCH  19  20
ATOM     20  C   UNL     1       8.988  10.173  18.730  0.00  0.00    +0.000 A 
ATOM     21  C   UNL     1       8.819   9.942  20.084  0.00  0.00    +0.000 A 
ATOM     22  N   UNL     1       9.779  10.643  20.766  0.00  0.00    +0.000 N 
ATOM     23  C   UNL     1      10.584  11.329  19.888  0.00  0.00    +0.000 A 
ATOM     24  C   UNL     1      11.695  12.145  20.130  0.00  0.00    +0.000 A 
ATOM     25  C   UNL     1      12.333  12.716  19.027  0.00  0.00    +0.000 A 
ATOM     26  C   UNL     1      11.877  12.478  17.733  0.00  0.00    +0.000 A 
ATOM     27  C   UNL     1      10.766  11.655  17.509  0.00  0.00    +0.000 A 
ATOM     28  C   UNL     1      10.103  11.066  18.603  0.00  0.00    +0.000 A 
ATOM     29  H   UNL     1       9.904  10.642  21.769  0.00  0.00    +0.000 HD
ENDBRANCH  19  20
ENDBRANCH   2  19
TORSDOF 5
ENDMDL
MODEL 6
REMARK VINA RESULT:      -8.9      5.083      6.736
REMARK  Name = 
REMARK  5 active torsions:
REMARK  status: ('A' for Active; 'I' for Inactive)
REMARK    1  A    between atoms: C_2  and  C_3
REMARK    2  A    between atoms: C_3  and  C_4
REMARK    3  A    between atoms: N_13  and  C_14
REMARK    4  A    between atoms: C_14  and  C_15
REMARK    5  A    between atoms: C_19  and  C_20
REMARK                            x       y       z     vdW  Elec       q    Type
REMARK                         _______ _______ _______ _____ _____    ______ ____
ROOT
ATOM      1  O   UNL     1       8.324   7.412  18.734  0.00  0.00    +0.000 OA
ATOM      2  C   UNL     1       7.892   8.052  17.780  0.00  0.00    +0.000 C 
ATOM      3  N   UNL     1       7.026   7.534  16.837  0.00  0.00    +0.000 N 
ATOM      4  H   UNL     1       6.724   8.161  16.102  0.00  0.00    +0.000 HD
ENDROOT
BRANCH   3   5
ATOM      5  C   UNL     1       6.383   6.190  16.933  0.00  0.00    +0.000 C 
ATOM      6  C   UNL     1       7.379   5.009  17.221  0.00  0.00    +0.000 C 
ATOM      7  C   UNL     1       6.759   4.240  16.045  0.00  0.00    +0.000 C 
ATOM      8  C   UNL     1       6.280   5.581  15.482  0.00  0.00    +0.000 C 
BRANCH   5   9
ATOM      9  C   UNL     1       5.030   6.257  17.813  0.00  0.00    +0.000 A 
ATOM     10  C   UNL     1       4.790   5.359  18.876  0.00  0.00    +0.000 A 
ATOM     11  C   UNL     1       3.648   5.433  19.678  0.00  0.00    +0.000 A 
ATOM     12  C   UNL     1       2.710   6.436  19.462  0.00  0.00    +0.000 A 
ATOM     13  C   UNL     1       2.911   7.371  18.443  0.00  0.00    +0.000 A 
ATOM     14  C   UNL     1       4.056   7.259  17.628  0.00  0.00    +0.000 A 
BRANCH  13  15
ATOM     15  C   UNL     1       1.944   8.507  18.223  0.00  0.00    +0.000 C 
ATOM     16  F   UNL     1       2.531   9.649  17.769  0.00  0.00    +0.000 F 
ATOM     17  F   UNL     1       0.982   8.196  17.309  0.00  0.00    +0.000 F 
ATOM     18  F   UNL     1       1.278   8.854  19.360  0.00  0.00    +0.000 F 
ENDBRANCH  13  15
ENDBRANCH   5   9
ENDBRANCH   3   5
BRANCH   2  19
ATOM     19  C   UNL     1       8.225   9.520  17.555  0.00  0.00    +0.000 C 
BRANCH  19  20
ATOM     20  C   UNL     1       8.984  10.144  18.682  0.00  0.00    +0.000 A 
ATOM     21  C   UNL     1       8.805   9.901  20.032  0.00  0.00    +0.000 A 
ATOM     22  N   UNL     1       9.750  10.607  20.730  0.00  0.00    +0.000 N 
ATOM     23  C   UNL     1      10.555  11.309  19.865  0.00  0.00    +0.000 A 
ATOM     24  C   UNL     1      11.655  12.135  20.125  0.00  0.00    +0.000 A 
ATOM     25  C   UNL     1      12.297  12.722  19.033  0.00  0.00    +0.000 A 
ATOM     26  C   UNL     1      11.857  12.490  17.733  0.00  0.00    +0.000 A 
ATOM     27  C   UNL     1      10.758  11.656  17.491  0.00  0.00    +0.000 A 
ATOM     28  C   UNL     1      10.091  11.051  18.574  0.00  0.00    +0.000 A 
ATOM     29  H   UNL     1       9.864  10.600  21.734  0.00  0.00    +0.000 HD
ENDBRANCH  19  20
ENDBRANCH   2  19
TORSDOF 5
ENDMDL
MODEL 7
REMARK VINA RESULT:      -8.9      3.723      7.559
REMARK  Name = 
REMARK  5 active torsions:
REMARK  status: ('A' for Active; 'I' for Inactive)
REMARK    1  A    between atoms: C_2  and  C_3
REMARK    2  A    between atoms: C_3  and  C_4
REMARK    3  A    between atoms: N_13  and  C_14
REMARK    4  A    between atoms: C_14  and  C_15
REMARK    5  A    between atoms: C_19  and  C_20
REMARK                            x       y       z     vdW  Elec       q    Type
REMARK                         _______ _______ _______ _____ _____    ______ ____
ROOT
ATOM      1  O   UNL     1       2.089   7.593  19.451  0.00  0.00    +0.000 OA
ATOM      2  C   UNL     1       2.353   7.910  18.295  0.00  0.00    +0.000 C 
ATOM      3  N   UNL     1       3.246   7.223  17.496  0.00  0.00    +0.000 N 
ATOM      4  H   UNL     1       3.372   7.568  16.553  0.00  0.00    +0.000 HD
ENDROOT
BRANCH   3   5
ATOM      5  C   UNL     1       3.888   5.928  17.871  0.00  0.00    +0.000 C 
ATOM      6  C   UNL     1       5.245   6.074  18.650  0.00  0.00    +0.000 C 
ATOM      7  C   UNL     1       5.882   5.085  17.663  0.00  0.00    +0.000 C 
ATOM      8  C   UNL     1       4.779   5.444  16.664  0.00  0.00    +0.000 C 
BRANCH   5   9
ATOM      9  C   UNL     1       2.798   4.890  18.459  0.00  0.00    +0.000 A 
ATOM     10  C   UNL     1       1.794   4.326  17.643  0.00  0.00    +0.000 A 
ATOM     11  C   UNL     1       0.874   3.389  18.123  0.00  0.00    +0.000 A 
ATOM     12  C   UNL     1       0.946   2.959  19.444  0.00  0.00    +0.000 A 
ATOM     13  C   UNL     1       1.938   3.462  20.289  0.00  0.00    +0.000 A 
ATOM     14  C   UNL     1       2.837   4.427  19.790  0.00  0.00    +0.000 A 
BRANCH  13  15
ATOM     15  C   UNL     1       2.080   2.970  21.707  0.00  0.00    +0.000 C 
ATOM     16  F   UNL     1       0.963   2.358  22.191  0.00  0.00    +0.000 F 
ATOM     17  F   UNL     1       3.088   2.061  21.839  0.00  0.00    +0.000 F 
ATOM     18  F   UNL     1       2.367   3.973  22.583  0.00  0.00    +0.000 F 
ENDBRANCH  13  15
ENDBRANCH   5   9
ENDBRANCH   3   5
BRANCH   2  19
ATOM     19  C   UNL     1       1.681   9.078  17.587  0.00  0.00    +0.000 C 
BRANCH  19  20
ATOM     20  C   UNL     1       0.787   9.885  18.474  0.00  0.00    +0.000 A 
ATOM     21  C   UNL     1       1.148  10.527  19.645  0.00  0.00    +0.000 A 
ATOM     22  N   UNL     1       0.063  11.222  20.112  0.00  0.00    +0.000 N 
ATOM     23  C   UNL     1      -1.008  11.056  19.267  0.00  0.00    +0.000 A 
ATOM     24  C   UNL     1      -2.299  11.593  19.330  0.00  0.00    +0.000 A 
ATOM     25  C   UNL     1      -3.194  11.252  18.314  0.00  0.00    +0.000 A 
ATOM     26  C   UNL     1      -2.811  10.408  17.275  0.00  0.00    +0.000 A 
ATOM     27  C   UNL     1      -1.513   9.883  17.225  0.00  0.00    +0.000 A 
ATOM     28  C   UNL     1      -0.590  10.210  18.237  0.00  0.00    +0.000 A 
ATOM     29  H   UNL     1       0.049  11.798  20.942  0.00  0.00    +0.000 HD
ENDBRANCH  19  20
ENDBRANCH   2  19
TORSDOF 5
ENDMDL
MODEL 8
REMARK VINA RESULT:      -8.9      2.222      3.354
REMARK  Name = 
REMARK  5 active torsions:
REMARK  status: ('A' for Active; 'I' for Inactive)
REMARK    1  A    between atoms: C_2  and  C_3
REMARK    2  A    between atoms: C_3  and  C_4
REMARK    3  A    between atoms: N_13  and  C_14
REMARK    4  A    between atoms: C_14  and  C_15
REMARK    5  A    between atoms: C_19  and  C_20
REMARK                            x       y       z     vdW  Elec       q    Type
REMARK                         _______ _______ _______ _____ _____    ______ ____
ROOT
ATOM      1  O   UNL     1       1.984   3.762  17.145  0.00  0.00    +0.000 OA
ATOM      2  C   UNL     1       3.105   3.719  17.641  0.00  0.00    +0.000 C 
ATOM      3  N   UNL     1       3.369   3.999  18.967  0.00  0.00    +0.000 N 
ATOM      4  H   UNL     1       4.332   3.916  19.268  0.00  0.00    +0.000 HD
ENDROOT
BRANCH   3   5
ATOM      5  C   UNL     1       2.320   4.238  20.002  0.00  0.00    +0.000 C 
ATOM      6  C   UNL     1       2.570   3.500  21.368  0.00  0.00    +0.000 C 
ATOM      7  C   UNL     1       1.130   2.967  21.307  0.00  0.00    +0.000 C 
ATOM      8  C   UNL     1       1.162   3.188  19.792  0.00  0.00    +0.000 C 
BRANCH   5   9
ATOM      9  C   UNL     1       1.911   5.800  20.062  0.00  0.00    +0.000 A 
ATOM     10  C   UNL     1       1.389   6.386  21.235  0.00  0.00    +0.000 A 
ATOM     11  C   UNL     1       1.076   7.746  21.320  0.00  0.00    +0.000 A 
ATOM     12  C   UNL     1       1.305   8.581  20.232  0.00  0.00    +0.000 A 
ATOM     13  C   UNL     1       1.848   8.060  19.054  0.00  0.00    +0.000 A 
ATOM     14  C   UNL     1       2.129   6.680  18.983  0.00  0.00    +0.000 A 
BRANCH  13  15
ATOM     15  C   UNL     1       2.165   8.950  17.879  0.00  0.00    +0.000 C 
ATOM     16  F   UNL     1       1.073   9.294  17.140  0.00  0.00    +0.000 F 
ATOM     17  F   UNL     1       2.739  10.125  18.262  0.00  0.00    +0.000 F 
ATOM     18  F   UNL     1       3.040   8.375  17.008  0.00  0.00    +0.000 F 
ENDBRANCH  13  15
ENDBRANCH   5   9
ENDBRANCH   3   5
BRANCH   2  19
ATOM     19  C   UNL     1       4.339   3.298  16.853  0.00  0.00    +0.000 C 
BRANCH  19  20
ATOM     20  C   UNL     1       5.245   4.435  16.503  0.00  0.00    +0.000 A 
ATOM     21  C   UNL     1       5.306   5.099  15.291  0.00  0.00    +0.000 A 
ATOM     22  N   UNL     1       6.205   6.128  15.404  0.00  0.00    +0.000 N 
ATOM     23  C   UNL     1       6.735   6.160  16.672  0.00  0.00    +0.000 A 
ATOM     24  C   UNL     1       7.660   7.043  17.241  0.00  0.00    +0.000 A 
ATOM     25  C   UNL     1       8.018   6.836  18.575  0.00  0.00    +0.000 A 
ATOM     26  C   UNL     1       7.471   5.788  19.309  0.00  0.00    +0.000 A 
ATOM     27  C   UNL     1       6.543   4.917  18.725  0.00  0.00    +0.000 A 
ATOM     28  C   UNL     1       6.164   5.102  17.381  0.00  0.00    +0.000 A 
ATOM     29  H   UNL     1       6.433   6.790  14.675  0.00  0.00    +0.000 HD
ENDBRANCH  19  20
ENDBRANCH   2  19
TORSDOF 5
ENDMDL
MODEL 9
REMARK VINA RESULT:      -8.8      4.146      8.361
REMARK  Name = 
REMARK  5 active torsions:
REMARK  status: ('A' for Active; 'I' for Inactive)
REMARK    1  A    between atoms: C_2  and  C_3
REMARK    2  A    between atoms: C_3  and  C_4
REMARK    3  A    between atoms: N_13  and  C_14
REMARK    4  A    between atoms: C_14  and  C_15
REMARK    5  A    between atoms: C_19  and  C_20
REMARK                            x       y       z     vdW  Elec       q    Type
REMARK                         _______ _______ _______ _____ _____    ______ ____
ROOT
ATOM      1  O   UNL     1       2.381   7.163  18.370  0.00  0.00    +0.000 OA
ATOM      2  C   UNL     1       2.233   6.714  19.502  0.00  0.00    +0.000 C 
ATOM      3  N   UNL     1       2.343   5.373  19.816  0.00  0.00    +0.000 N 
ATOM      4  H   UNL     1       2.215   5.121  20.788  0.00  0.00    +0.000 HD
ENDROOT
BRANCH   3   5
ATOM      5  C   UNL     1       2.803   4.320  18.863  0.00  0.00    +0.000 C 
ATOM      6  C   UNL     1       1.727   3.882  17.804  0.00  0.00    +0.000 C 
ATOM      7  C   UNL     1       2.006   2.417  18.173  0.00  0.00    +0.000 C 
ATOM      8  C   UNL     1       2.549   2.908  19.518  0.00  0.00    +0.000 C 
BRANCH   5   9
ATOM      9  C   UNL     1       4.293   4.637  18.325  0.00  0.00    +0.000 A 
ATOM     10  C   UNL     1       5.354   4.935  19.207  0.00  0.00    +0.000 A 
ATOM     11  C   UNL     1       6.659   5.163  18.762  0.00  0.00    +0.000 A 
ATOM     12  C   UNL     1       6.958   5.073  17.407  0.00  0.00    +0.000 A 
ATOM     13  C   UNL     1       5.951   4.753  16.491  0.00  0.00    +0.000 A 
ATOM     14  C   UNL     1       4.637   4.554  16.960  0.00  0.00    +0.000 A 
BRANCH  13  15
ATOM     15  C   UNL     1       6.255   4.587  15.023  0.00  0.00    +0.000 C 
ATOM     16  F   UNL     1       6.241   3.292  14.601  0.00  0.00    +0.000 F 
ATOM     17  F   UNL     1       5.360   5.245  14.233  0.00  0.00    +0.000 F 
ATOM     18  F   UNL     1       7.480   5.078  14.684  0.00  0.00    +0.000 F 
ENDBRANCH  13  15
ENDBRANCH   5   9
ENDBRANCH   3   5
BRANCH   2  19
ATOM     19  C   UNL     1       1.959   7.598  20.711  0.00  0.00    +0.000 C 
BRANCH  19  20
ATOM     20  C   UNL     1       1.215   8.853  20.380  0.00  0.00    +0.000 A 
ATOM     21  C   UNL     1       1.149   9.473  19.145  0.00  0.00    +0.000 A 
ATOM     22  N   UNL     1       0.303  10.547  19.243  0.00  0.00    +0.000 N 
ATOM     23  C   UNL     1      -0.197  10.645  20.519  0.00  0.00    +0.000 A 
ATOM     24  C   UNL     1      -1.105  11.560  21.064  0.00  0.00    +0.000 A 
ATOM     25  C   UNL     1      -1.444  11.413  22.412  0.00  0.00    +0.000 A 
ATOM     26  C   UNL     1      -0.896  10.390  23.180  0.00  0.00    +0.000 A 
ATOM     27  C   UNL     1       0.008   9.481  22.617  0.00  0.00    +0.000 A 
ATOM     28  C   UNL     1       0.368   9.605  21.261  0.00  0.00    +0.000 A 
ATOM     29  H   UNL     1       0.055  11.168  18.485  0.00  0.00    +0.000 HD
ENDBRANCH  19  20
ENDBRANCH   2  19
TORSDOF 5
ENDMDL
