MODEL 1
REMARK VINA RESULT:      -9.9      0.000      0.000
REMARK  Name = 
REMARK  7 active torsions:
REMARK  status: ('A' for Active; 'I' for Inactive)
REMARK    1  A    between atoms: C_1  and  C_2
REMARK    2  A    between atoms: C_6  and  C_7
REMARK    3  A    between atoms: N_13  and  C_14
REMARK    4  A    between atoms: C_18  and  C_19
REMARK    5  A    between atoms: C_19  and  C_20
REMARK    6  A    between atoms: C_19  and  N_21
REMARK    7  A    between atoms: N_26  and  C_27
REMARK                            x       y       z     vdW  Elec       q    Type
REMARK                         _______ _______ _______ _____ _____    ______ ____
ROOT
ATOM      1  C   UNL     1       2.702   6.438  18.554  0.00  0.00    +0.000 A 
ATOM      2  C   UNL     1       2.154   5.207  18.948  0.00  0.00    +0.000 A 
ATOM      3  C   UNL     1       2.761   3.997  18.631  0.00  0.00    +0.000 A 
ATOM      4  C   UNL     1       3.943   3.994  17.909  0.00  0.00    +0.000 A 
ATOM      5  C   UNL     1       4.519   5.200  17.477  0.00  0.00    +0.000 A 
ATOM      6  C   UNL     1       3.853   6.421  17.755  0.00  0.00    +0.000 A 
ENDROOT
BRANCH   1  15
ATOM      7  C   UNL     1      -0.268  13.196  19.148  0.00  0.00    +0.000 C 
ATOM      8  C   UNL     1       0.174  11.819  19.547  0.00  0.00    +0.000 A 
ATOM      9  C   UNL     1       0.883  11.030  18.647  0.00  0.00    +0.000 A 
ATOM     10  C   UNL     1       1.253   9.761  19.053  0.00  0.00    +0.000 A 
ATOM     11  C   UNL     1       0.954   9.213  20.295  0.00  0.00    +0.000 A 
ATOM     12  C   UNL     1       0.277   9.996  21.227  0.00  0.00    +0.000 A 
ATOM     13  C   UNL     1      -0.111  11.304  20.832  0.00  0.00    +0.000 A 
ATOM     14  C   UNL     1       1.451   7.789  20.334  0.00  0.00    +0.000 C 
ATOM     15  N   UNL     1       2.117   7.637  19.044  0.00  0.00    +0.000 N 
ATOM     16  C   UNL     1       1.987   8.787  18.261  0.00  0.00    +0.000 C 
ATOM     17  O   UNL     1       2.334   9.034  17.122  0.00  0.00    +0.000 OA
BRANCH  12  18
ATOM     18  C   UNL     1      -0.045   9.528  22.622  0.00  0.00    +0.000 C 
ATOM     19  F   UNL     1      -0.852   8.435  22.660  0.00  0.00    +0.000 F 
ATOM     20  F   UNL     1       1.076   9.190  23.321  0.00  0.00    +0.000 F 
ATOM     21  F   UNL     1      -0.669  10.485  23.360  0.00  0.00    +0.000 F 
ENDBRANCH  12  18
ENDBRANCH   1  15
BRANCH   5  22
ATOM     22  C   UNL     1       5.877   5.205  16.782  0.00  0.00    +0.000 C 
ATOM     23  C   UNL     1       6.961   4.499  17.615  0.00  0.00    +0.000 C 
BRANCH  22  24
ATOM     24  N   UNL     1       5.775   4.537  15.485  0.00  0.00    +0.000 N 
ATOM     25  C   UNL     1       6.693   4.839  14.537  0.00  0.00    +0.000 A 
ATOM     26  N   UNL     1       7.761   5.603  14.638  0.00  0.00    +0.000 NA
ATOM     27  N   UNL     1       8.389   5.645  13.416  0.00  0.00    +0.000 NA
ATOM     28  C   UNL     1       7.706   4.879  12.601  0.00  0.00    +0.000 A 
ATOM     29  N   UNL     1       6.642   4.341  13.260  0.00  0.00    +0.000 N 
ATOM     30  C   UNL     1       5.726   3.387  12.698  0.00  0.00    +0.000 C 
ATOM     31  H   UNL     1       4.817   4.355  15.204  0.00  0.00    +0.000 HD
ENDBRANCH  22  24
ENDBRANCH   5  22
TORSDOF 4
ENDMDL
MODEL 2
REMARK VINA RESULT:      -9.5      3.933      8.646
REMARK  Name = 
REMARK  7 active torsions:
REMARK  status: ('A' for Active; 'I' for Inactive)
REMARK    1  A    between atoms: C_1  and  C_2
REMARK    2  A    between atoms: C_6  and  C_7
REMARK    3  A    between atoms: N_13  and  C_14
REMARK    4  A    between atoms: C_18  and  C_19
REMARK    5  A    between atoms: C_19  and  C_20
REMARK    6  A    between atoms: C_19  and  N_21
REMARK    7  A    between atoms: N_26  and  C_27
REMARK                            x       y       z     vdW  Elec       q    Type
REMARK                         _______ _______ _______ _____ _____    ______ ____
ROOT
ATOM      1  C   UNL     1       1.588   8.126  19.771  0.00  0.00    +0.000 A 
ATOM      2  C   UNL     1       1.144   7.949  21.092  0.00  0.00    +0.000 A 
ATOM      3  C   UNL     1       0.411   8.925  21.758  0.00  0.00    +0.000 A 
ATOM      4  C   UNL     1       0.101  10.108  21.109  0.00  0.00    +0.000 A 
ATOM      5  C   UNL     1       0.539  10.338  19.794  0.00  0.00    +0.000 A 
ATOM      6  C   UNL     1       1.340   9.358  19.153  0.00  0.00    +0.000 A 
ENDROOT
BRANCH   1  15
ATOM      7  C   UNL     1       5.967   3.877  15.574  0.00  0.00    +0.000 C 
ATOM      8  C   UNL     1       4.908   4.244  16.572  0.00  0.00    +0.000 A 
ATOM      9  C   UNL     1       4.588   5.581  16.784  0.00  0.00    +0.000 A 
ATOM     10  C   UNL     1       3.618   5.871  17.726  0.00  0.00    +0.000 A 
ATOM     11  C   UNL     1       2.948   4.919  18.485  0.00  0.00    +0.000 A 
ATOM     12  C   UNL     1       3.223   3.572  18.265  0.00  0.00    +0.000 A 
ATOM     13  C   UNL     1       4.215   3.251  17.300  0.00  0.00    +0.000 A 
ATOM     14  C   UNL     1       2.030   5.623  19.454  0.00  0.00    +0.000 C 
ATOM     15  N   UNL     1       2.195   7.030  19.100  0.00  0.00    +0.000 N 
ATOM     16  C   UNL     1       3.151   7.198  18.095  0.00  0.00    +0.000 C 
ATOM     17  O   UNL     1       3.618   8.196  17.580  0.00  0.00    +0.000 OA
BRANCH  12  18
ATOM     18  C   UNL     1       2.515   2.455  18.985  0.00  0.00    +0.000 C 
ATOM     19  F   UNL     1       1.162   2.495  18.862  0.00  0.00    +0.000 F 
ATOM     20  F   UNL     1       2.896   1.228  18.529  0.00  0.00    +0.000 F 
ATOM     21  F   UNL     1       2.773   2.452  20.321  0.00  0.00    +0.000 F 
ENDBRANCH  12  18
ENDBRANCH   1  15
BRANCH   5  22
ATOM     22  C   UNL     1       0.104  11.590  19.040  0.00  0.00    +0.000 C 
ATOM     23  C   UNL     1       1.301  12.422  18.550  0.00  0.00    +0.000 C 
BRANCH  22  24
ATOM     24  N   UNL     1      -0.712  11.217  17.884  0.00  0.00    +0.000 N 
ATOM     25  C   UNL     1      -2.055  11.342  17.983  0.00  0.00    +0.000 A 
ATOM     26  N   UNL     1      -2.766  11.855  18.967  0.00  0.00    +0.000 NA
ATOM     27  N   UNL     1      -4.099  11.751  18.649  0.00  0.00    +0.000 NA
ATOM     28  C   UNL     1      -4.174  11.202  17.460  0.00  0.00    +0.000 A 
ATOM     29  N   UNL     1      -2.920  10.940  16.997  0.00  0.00    +0.000 N 
ATOM     30  C   UNL     1      -2.621  10.417  15.691  0.00  0.00    +0.000 C 
ATOM     31  H   UNL     1      -0.325  10.441  17.358  0.00  0.00    +0.000 HD
ENDBRANCH  22  24
ENDBRANCH   5  22
TORSDOF 4
ENDMDL
MODEL 3
REMARK VINA RESULT:      -9.5      4.036      8.553
REMARK  Name = 
REMARK  7 active torsions:
REMARK  status: ('A' for Active; 'I' for Inactive)
REMARK    1  A    between atoms: C_1  and  C_2
REMARK    2  A    between atoms: C_6  and  C_7
REMARK    3  A    between atoms: N_13  and  C_14
REMARK    4  A    between atoms: C_18  and  C_19
REMARK    5  A    between atoms: C_19  and  C_20
REMARK    6  A    between atoms: C_19  and  N_21
REMARK    7  A    between atoms: N_26  and  C_27
REMARK                            x       y       z     vdW  Elec       q    Type
REMARK                         _______ _______ _______ _____ _____    ______ ____
ROOT
ATOM      1  C   UNL     1       1.033   9.095  20.391  0.00  0.00    +0.000 A 
ATOM      2  C   UNL     1       0.676   9.201  21.745  0.00  0.00    +0.000 A 
ATOM      3  C   UNL     1       0.010  10.315  22.244  0.00  0.00    +0.000 A 
ATOM      4  C   UNL     1      -0.320  11.353  21.390  0.00  0.00    +0.000 A 
ATOM      5  C   UNL     1       0.033  11.300  20.031  0.00  0.00    +0.000 A 
ATOM      6  C   UNL     1       0.768  10.185  19.552  0.00  0.00    +0.000 A 
ENDROOT
BRANCH   1  15
ATOM      7  C   UNL     1       4.865   3.939  16.706  0.00  0.00    +0.000 C 
ATOM      8  C   UNL     1       3.962   4.541  17.742  0.00  0.00    +0.000 A 
ATOM      9  C   UNL     1       3.626   5.889  17.670  0.00  0.00    +0.000 A 
ATOM     10  C   UNL     1       2.806   6.403  18.657  0.00  0.00    +0.000 A 
ATOM     11  C   UNL     1       2.303   5.669  19.725  0.00  0.00    +0.000 A 
ATOM     12  C   UNL     1       2.595   4.310  19.800  0.00  0.00    +0.000 A 
ATOM     13  C   UNL     1       3.435   3.760  18.795  0.00  0.00    +0.000 A 
ATOM     14  C   UNL     1       1.522   6.592  20.628  0.00  0.00    +0.000 C 
ATOM     15  N   UNL     1       1.570   7.867  19.919  0.00  0.00    +0.000 N 
ATOM     16  C   UNL     1       2.349   7.780  18.762  0.00  0.00    +0.000 C 
ATOM     17  O   UNL     1       2.687   8.619  17.949  0.00  0.00    +0.000 OA
BRANCH  12  18
ATOM     18  C   UNL     1       2.056   3.406  20.877  0.00  0.00    +0.000 C 
ATOM     19  F   UNL     1       2.459   2.114  20.760  0.00  0.00    +0.000 F 
ATOM     20  F   UNL     1       2.439   3.807  22.122  0.00  0.00    +0.000 F 
ATOM     21  F   UNL     1       0.695   3.378  20.898  0.00  0.00    +0.000 F 
ENDBRANCH  12  18
ENDBRANCH   1  15
BRANCH   5  22
ATOM     22  C   UNL     1      -0.428  12.389  19.068  0.00  0.00    +0.000 C 
ATOM     23  C   UNL     1       0.739  13.258  18.569  0.00  0.00    +0.000 C 
BRANCH  22  24
ATOM     24  N   UNL     1      -1.089  11.785  17.911  0.00  0.00    +0.000 N 
ATOM     25  C   UNL     1      -2.429  11.607  17.963  0.00  0.00    +0.000 A 
ATOM     26  N   UNL     1      -3.278  11.993  18.894  0.00  0.00    +0.000 NA
ATOM     27  N   UNL     1      -4.538  11.573  18.543  0.00  0.00    +0.000 NA
ATOM     28  C   UNL     1      -4.438  10.964  17.386  0.00  0.00    +0.000 A 
ATOM     29  N   UNL     1      -3.139  10.971  16.976  0.00  0.00    +0.000 N 
ATOM     30  C   UNL     1      -2.675  10.465  15.712  0.00  0.00    +0.000 C 
ATOM     31  H   UNL     1      -0.516  11.091  17.443  0.00  0.00    +0.000 HD
ENDBRANCH  22  24
ENDBRANCH   5  22
TORSDOF 4
ENDMDL
MODEL 4
REMARK VINA RESULT:      -9.4      4.434      8.947
REMARK  Name = 
REMARK  7 active torsions:
REMARK  status: ('A' for Active; 'I' for Inactive)
REMARK    1  A    between atoms: C_1  and  C_2
REMARK    2  A    between atoms: C_6  and  C_7
REMARK    3  A    between atoms: N_13  and  C_14
REMARK    4  A    between atoms: C_18  and  C_19
REMARK    5  A    between atoms: C_19  and  C_20
REMARK    6  A    between atoms: C_19  and  N_21
REMARK    7  A    between atoms: N_26  and  C_27
REMARK                            x       y       z     vdW  Elec       q    Type
REMARK                         _______ _______ _______ _____ _____    ______ ____
ROOT
ATOM      1  C   UNL     1       1.494   8.474  20.005  0.00  0.00    +0.000 A 
ATOM      2  C   UNL     1       1.103   8.366  21.349  0.00  0.00    +0.000 A 
ATOM      3  C   UNL     1       0.293   9.319  21.957  0.00  0.00    +0.000 A 
ATOM      4  C   UNL     1      -0.151  10.406  21.224  0.00  0.00    +0.000 A 
ATOM      5  C   UNL     1       0.228  10.566  19.881  0.00  0.00    +0.000 A 
ATOM      6  C   UNL     1       1.107   9.618  19.296  0.00  0.00    +0.000 A 
ENDROOT
BRANCH   1  15
ATOM      7  C   UNL     1       3.708   1.743  17.852  0.00  0.00    +0.000 C 
ATOM      8  C   UNL     1       3.636   3.240  17.920  0.00  0.00    +0.000 A 
ATOM      9  C   UNL     1       2.808   3.853  18.853  0.00  0.00    +0.000 A 
ATOM     10  C   UNL     1       2.760   5.234  18.866  0.00  0.00    +0.000 A 
ATOM     11  C   UNL     1       3.475   6.055  18.002  0.00  0.00    +0.000 A 
ATOM     12  C   UNL     1       4.340   5.467  17.082  0.00  0.00    +0.000 A 
ATOM     13  C   UNL     1       4.406   4.048  17.053  0.00  0.00    +0.000 A 
ATOM     14  C   UNL     1       3.101   7.492  18.269  0.00  0.00    +0.000 C 
ATOM     15  N   UNL     1       2.189   7.389  19.405  0.00  0.00    +0.000 N 
ATOM     16  C   UNL     1       1.956   6.057  19.755  0.00  0.00    +0.000 C 
ATOM     17  O   UNL     1       1.221   5.556  20.585  0.00  0.00    +0.000 OA
BRANCH  12  18
ATOM     18  C   UNL     1       5.208   6.258  16.140  0.00  0.00    +0.000 C 
ATOM     19  F   UNL     1       4.510   7.080  15.312  0.00  0.00    +0.000 F 
ATOM     20  F   UNL     1       6.090   7.058  16.804  0.00  0.00    +0.000 F 
ATOM     21  F   UNL     1       5.962   5.462  15.335  0.00  0.00    +0.000 F 
ENDBRANCH  12  18
ENDBRANCH   1  15
BRANCH   5  22
ATOM     22  C   UNL     1      -0.351  11.700  19.042  0.00  0.00    +0.000 C 
ATOM     23  C   UNL     1       0.730  12.690  18.575  0.00  0.00    +0.000 C 
BRANCH  22  24
ATOM     24  N   UNL     1      -1.026  11.155  17.865  0.00  0.00    +0.000 N 
ATOM     25  C   UNL     1      -2.374  11.258  17.796  0.00  0.00    +0.000 A 
ATOM     26  N   UNL     1      -3.196  11.881  18.616  0.00  0.00    +0.000 NA
ATOM     27  N   UNL     1      -4.483  11.701  18.170  0.00  0.00    +0.000 NA
ATOM     28  C   UNL     1      -4.417  10.996  17.066  0.00  0.00    +0.000 A 
ATOM     29  N   UNL     1      -3.116  10.706  16.784  0.00  0.00    +0.000 N 
ATOM     30  C   UNL     1      -2.667  10.019  15.604  0.00  0.00    +0.000 C 
ATOM     31  H   UNL     1      -0.575  10.325  17.496  0.00  0.00    +0.000 HD
ENDBRANCH  22  24
ENDBRANCH   5  22
TORSDOF 4
ENDMDL
MODEL 5
REMARK VINA RESULT:      -9.3      4.079      8.708
REMARK  Name = 
REMARK  7 active torsions:
REMARK  status: ('A' for Active; 'I' for Inactive)
REMARK    1  A    between atoms: C_1  and  C_2
REMARK    2  A    between atoms: C_6  and  C_7
REMARK    3  A    between atoms: N_13  and  C_14
REMARK    4  A    between atoms: C_18  and  C_19
REMARK    5  A    between atoms: C_19  and  C_20
REMARK    6  A    between atoms: C_19  and  N_21
REMARK    7  A    between atoms: N_26  and  C_27
REMARK                            x       y       z     vdW  Elec       q    Type
REMARK                         _______ _______ _______ _____ _____    ______ ____
ROOT
ATOM      1  C   UNL     1       1.127   8.580  20.561  0.00  0.00    +0.000 A 
ATOM      2  C   UNL     1       1.081   8.609  21.964  0.00  0.00    +0.000 A 
ATOM      3  C   UNL     1       0.436   9.627  22.657  0.00  0.00    +0.000 A 
ATOM      4  C   UNL     1      -0.185  10.645  21.954  0.00  0.00    +0.000 A 
ATOM      5  C   UNL     1      -0.149  10.669  20.551  0.00  0.00    +0.000 A 
ATOM      6  C   UNL     1       0.567   9.658  19.861  0.00  0.00    +0.000 A 
ENDROOT
BRANCH   1  15
ATOM      7  C   UNL     1       5.020   4.005  16.230  0.00  0.00    +0.000 C 
ATOM      8  C   UNL     1       4.088   4.452  17.318  0.00  0.00    +0.000 A 
ATOM      9  C   UNL     1       3.773   5.800  17.451  0.00  0.00    +0.000 A 
ATOM     10  C   UNL     1       2.925   6.166  18.479  0.00  0.00    +0.000 A 
ATOM     11  C   UNL     1       2.373   5.281  19.398  0.00  0.00    +0.000 A 
ATOM     12  C   UNL     1       2.643   3.922  19.263  0.00  0.00    +0.000 A 
ATOM     13  C   UNL     1       3.511   3.523  18.212  0.00  0.00    +0.000 A 
ATOM     14  C   UNL     1       1.571   6.062  20.409  0.00  0.00    +0.000 C 
ATOM     15  N   UNL     1       1.664   7.433  19.916  0.00  0.00    +0.000 N 
ATOM     16  C   UNL     1       2.484   7.517  18.788  0.00  0.00    +0.000 C 
ATOM     17  O   UNL     1       2.863   8.469  18.132  0.00  0.00    +0.000 OA
BRANCH  12  18
ATOM     18  C   UNL     1       2.051   2.868  20.162  0.00  0.00    +0.000 C 
ATOM     19  F   UNL     1       0.706   2.979  20.324  0.00  0.00    +0.000 F 
ATOM     20  F   UNL     1       2.268   1.609  19.688  0.00  0.00    +0.000 F 
ATOM     21  F   UNL     1       2.586   2.892  21.413  0.00  0.00    +0.000 F 
ENDBRANCH  12  18
ENDBRANCH   1  15
BRANCH   5  22
ATOM     22  C   UNL     1      -0.927  11.726  19.774  0.00  0.00    +0.000 C 
ATOM     23  C   UNL     1      -0.076  12.972  19.471  0.00  0.00    +0.000 C 
BRANCH  22  24
ATOM     24  N   UNL     1      -1.403  11.167  18.509  0.00  0.00    +0.000 N 
ATOM     25  C   UNL     1      -2.707  11.331  18.188  0.00  0.00    +0.000 A 
ATOM     26  N   UNL     1      -3.631  12.024  18.821  0.00  0.00    +0.000 NA
ATOM     27  N   UNL     1      -4.822  11.888  18.150  0.00  0.00    +0.000 NA
ATOM     28  C   UNL     1      -4.593  11.136  17.100  0.00  0.00    +0.000 A 
ATOM     29  N   UNL     1      -3.280  10.773  17.074  0.00  0.00    +0.000 N 
ATOM     30  C   UNL     1      -2.659  10.019  16.019  0.00  0.00    +0.000 C 
ATOM     31  H   UNL     1      -0.937  10.302  18.256  0.00  0.00    +0.000 HD
ENDBRANCH  22  24
ENDBRANCH   5  22
TORSDOF 4
ENDMDL
MODEL 6
REMARK VINA RESULT:      -9.1      2.670      3.926
REMARK  Name = 
REMARK  7 active torsions:
REMARK  status: ('A' for Active; 'I' for Inactive)
REMARK    1  A    between atoms: C_1  and  C_2
REMARK    2  A    between atoms: C_6  and  C_7
REMARK    3  A    between atoms: N_13  and  C_14
REMARK    4  A    between atoms: C_18  and  C_19
REMARK    5  A    between atoms: C_19  and  C_20
REMARK    6  A    between atoms: C_19  and  N_21
REMARK    7  A    between atoms: N_26  and  C_27
REMARK                            x       y       z     vdW  Elec       q    Type
REMARK                         _______ _______ _______ _____ _____    ______ ____
ROOT
ATOM      1  C   UNL     1       2.775   5.278  17.998  0.00  0.00    +0.000 A 
ATOM      2  C   UNL     1       2.166   4.014  18.065  0.00  0.00    +0.000 A 
ATOM      3  C   UNL     1       2.746   2.888  17.490  0.00  0.00    +0.000 A 
ATOM      4  C   UNL     1       3.959   3.003  16.834  0.00  0.00    +0.000 A 
ATOM      5  C   UNL     1       4.597   4.250  16.725  0.00  0.00    +0.000 A 
ATOM      6  C   UNL     1       3.961   5.399  17.261  0.00  0.00    +0.000 A 
ENDROOT
BRANCH   1  15
ATOM      7  C   UNL     1       0.192   9.623  23.410  0.00  0.00    +0.000 C 
ATOM      8  C   UNL     1       0.631   9.203  22.038  0.00  0.00    +0.000 A 
ATOM      9  C   UNL     1       1.006   7.885  21.803  0.00  0.00    +0.000 A 
ATOM     10  C   UNL     1       1.419   7.549  20.527  0.00  0.00    +0.000 A 
ATOM     11  C   UNL     1       1.498   8.441  19.464  0.00  0.00    +0.000 A 
ATOM     12  C   UNL     1       1.092   9.758  19.664  0.00  0.00    +0.000 A 
ATOM     13  C   UNL     1       0.662  10.124  20.967  0.00  0.00    +0.000 A 
ATOM     14  C   UNL     1       2.065   7.724  18.264  0.00  0.00    +0.000 C 
ATOM     15  N   UNL     1       2.209   6.351  18.738  0.00  0.00    +0.000 N 
ATOM     16  C   UNL     1       1.856   6.234  20.084  0.00  0.00    +0.000 C 
ATOM     17  O   UNL     1       1.900   5.293  20.854  0.00  0.00    +0.000 OA
BRANCH  12  18
ATOM     18  C   UNL     1       1.076  10.793  18.571  0.00  0.00    +0.000 C 
ATOM     19  F   UNL     1       2.271  10.940  17.938  0.00  0.00    +0.000 F 
ATOM     20  F   UNL     1       0.171  10.497  17.596  0.00  0.00    +0.000 F 
ATOM     21  F   UNL     1       0.737  12.029  19.030  0.00  0.00    +0.000 F 
ENDBRANCH  12  18
ENDBRANCH   1  15
BRANCH   5  22
ATOM     22  C   UNL     1       5.985   4.359  16.103  0.00  0.00    +0.000 C 
ATOM     23  C   UNL     1       5.942   4.287  14.567  0.00  0.00    +0.000 C 
BRANCH  22  24
ATOM     24  N   UNL     1       6.610   5.622  16.495  0.00  0.00    +0.000 N 
ATOM     25  C   UNL     1       7.246   5.676  17.688  0.00  0.00    +0.000 A 
ATOM     26  N   UNL     1       7.478   4.703  18.544  0.00  0.00    +0.000 NA
ATOM     27  N   UNL     1       8.134   5.222  19.634  0.00  0.00    +0.000 NA
ATOM     28  C   UNL     1       8.316   6.500  19.407  0.00  0.00    +0.000 A 
ATOM     29  N   UNL     1       7.789   6.830  18.194  0.00  0.00    +0.000 N 
ATOM     30  C   UNL     1       7.883   8.128  17.585  0.00  0.00    +0.000 C 
ATOM     31  H   UNL     1       6.100   6.436  16.169  0.00  0.00    +0.000 HD
ENDBRANCH  22  24
ENDBRANCH   5  22
TORSDOF 4
ENDMDL
MODEL 7
REMARK VINA RESULT:      -9.1      1.704      2.801
REMARK  Name = 
REMARK  7 active torsions:
REMARK  status: ('A' for Active; 'I' for Inactive)
REMARK    1  A    between atoms: C_1  and  C_2
REMARK    2  A    between atoms: C_6  and  C_7
REMARK    3  A    between atoms: N_13  and  C_14
REMARK    4  A    between atoms: C_18  and  C_19
REMARK    5  A    between atoms: C_19  and  C_20
REMARK    6  A    between atoms: C_19  and  N_21
REMARK    7  A    between atoms: N_26  and  C_27
REMARK                            x       y       z     vdW  Elec       q    Type
REMARK                         _______ _______ _______ _____ _____    ______ ____
ROOT
ATOM      1  C   UNL     1       2.431   6.180  18.662  0.00  0.00    +0.000 A 
ATOM      2  C   UNL     1       1.850   5.016  19.192  0.00  0.00    +0.000 A 
ATOM      3  C   UNL     1       2.339   3.749  18.891  0.00  0.00    +0.000 A 
ATOM      4  C   UNL     1       3.431   3.619  18.051  0.00  0.00    +0.000 A 
ATOM      5  C   UNL     1       4.034   4.753  17.483  0.00  0.00    +0.000 A 
ATOM      6  C   UNL     1       3.484   6.033  17.749  0.00  0.00    +0.000 A 
ENDROOT
BRANCH   1  15
ATOM      7  C   UNL     1       0.248  13.240  19.144  0.00  0.00    +0.000 C 
ATOM      8  C   UNL     1       0.526  11.826  19.564  0.00  0.00    +0.000 A 
ATOM      9  C   UNL     1       1.148  10.950  18.681  0.00  0.00    +0.000 A 
ATOM     10  C   UNL     1       1.367   9.653  19.106  0.00  0.00    +0.000 A 
ATOM     11  C   UNL     1       0.998   9.159  20.352  0.00  0.00    +0.000 A 
ATOM     12  C   UNL     1       0.407  10.026  21.268  0.00  0.00    +0.000 A 
ATOM     13  C   UNL     1       0.175  11.365  20.852  0.00  0.00    +0.000 A 
ATOM     14  C   UNL     1       1.328   7.688  20.413  0.00  0.00    +0.000 C 
ATOM     15  N   UNL     1       1.983   7.444  19.131  0.00  0.00    +0.000 N 
ATOM     16  C   UNL     1       1.992   8.591  18.333  0.00  0.00    +0.000 C 
ATOM     17  O   UNL     1       2.373   8.781  17.194  0.00  0.00    +0.000 OA
BRANCH  12  18
ATOM     18  C   UNL     1       0.023   9.617  22.665  0.00  0.00    +0.000 C 
ATOM     19  F   UNL     1       1.076   9.217  23.427  0.00  0.00    +0.000 F 
ATOM     20  F   UNL     1      -0.571  10.633  23.352  0.00  0.00    +0.000 F 
ATOM     21  F   UNL     1      -0.866   8.588  22.679  0.00  0.00    +0.000 F 
ENDBRANCH  12  18
ENDBRANCH   1  15
BRANCH   5  22
ATOM     22  C   UNL     1       5.304   4.620  16.650  0.00  0.00    +0.000 C 
ATOM     23  C   UNL     1       5.004   4.488  15.146  0.00  0.00    +0.000 C 
BRANCH  22  24
ATOM     24  N   UNL     1       6.160   5.788  16.854  0.00  0.00    +0.000 N 
ATOM     25  C   UNL     1       6.975   5.801  17.935  0.00  0.00    +0.000 A 
ATOM     26  N   UNL     1       7.192   4.846  18.816  0.00  0.00    +0.000 NA
ATOM     27  N   UNL     1       8.077   5.310  19.759  0.00  0.00    +0.000 NA
ATOM     28  C   UNL     1       8.408   6.532  19.416  0.00  0.00    +0.000 A 
ATOM     29  N   UNL     1       7.753   6.879  18.273  0.00  0.00    +0.000 N 
ATOM     30  C   UNL     1       7.940   8.116  17.565  0.00  0.00    +0.000 C 
ATOM     31  H   UNL     1       5.731   6.655  16.549  0.00  0.00    +0.000 HD
ENDBRANCH  22  24
ENDBRANCH   5  22
TORSDOF 4
ENDMDL
MODEL 8
REMARK VINA RESULT:      -9.0      2.023      2.894
REMARK  Name = 
REMARK  7 active torsions:
REMARK  status: ('A' for Active; 'I' for Inactive)
REMARK    1  A    between atoms: C_1  and  C_2
REMARK    2  A    between atoms: C_6  and  C_7
REMARK    3  A    between atoms: N_13  and  C_14
REMARK    4  A    between atoms: C_18  and  C_19
REMARK    5  A    between atoms: C_19  and  C_20
REMARK    6  A    between atoms: C_19  and  N_21
REMARK    7  A    between atoms: N_26  and  C_27
REMARK                            x       y       z     vdW  Elec       q    Type
REMARK                         _______ _______ _______ _____ _____    ______ ____
ROOT
ATOM      1  C   UNL     1       1.869   5.494  20.125  0.00  0.00    +0.000 A 
ATOM      2  C   UNL     1       0.825   4.587  20.372  0.00  0.00    +0.000 A 
ATOM      3  C   UNL     1       1.042   3.215  20.430  0.00  0.00    +0.000 A 
ATOM      4  C   UNL     1       2.320   2.717  20.243  0.00  0.00    +0.000 A 
ATOM      5  C   UNL     1       3.392   3.583  19.975  0.00  0.00    +0.000 A 
ATOM      6  C   UNL     1       3.142   4.975  19.856  0.00  0.00    +0.000 A 
ENDROOT
BRANCH   1  15
ATOM      7  C   UNL     1       0.923  12.702  18.714  0.00  0.00    +0.000 C 
ATOM      8  C   UNL     1       0.907  11.408  19.474  0.00  0.00    +0.000 A 
ATOM      9  C   UNL     1       1.446  10.261  18.901  0.00  0.00    +0.000 A 
ATOM     10  C   UNL     1       1.393   9.089  19.631  0.00  0.00    +0.000 A 
ATOM     11  C   UNL     1       0.828   8.974  20.896  0.00  0.00    +0.000 A 
ATOM     12  C   UNL     1       0.315  10.115  21.507  0.00  0.00    +0.000 A 
ATOM     13  C   UNL     1       0.361  11.331  20.775  0.00  0.00    +0.000 A 
ATOM     14  C   UNL     1       0.888   7.530  21.330  0.00  0.00    +0.000 C 
ATOM     15  N   UNL     1       1.607   6.886  20.234  0.00  0.00    +0.000 N 
ATOM     16  C   UNL     1       1.892   7.790  19.207  0.00  0.00    +0.000 C 
ATOM     17  O   UNL     1       2.406   7.639  18.116  0.00  0.00    +0.000 OA
BRANCH  12  18
ATOM     18  C   UNL     1      -0.264  10.120  22.897  0.00  0.00    +0.000 C 
ATOM     19  F   UNL     1       0.600   9.684  23.852  0.00  0.00    +0.000 F 
ATOM     20  F   UNL     1      -0.653  11.367  23.286  0.00  0.00    +0.000 F 
ATOM     21  F   UNL     1      -1.371   9.335  23.001  0.00  0.00    +0.000 F 
ENDBRANCH  12  18
ENDBRANCH   1  15
BRANCH   5  22
ATOM     22  C   UNL     1       4.817   3.047  19.882  0.00  0.00    +0.000 C 
ATOM     23  C   UNL     1       4.874   1.516  20.016  0.00  0.00    +0.000 C 
BRANCH  22  24
ATOM     24  N   UNL     1       5.410   3.426  18.600  0.00  0.00    +0.000 N 
ATOM     25  C   UNL     1       6.278   4.465  18.579  0.00  0.00    +0.000 A 
ATOM     26  N   UNL     1       6.761   5.156  19.591  0.00  0.00    +0.000 NA
ATOM     27  N   UNL     1       7.589   6.136  19.100  0.00  0.00    +0.000 NA
ATOM     28  C   UNL     1       7.619   6.003  17.796  0.00  0.00    +0.000 A 
ATOM     29  N   UNL     1       6.824   4.961  17.423  0.00  0.00    +0.000 N 
ATOM     30  C   UNL     1       6.685   4.477  16.077  0.00  0.00    +0.000 C 
ATOM     31  H   UNL     1       4.781   3.293  17.815  0.00  0.00    +0.000 HD
ENDBRANCH  22  24
ENDBRANCH   5  22
TORSDOF 4
ENDMDL
MODEL 9
REMARK VINA RESULT:      -8.9      3.898      8.541
REMARK  Name = 
REMARK  7 active torsions:
REMARK  status: ('A' for Active; 'I' for Inactive)
REMARK    1  A    between atoms: C_1  and  C_2
REMARK    2  A    between atoms: C_6  and  C_7
REMARK    3  A    between atoms: N_13  and  C_14
REMARK    4  A    between atoms: C_18  and  C_19
REMARK    5  A    between atoms: C_19  and  C_20
REMARK    6  A    between atoms: C_19  and  N_21
REMARK    7  A    between atoms: N_26  and  C_27
REMARK                            x       y       z     vdW  Elec       q    Type
REMARK                         _______ _______ _______ _____ _____    ______ ____
ROOT
ATOM      1  C   UNL     1       1.807   7.982  19.682  0.00  0.00    +0.000 A 
ATOM      2  C   UNL     1       1.554   7.826  21.054  0.00  0.00    +0.000 A 
ATOM      3  C   UNL     1       0.837   8.769  21.781  0.00  0.00    +0.000 A 
ATOM      4  C   UNL     1       0.349   9.897  21.142  0.00  0.00    +0.000 A 
ATOM      5  C   UNL     1       0.593  10.105  19.775  0.00  0.00    +0.000 A 
ATOM      6  C   UNL     1       1.380   9.164  19.063  0.00  0.00    +0.000 A 
ENDROOT
BRANCH   1  15
ATOM      7  C   UNL     1       6.124   3.882  15.276  0.00  0.00    +0.000 C 
ATOM      8  C   UNL     1       5.087   4.213  16.309  0.00  0.00    +0.000 A 
ATOM      9  C   UNL     1       4.757   5.541  16.560  0.00  0.00    +0.000 A 
ATOM     10  C   UNL     1       3.809   5.798  17.533  0.00  0.00    +0.000 A 
ATOM     11  C   UNL     1       3.170   4.821  18.288  0.00  0.00    +0.000 A 
ATOM     12  C   UNL     1       3.455   3.483  18.030  0.00  0.00    +0.000 A 
ATOM     13  C   UNL     1       4.425   3.196  17.033  0.00  0.00    +0.000 A 
ATOM     14  C   UNL     1       2.270   5.492  19.295  0.00  0.00    +0.000 C 
ATOM     15  N   UNL     1       2.408   6.909  18.970  0.00  0.00    +0.000 N 
ATOM     16  C   UNL     1       3.336   7.110  17.945  0.00  0.00    +0.000 C 
ATOM     17  O   UNL     1       3.777   8.125  17.441  0.00  0.00    +0.000 OA
BRANCH  12  18
ATOM     18  C   UNL     1       2.779   2.341  18.742  0.00  0.00    +0.000 C 
ATOM     19  F   UNL     1       1.441   2.271  18.517  0.00  0.00    +0.000 F 
ATOM     20  F   UNL     1       3.285   1.132  18.369  0.00  0.00    +0.000 F 
ATOM     21  F   UNL     1       2.932   2.408  20.093  0.00  0.00    +0.000 F 
ENDBRANCH  12  18
ENDBRANCH   1  15
BRANCH   5  22
ATOM     22  C   UNL     1      -0.038  11.287  19.047  0.00  0.00    +0.000 C 
ATOM     23  C   UNL     1      -1.574  11.202  19.018  0.00  0.00    +0.000 C 
BRANCH  22  24
ATOM     24  N   UNL     1       0.348  12.539  19.698  0.00  0.00    +0.000 N 
ATOM     25  C   UNL     1       1.478  13.154  19.278  0.00  0.00    +0.000 A 
ATOM     26  N   UNL     1       2.266  12.836  18.271  0.00  0.00    +0.000 NA
ATOM     27  N   UNL     1       3.311  13.726  18.231  0.00  0.00    +0.000 NA
ATOM     28  C   UNL     1       3.124  14.591  19.199  0.00  0.00    +0.000 A 
ATOM     29  N   UNL     1       1.982  14.282  19.875  0.00  0.00    +0.000 N 
ATOM     30  C   UNL     1       1.424  15.065  20.944  0.00  0.00    +0.000 C 
ATOM     31  H   UNL     1       0.108  12.566  20.683  0.00  0.00    +0.000 HD
ENDBRANCH  22  24
ENDBRANCH   5  22
TORSDOF 4
ENDMDL
