MODEL 1
REMARK VINA RESULT:      -9.3      0.000      0.000
REMARK  Name = 
REMARK  2 active torsions:
REMARK  status: ('A' for Active; 'I' for Inactive)
REMARK    1  A    between atoms: C_2  and  C_19
REMARK    2  A    between atoms: C_6  and  C_7
REMARK                            x       y       z     vdW  Elec       q    Type
REMARK                         _______ _______ _______ _____ _____    ______ ____
ROOT
ATOM      1  O   UNL     1       1.810   4.677  20.080  0.00  0.00    +0.000 OA
ATOM      2  C   UNL     1       2.661   4.683  19.191  0.00  0.00    +0.000 C 
ATOM      3  N   UNL     1       3.061   5.774  18.450  0.00  0.00    +0.000 N 
ATOM      4  C   UNL     1       2.566   7.018  18.705  0.00  0.00    +0.000 A 
ATOM      5  N   UNL     1       1.846   7.408  19.720  0.00  0.00    +0.000 NA
ATOM      6  C   UNL     1       1.483   8.730  19.560  0.00  0.00    +0.000 A 
ATOM      7  C   UNL     1       1.916   9.305  18.379  0.00  0.00    +0.000 A 
ATOM      8  S   UNL     1       2.907   8.192  17.518  0.00  0.00    +0.000 S 
ATOM      9  H   UNL     1       3.688   5.659  17.667  0.00  0.00    +0.000 HD
ENDROOT
BRANCH   6  10
ATOM     10  C   UNL     1       0.691   9.404  20.577  0.00  0.00    +0.000 A 
ATOM     11  C   UNL     1       0.726   8.941  21.906  0.00  0.00    +0.000 A 
ATOM     12  C   UNL     1      -0.000   9.588  22.909  0.00  0.00    +0.000 A 
ATOM     13  C   UNL     1      -0.762  10.708  22.595  0.00  0.00    +0.000 A 
ATOM     14  C   UNL     1      -0.781  11.193  21.283  0.00  0.00    +0.000 A 
ATOM     15  C   UNL     1      -0.070  10.541  20.280  0.00  0.00    +0.000 A 
ATOM     16  O   UNL     1      -1.477  12.312  20.901  0.00  0.00    +0.000 OA
ATOM     17  C   UNL     1      -1.854  13.100  22.035  0.00  0.00    +0.000 C 
ATOM     18  C   UNL     1      -2.430  12.223  23.135  0.00  0.00    +0.000 C 
ATOM     19  O   UNL     1      -1.452  11.299  23.622  0.00  0.00    +0.000 OA
ENDBRANCH   6  10
BRANCH   2  20
ATOM     20  C   UNL     1       3.316   3.362  18.757  0.00  0.00    +0.000 C 
ATOM     21  C   UNL     1       4.523   3.075  19.643  0.00  0.00    +0.000 C 
ATOM     22  O   UNL     1       5.590   4.001  19.394  0.00  0.00    +0.000 OA
ATOM     23  C   UNL     1       5.763   4.241  18.059  0.00  0.00    +0.000 A 
ATOM     24  C   UNL     1       6.907   4.943  17.692  0.00  0.00    +0.000 A 
ATOM     25  C   UNL     1       7.155   5.215  16.345  0.00  0.00    +0.000 A 
ATOM     26  C   UNL     1       6.264   4.773  15.367  0.00  0.00    +0.000 A 
ATOM     27  C   UNL     1       5.108   4.085  15.733  0.00  0.00    +0.000 A 
ATOM     28  C   UNL     1       4.849   3.846  17.080  0.00  0.00    +0.000 A 
ATOM     29  O   UNL     1       3.643   3.262  17.372  0.00  0.00    +0.000 OA
ENDBRANCH   2  20
TORSDOF 2
ENDMDL
MODEL 2
REMARK VINA RESULT:      -8.5      2.409      9.077
REMARK  Name = 
REMARK  2 active torsions:
REMARK  status: ('A' for Active; 'I' for Inactive)
REMARK    1  A    between atoms: C_2  and  C_19
REMARK    2  A    between atoms: C_6  and  C_7
REMARK                            x       y       z     vdW  Elec       q    Type
REMARK                         _______ _______ _______ _____ _____    ______ ____
ROOT
ATOM      1  O   UNL     1       2.173   8.583  19.920  0.00  0.00    +0.000 OA
ATOM      2  C   UNL     1       1.567   8.085  20.869  0.00  0.00    +0.000 C 
ATOM      3  N   UNL     1       1.533   6.749  21.205  0.00  0.00    +0.000 N 
ATOM      4  C   UNL     1       2.264   5.830  20.514  0.00  0.00    +0.000 A 
ATOM      5  N   UNL     1       3.194   6.042  19.624  0.00  0.00    +0.000 NA
ATOM      6  C   UNL     1       3.632   4.840  19.105  0.00  0.00    +0.000 A 
ATOM      7  C   UNL     1       2.976   3.728  19.601  0.00  0.00    +0.000 A 
ATOM      8  S   UNL     1       1.878   4.202  20.838  0.00  0.00    +0.000 S 
ATOM      9  H   UNL     1       0.919   6.421  21.937  0.00  0.00    +0.000 HD
ENDROOT
BRANCH   6  10
ATOM     10  C   UNL     1       4.687   4.812  18.105  0.00  0.00    +0.000 A 
ATOM     11  C   UNL     1       6.032   4.918  18.507  0.00  0.00    +0.000 A 
ATOM     12  C   UNL     1       7.067   4.862  17.571  0.00  0.00    +0.000 A 
ATOM     13  C   UNL     1       6.769   4.692  16.225  0.00  0.00    +0.000 A 
ATOM     14  C   UNL     1       5.438   4.558  15.816  0.00  0.00    +0.000 A 
ATOM     15  C   UNL     1       4.404   4.628  16.745  0.00  0.00    +0.000 A 
ATOM     16  O   UNL     1       5.065   4.350  14.512  0.00  0.00    +0.000 OA
ATOM     17  C   UNL     1       6.177   3.930  13.714  0.00  0.00    +0.000 C 
ATOM     18  C   UNL     1       7.399   4.788  13.996  0.00  0.00    +0.000 C 
ATOM     19  O   UNL     1       7.828   4.645  15.354  0.00  0.00    +0.000 OA
ENDBRANCH   6  10
BRANCH   2  20
ATOM     20  C   UNL     1       0.674   8.972  21.750  0.00  0.00    +0.000 C 
ATOM     21  C   UNL     1      -0.768   8.892  21.261  0.00  0.00    +0.000 C 
ATOM     22  O   UNL     1      -0.927   9.528  19.986  0.00  0.00    +0.000 OA
ATOM     23  C   UNL     1      -0.245  10.711  19.912  0.00  0.00    +0.000 A 
ATOM     24  C   UNL     1      -0.510  11.518  18.809  0.00  0.00    +0.000 A 
ATOM     25  C   UNL     1       0.142  12.746  18.674  0.00  0.00    +0.000 A 
ATOM     26  C   UNL     1       1.047  13.169  19.647  0.00  0.00    +0.000 A 
ATOM     27  C   UNL     1       1.327  12.354  20.743  0.00  0.00    +0.000 A 
ATOM     28  C   UNL     1       0.700  11.117  20.857  0.00  0.00    +0.000 A 
ATOM     29  O   UNL     1       1.105  10.324  21.900  0.00  0.00    +0.000 OA
ENDBRANCH   2  20
TORSDOF 2
ENDMDL
MODEL 3
REMARK VINA RESULT:      -8.5      4.244     10.209
REMARK  Name = 
REMARK  2 active torsions:
REMARK  status: ('A' for Active; 'I' for Inactive)
REMARK    1  A    between atoms: C_2  and  C_19
REMARK    2  A    between atoms: C_6  and  C_7
REMARK                            x       y       z     vdW  Elec       q    Type
REMARK                         _______ _______ _______ _____ _____    ______ ____
ROOT
ATOM      1  O   UNL     1      -3.871   9.713  18.162  0.00  0.00    +0.000 OA
ATOM      2  C   UNL     1      -4.041  10.878  17.804  0.00  0.00    +0.000 C 
ATOM      3  N   UNL     1      -3.090  11.874  17.788  0.00  0.00    +0.000 N 
ATOM      4  C   UNL     1      -1.794  11.616  18.121  0.00  0.00    +0.000 A 
ATOM      5  N   UNL     1      -1.223  10.458  18.306  0.00  0.00    +0.000 NA
ATOM      6  C   UNL     1       0.085  10.636  18.709  0.00  0.00    +0.000 A 
ATOM      7  C   UNL     1       0.464  11.958  18.860  0.00  0.00    +0.000 A 
ATOM      8  S   UNL     1      -0.817  12.992  18.359  0.00  0.00    +0.000 S 
ATOM      9  H   UNL     1      -3.350  12.828  17.582  0.00  0.00    +0.000 HD
ENDROOT
BRANCH   6  10
ATOM     10  C   UNL     1       0.941   9.487  18.960  0.00  0.00    +0.000 A 
ATOM     11  C   UNL     1       0.873   8.827  20.201  0.00  0.00    +0.000 A 
ATOM     12  C   UNL     1       1.660   7.702  20.458  0.00  0.00    +0.000 A 
ATOM     13  C   UNL     1       2.517   7.222  19.474  0.00  0.00    +0.000 A 
ATOM     14  C   UNL     1       2.572   7.854  18.227  0.00  0.00    +0.000 A 
ATOM     15  C   UNL     1       1.799   8.983  17.975  0.00  0.00    +0.000 A 
ATOM     16  O   UNL     1       3.363   7.418  17.194  0.00  0.00    +0.000 OA
ATOM     17  C   UNL     1       3.817   6.079  17.416  0.00  0.00    +0.000 C 
ATOM     18  C   UNL     1       4.318   5.908  18.841  0.00  0.00    +0.000 C 
ATOM     19  O   UNL     1       3.264   6.114  19.786  0.00  0.00    +0.000 OA
ENDBRANCH   6  10
BRANCH   2  20
ATOM     20  C   UNL     1      -5.447  11.354  17.409  0.00  0.00    +0.000 C 
ATOM     21  C   UNL     1      -5.533  12.870  17.548  0.00  0.00    +0.000 C 
ATOM     22  O   UNL     1      -5.485  13.276  18.923  0.00  0.00    +0.000 OA
ATOM     23  C   UNL     1      -6.249  12.472  19.724  0.00  0.00    +0.000 A 
ATOM     24  C   UNL     1      -6.455  12.906  21.030  0.00  0.00    +0.000 A 
ATOM     25  C   UNL     1      -7.234  12.141  21.901  0.00  0.00    +0.000 A 
ATOM     26  C   UNL     1      -7.814  10.951  21.461  0.00  0.00    +0.000 A 
ATOM     27  C   UNL     1      -7.594  10.507  20.158  0.00  0.00    +0.000 A 
ATOM     28  C   UNL     1      -6.790  11.255  19.304  0.00  0.00    +0.000 A 
ATOM     29  O   UNL     1      -6.528  10.703  18.076  0.00  0.00    +0.000 OA
ENDBRANCH   2  20
TORSDOF 2
ENDMDL
MODEL 4
REMARK VINA RESULT:      -8.4      0.884      1.011
REMARK  Name = 
REMARK  2 active torsions:
REMARK  status: ('A' for Active; 'I' for Inactive)
REMARK    1  A    between atoms: C_2  and  C_19
REMARK    2  A    between atoms: C_6  and  C_7
REMARK                            x       y       z     vdW  Elec       q    Type
REMARK                         _______ _______ _______ _____ _____    ______ ____
ROOT
ATOM      1  O   UNL     1       1.701   5.299  19.994  0.00  0.00    +0.000 OA
ATOM      2  C   UNL     1       2.540   5.395  19.098  0.00  0.00    +0.000 C 
ATOM      3  N   UNL     1       2.848   6.534  18.388  0.00  0.00    +0.000 N 
ATOM      4  C   UNL     1       2.265   7.729  18.684  0.00  0.00    +0.000 A 
ATOM      5  N   UNL     1       1.529   8.034  19.717  0.00  0.00    +0.000 NA
ATOM      6  C   UNL     1       1.066   9.329  19.601  0.00  0.00    +0.000 A 
ATOM      7  C   UNL     1       1.441   9.970  18.433  0.00  0.00    +0.000 A 
ATOM      8  S   UNL     1       2.503   8.961  17.531  0.00  0.00    +0.000 S 
ATOM      9  H   UNL     1       3.474   6.490  17.595  0.00  0.00    +0.000 HD
ENDROOT
BRANCH   6  10
ATOM     10  C   UNL     1       0.237   9.911  20.644  0.00  0.00    +0.000 A 
ATOM     11  C   UNL     1       0.254   9.355  21.937  0.00  0.00    +0.000 A 
ATOM     12  C   UNL     1      -0.509   9.912  22.967  0.00  0.00    +0.000 A 
ATOM     13  C   UNL     1      -1.289  11.035  22.716  0.00  0.00    +0.000 A 
ATOM     14  C   UNL     1      -1.292  11.612  21.442  0.00  0.00    +0.000 A 
ATOM     15  C   UNL     1      -0.545  11.049  20.411  0.00  0.00    +0.000 A 
ATOM     16  O   UNL     1      -2.005  12.740  21.125  0.00  0.00    +0.000 OA
ATOM     17  C   UNL     1      -2.426  13.437  22.303  0.00  0.00    +0.000 C 
ATOM     18  C   UNL     1      -3.004  12.471  23.324  0.00  0.00    +0.000 C 
ATOM     19  O   UNL     1      -2.015  11.536  23.767  0.00  0.00    +0.000 OA
ENDBRANCH   6  10
BRANCH   2  20
ATOM     20  C   UNL     1       3.287   4.141  18.619  0.00  0.00    +0.000 C 
ATOM     21  C   UNL     1       4.132   3.582  19.759  0.00  0.00    +0.000 C 
ATOM     22  O   UNL     1       5.230   4.448  20.074  0.00  0.00    +0.000 OA
ATOM     23  C   UNL     1       5.837   4.939  18.951  0.00  0.00    +0.000 A 
ATOM     24  C   UNL     1       7.046   5.605  19.133  0.00  0.00    +0.000 A 
ATOM     25  C   UNL     1       7.727   6.124  18.030  0.00  0.00    +0.000 A 
ATOM     26  C   UNL     1       7.204   5.965  16.746  0.00  0.00    +0.000 A 
ATOM     27  C   UNL     1       5.985   5.314  16.564  0.00  0.00    +0.000 A 
ATOM     28  C   UNL     1       5.294   4.828  17.669  0.00  0.00    +0.000 A 
ATOM     29  O   UNL     1       4.052   4.298  17.425  0.00  0.00    +0.000 OA
ENDBRANCH   2  20
TORSDOF 2
ENDMDL
MODEL 5
REMARK VINA RESULT:      -8.3      3.511     10.342
REMARK  Name = 
REMARK  2 active torsions:
REMARK  status: ('A' for Active; 'I' for Inactive)
REMARK    1  A    between atoms: C_2  and  C_19
REMARK    2  A    between atoms: C_6  and  C_7
REMARK                            x       y       z     vdW  Elec       q    Type
REMARK                         _______ _______ _______ _____ _____    ______ ____
ROOT
ATOM      1  O   UNL     1      -2.182  12.356  19.514  0.00  0.00    +0.000 OA
ATOM      2  C   UNL     1      -2.415  12.695  20.674  0.00  0.00    +0.000 C 
ATOM      3  N   UNL     1      -1.923  12.097  21.813  0.00  0.00    +0.000 N 
ATOM      4  C   UNL     1      -1.034  11.067  21.741  0.00  0.00    +0.000 A 
ATOM      5  N   UNL     1      -0.392  10.627  20.695  0.00  0.00    +0.000 NA
ATOM      6  C   UNL     1       0.354   9.515  21.032  0.00  0.00    +0.000 A 
ATOM      7  C   UNL     1       0.219   9.112  22.348  0.00  0.00    +0.000 A 
ATOM      8  S   UNL     1      -0.765  10.235  23.203  0.00  0.00    +0.000 S 
ATOM      9  H   UNL     1      -2.258  12.378  22.725  0.00  0.00    +0.000 HD
ENDROOT
BRANCH   6  10
ATOM     10  C   UNL     1       1.178   8.852  20.034  0.00  0.00    +0.000 A 
ATOM     11  C   UNL     1       1.371   9.455  18.778  0.00  0.00    +0.000 A 
ATOM     12  C   UNL     1       2.183   8.857  17.812  0.00  0.00    +0.000 A 
ATOM     13  C   UNL     1       2.817   7.653  18.096  0.00  0.00    +0.000 A 
ATOM     14  C   UNL     1       2.655   7.058  19.352  0.00  0.00    +0.000 A 
ATOM     15  C   UNL     1       1.835   7.646  20.310  0.00  0.00    +0.000 A 
ATOM     16  O   UNL     1       3.276   5.891  19.721  0.00  0.00    +0.000 OA
ATOM     17  C   UNL     1       4.356   5.575  18.836  0.00  0.00    +0.000 C 
ATOM     18  C   UNL     1       3.935   5.751  17.386  0.00  0.00    +0.000 C 
ATOM     19  O   UNL     1       3.602   7.114  17.108  0.00  0.00    +0.000 OA
ENDBRANCH   6  10
BRANCH   2  20
ATOM     20  C   UNL     1      -3.412  13.831  20.947  0.00  0.00    +0.000 C 
ATOM     21  C   UNL     1      -4.116  13.586  22.277  0.00  0.00    +0.000 C 
ATOM     22  O   UNL     1      -5.001  12.460  22.204  0.00  0.00    +0.000 OA
ATOM     23  C   UNL     1      -5.717  12.443  21.039  0.00  0.00    +0.000 A 
ATOM     24  C   UNL     1      -6.762  11.528  20.960  0.00  0.00    +0.000 A 
ATOM     25  C   UNL     1      -7.543  11.462  19.803  0.00  0.00    +0.000 A 
ATOM     26  C   UNL     1      -7.284  12.320  18.734  0.00  0.00    +0.000 A 
ATOM     27  C   UNL     1      -6.226  13.224  18.805  0.00  0.00    +0.000 A 
ATOM     28  C   UNL     1      -5.430  13.264  19.946  0.00  0.00    +0.000 A 
ATOM     29  O   UNL     1      -4.343  14.099  19.901  0.00  0.00    +0.000 OA
ENDBRANCH   2  20
TORSDOF 2
ENDMDL
MODEL 6
REMARK VINA RESULT:      -8.3      3.248      4.894
REMARK  Name = 
REMARK  2 active torsions:
REMARK  status: ('A' for Active; 'I' for Inactive)
REMARK    1  A    between atoms: C_2  and  C_19
REMARK    2  A    between atoms: C_6  and  C_7
REMARK                            x       y       z     vdW  Elec       q    Type
REMARK                         _______ _______ _______ _____ _____    ______ ____
ROOT
ATOM      1  O   UNL     1       1.716   7.584  17.766  0.00  0.00    +0.000 OA
ATOM      2  C   UNL     1       2.294   7.439  18.844  0.00  0.00    +0.000 C 
ATOM      3  N   UNL     1       2.045   8.141  20.003  0.00  0.00    +0.000 N 
ATOM      4  C   UNL     1       1.036   9.055  20.071  0.00  0.00    +0.000 A 
ATOM      5  N   UNL     1       0.085   9.273  19.206  0.00  0.00    +0.000 NA
ATOM      6  C   UNL     1      -0.688  10.340  19.615  0.00  0.00    +0.000 A 
ATOM      7  C   UNL     1      -0.265  10.940  20.788  0.00  0.00    +0.000 A 
ATOM      8  S   UNL     1       1.055  10.057  21.449  0.00  0.00    +0.000 S 
ATOM      9  H   UNL     1       2.645   8.029  20.808  0.00  0.00    +0.000 HD
ENDROOT
BRANCH   6  10
ATOM     10  C   UNL     1      -1.831  10.767  18.824  0.00  0.00    +0.000 A 
ATOM     11  C   UNL     1      -1.930  10.375  17.475  0.00  0.00    +0.000 A 
ATOM     12  C   UNL     1      -3.032  10.744  16.700  0.00  0.00    +0.000 A 
ATOM     13  C   UNL     1      -4.049  11.502  17.267  0.00  0.00    +0.000 A 
ATOM     14  C   UNL     1      -3.976  11.873  18.614  0.00  0.00    +0.000 A 
ATOM     15  C   UNL     1      -2.872  11.519  19.383  0.00  0.00    +0.000 A 
ATOM     16  O   UNL     1      -4.956  12.588  19.255  0.00  0.00    +0.000 OA
ATOM     17  C   UNL     1      -6.178  12.579  18.509  0.00  0.00    +0.000 C 
ATOM     18  C   UNL     1      -5.915  12.858  17.038  0.00  0.00    +0.000 C 
ATOM     19  O   UNL     1      -5.105  11.832  16.456  0.00  0.00    +0.000 OA
ENDBRANCH   6  10
BRANCH   2  20
ATOM     20  C   UNL     1       3.473   6.461  18.949  0.00  0.00    +0.000 C 
ATOM     21  C   UNL     1       3.581   5.649  17.662  0.00  0.00    +0.000 C 
ATOM     22  O   UNL     1       2.483   4.737  17.522  0.00  0.00    +0.000 OA
ATOM     23  C   UNL     1       2.179   4.113  18.701  0.00  0.00    +0.000 A 
ATOM     24  C   UNL     1       1.285   3.048  18.632  0.00  0.00    +0.000 A 
ATOM     25  C   UNL     1       0.936   2.357  19.794  0.00  0.00    +0.000 A 
ATOM     26  C   UNL     1       1.492   2.725  21.020  0.00  0.00    +0.000 A 
ATOM     27  C   UNL     1       2.373   3.802  21.093  0.00  0.00    +0.000 A 
ATOM     28  C   UNL     1       2.692   4.509  19.938  0.00  0.00    +0.000 A 
ATOM     29  O   UNL     1       3.476   5.622  20.102  0.00  0.00    +0.000 OA
ENDBRANCH   2  20
TORSDOF 2
ENDMDL
MODEL 7
REMARK VINA RESULT:      -8.0      2.996      4.611
REMARK  Name = 
REMARK  2 active torsions:
REMARK  status: ('A' for Active; 'I' for Inactive)
REMARK    1  A    between atoms: C_2  and  C_19
REMARK    2  A    between atoms: C_6  and  C_7
REMARK                            x       y       z     vdW  Elec       q    Type
REMARK                         _______ _______ _______ _____ _____    ______ ____
ROOT
ATOM      1  O   UNL     1       1.961   7.568  18.048  0.00  0.00    +0.000 OA
ATOM      2  C   UNL     1       2.538   7.167  19.059  0.00  0.00    +0.000 C 
ATOM      3  N   UNL     1       2.331   7.611  20.347  0.00  0.00    +0.000 N 
ATOM      4  C   UNL     1       1.367   8.532  20.629  0.00  0.00    +0.000 A 
ATOM      5  N   UNL     1       0.422   8.976  19.847  0.00  0.00    +0.000 NA
ATOM      6  C   UNL     1      -0.297   9.963  20.491  0.00  0.00    +0.000 A 
ATOM      7  C   UNL     1       0.162  10.273  21.759  0.00  0.00    +0.000 A 
ATOM      8  S   UNL     1       1.443   9.208  22.191  0.00  0.00    +0.000 S 
ATOM      9  H   UNL     1       2.930   7.299  21.099  0.00  0.00    +0.000 HD
ENDROOT
BRANCH   6  10
ATOM     10  C   UNL     1      -1.423  10.603  19.831  0.00  0.00    +0.000 A 
ATOM     11  C   UNL     1      -1.987  11.767  20.386  0.00  0.00    +0.000 A 
ATOM     12  C   UNL     1      -3.049  12.420  19.756  0.00  0.00    +0.000 A 
ATOM     13  C   UNL     1      -3.553  11.921  18.561  0.00  0.00    +0.000 A 
ATOM     14  C   UNL     1      -2.982  10.781  17.985  0.00  0.00    +0.000 A 
ATOM     15  C   UNL     1      -1.934  10.120  18.619  0.00  0.00    +0.000 A 
ATOM     16  O   UNL     1      -3.398  10.249  16.791  0.00  0.00    +0.000 OA
ATOM     17  C   UNL     1      -4.197  11.183  16.057  0.00  0.00    +0.000 C 
ATOM     18  C   UNL     1      -5.228  11.840  16.961  0.00  0.00    +0.000 C 
ATOM     19  O   UNL     1      -4.595  12.606  17.991  0.00  0.00    +0.000 OA
ENDBRANCH   6  10
BRANCH   2  20
ATOM     20  C   UNL     1       3.670   6.137  18.930  0.00  0.00    +0.000 C 
ATOM     21  C   UNL     1       3.586   5.453  17.570  0.00  0.00    +0.000 C 
ATOM     22  O   UNL     1       2.434   4.603  17.479  0.00  0.00    +0.000 OA
ATOM     23  C   UNL     1       2.237   3.878  18.622  0.00  0.00    +0.000 A 
ATOM     24  C   UNL     1       1.289   2.862  18.563  0.00  0.00    +0.000 A 
ATOM     25  C   UNL     1       1.042   2.074  19.690  0.00  0.00    +0.000 A 
ATOM     26  C   UNL     1       1.754   2.297  20.869  0.00  0.00    +0.000 A 
ATOM     27  C   UNL     1       2.692   3.326  20.935  0.00  0.00    +0.000 A 
ATOM     28  C   UNL     1       2.910   4.130  19.820  0.00  0.00    +0.000 A 
ATOM     29  O   UNL     1       3.764   5.189  19.991  0.00  0.00    +0.000 OA
ENDBRANCH   2  20
TORSDOF 2
ENDMDL
MODEL 8
REMARK VINA RESULT:      -8.0      6.589      9.857
REMARK  Name = 
REMARK  2 active torsions:
REMARK  status: ('A' for Active; 'I' for Inactive)
REMARK    1  A    between atoms: C_2  and  C_19
REMARK    2  A    between atoms: C_6  and  C_7
REMARK                            x       y       z     vdW  Elec       q    Type
REMARK                         _______ _______ _______ _____ _____    ______ ____
ROOT
ATOM      1  O   UNL     1       1.825  12.061  18.522  0.00  0.00    +0.000 OA
ATOM      2  C   UNL     1       0.727  12.612  18.605  0.00  0.00    +0.000 C 
ATOM      3  N   UNL     1       0.503  13.956  18.814  0.00  0.00    +0.000 N 
ATOM      4  C   UNL     1       1.536  14.841  18.880  0.00  0.00    +0.000 A 
ATOM      5  N   UNL     1       2.792  14.639  18.590  0.00  0.00    +0.000 NA
ATOM      6  C   UNL     1       3.528  15.773  18.868  0.00  0.00    +0.000 A 
ATOM      7  C   UNL     1       2.796  16.813  19.413  0.00  0.00    +0.000 A 
ATOM      8  S   UNL     1       1.128  16.393  19.452  0.00  0.00    +0.000 S 
ATOM      9  H   UNL     1      -0.433  14.299  18.977  0.00  0.00    +0.000 HD
ENDROOT
BRANCH   6  10
ATOM     10  C   UNL     1       4.959  15.804  18.608  0.00  0.00    +0.000 A 
ATOM     11  C   UNL     1       5.575  14.707  17.978  0.00  0.00    +0.000 A 
ATOM     12  C   UNL     1       6.942  14.722  17.687  0.00  0.00    +0.000 A 
ATOM     13  C   UNL     1       7.703  15.837  18.017  0.00  0.00    +0.000 A 
ATOM     14  C   UNL     1       7.095  16.944  18.619  0.00  0.00    +0.000 A 
ATOM     15  C   UNL     1       5.738  16.925  18.922  0.00  0.00    +0.000 A 
ATOM     16  O   UNL     1       7.771  18.095  18.941  0.00  0.00    +0.000 OA
ATOM     17  C   UNL     1       9.033  18.161  18.270  0.00  0.00    +0.000 C 
ATOM     18  C   UNL     1       9.767  16.833  18.367  0.00  0.00    +0.000 C 
ATOM     19  O   UNL     1       9.039  15.793  17.707  0.00  0.00    +0.000 OA
ENDBRANCH   6  10
BRANCH   2  20
ATOM     20  C   UNL     1      -0.553  11.765  18.568  0.00  0.00    +0.000 C 
ATOM     21  C   UNL     1      -1.683  12.514  19.266  0.00  0.00    +0.000 C 
ATOM     22  O   UNL     1      -1.458  12.605  20.680  0.00  0.00    +0.000 OA
ATOM     23  C   UNL     1      -0.990  11.432  21.204  0.00  0.00    +0.000 A 
ATOM     24  C   UNL     1      -0.953  11.337  22.592  0.00  0.00    +0.000 A 
ATOM     25  C   UNL     1      -0.496  10.164  23.197  0.00  0.00    +0.000 A 
ATOM     26  C   UNL     1      -0.090   9.085  22.412  0.00  0.00    +0.000 A 
ATOM     27  C   UNL     1      -0.110   9.184  21.022  0.00  0.00    +0.000 A 
ATOM     28  C   UNL     1      -0.535  10.367  20.424  0.00  0.00    +0.000 A 
ATOM     29  O   UNL     1      -0.424  10.432  19.058  0.00  0.00    +0.000 OA
ENDBRANCH   2  20
TORSDOF 2
ENDMDL
MODEL 9
REMARK VINA RESULT:      -8.0      2.877      3.686
REMARK  Name = 
REMARK  2 active torsions:
REMARK  status: ('A' for Active; 'I' for Inactive)
REMARK    1  A    between atoms: C_2  and  C_19
REMARK    2  A    between atoms: C_6  and  C_7
REMARK                            x       y       z     vdW  Elec       q    Type
REMARK                         _______ _______ _______ _____ _____    ______ ____
ROOT
ATOM      1  O   UNL     1       2.754   7.871  17.534  0.00  0.00    +0.000 OA
ATOM      2  C   UNL     1       2.485   6.942  18.295  0.00  0.00    +0.000 C 
ATOM      3  N   UNL     1       1.908   7.050  19.541  0.00  0.00    +0.000 N 
ATOM      4  C   UNL     1       1.501   8.256  20.028  0.00  0.00    +0.000 A 
ATOM      5  N   UNL     1       1.408   9.392  19.394  0.00  0.00    +0.000 NA
ATOM      6  C   UNL     1       1.031  10.390  20.270  0.00  0.00    +0.000 A 
ATOM      7  C   UNL     1       0.886   9.978  21.582  0.00  0.00    +0.000 A 
ATOM      8  S   UNL     1       1.104   8.275  21.685  0.00  0.00    +0.000 S 
ATOM      9  H   UNL     1       1.826   6.239  20.140  0.00  0.00    +0.000 HD
ENDROOT
BRANCH   6  10
ATOM     10  C   UNL     1       0.838  11.751  19.795  0.00  0.00    +0.000 A 
ATOM     11  C   UNL     1      -0.300  12.067  19.030  0.00  0.00    +0.000 A 
ATOM     12  C   UNL     1      -0.527  13.372  18.587  0.00  0.00    +0.000 A 
ATOM     13  C   UNL     1       0.378  14.376  18.911  0.00  0.00    +0.000 A 
ATOM     14  C   UNL     1       1.498  14.079  19.695  0.00  0.00    +0.000 A 
ATOM     15  C   UNL     1       1.733  12.777  20.124  0.00  0.00    +0.000 A 
ATOM     16  O   UNL     1       2.416  15.021  20.088  0.00  0.00    +0.000 OA
ATOM     17  C   UNL     1       1.904  16.347  19.921  0.00  0.00    +0.000 C 
ATOM     18  C   UNL     1       1.235  16.501  18.565  0.00  0.00    +0.000 C 
ATOM     19  O   UNL     1       0.101  15.637  18.448  0.00  0.00    +0.000 OA
ENDBRANCH   6  10
BRANCH   2  20
ATOM     20  C   UNL     1       2.888   5.509  17.917  0.00  0.00    +0.000 C 
ATOM     21  C   UNL     1       3.183   4.709  19.182  0.00  0.00    +0.000 C 
ATOM     22  O   UNL     1       4.379   5.166  19.826  0.00  0.00    +0.000 OA
ATOM     23  C   UNL     1       5.381   5.422  18.931  0.00  0.00    +0.000 A 
ATOM     24  C   UNL     1       6.648   5.652  19.459  0.00  0.00    +0.000 A 
ATOM     25  C   UNL     1       7.721   5.910  18.603  0.00  0.00    +0.000 A 
ATOM     26  C   UNL     1       7.527   5.924  17.222  0.00  0.00    +0.000 A 
ATOM     27  C   UNL     1       6.256   5.711  16.693  0.00  0.00    +0.000 A 
ATOM     28  C   UNL     1       5.183   5.488  17.551  0.00  0.00    +0.000 A 
ATOM     29  O   UNL     1       3.945   5.397  16.966  0.00  0.00    +0.000 OA
ENDBRANCH   2  20
TORSDOF 2
ENDMDL
