MODEL 1
REMARK VINA RESULT:      -8.5      0.000      0.000
REMARK  Name = 
REMARK  5 active torsions:
REMARK  status: ('A' for Active; 'I' for Inactive)
REMARK    1  A    between atoms: C_1  and  C_2
REMARK    2  A    between atoms: C_5  and  C_6
REMARK    3  A    between atoms: C_8  and  N_9
REMARK    4  A    between atoms: N_9  and  S_10
REMARK    5  A    between atoms: S_10  and  C_13
REMARK                            x       y       z     vdW  Elec       q    Type
REMARK                         _______ _______ _______ _____ _____    ______ ____
ROOT
ATOM      1  S   UNL     1       5.230   5.633  15.961  0.00  0.00    +0.000 S 
ATOM      2  O   UNL     1       5.083   6.982  15.457  0.00  0.00    +0.000 OA
ATOM      3  O   UNL     1       4.867   4.513  15.115  0.00  0.00    +0.000 OA
ENDROOT
BRANCH   1   4
ATOM      4  C   UNL     1       4.238   5.525  17.438  0.00  0.00    +0.000 A 
ATOM      5  C   UNL     1       3.848   6.732  18.079  0.00  0.00    +0.000 A 
ATOM      6  C   UNL     1       3.102   6.728  19.271  0.00  0.00    +0.000 A 
ATOM      7  C   UNL     1       2.782   5.481  19.769  0.00  0.00    +0.000 A 
ATOM      8  C   UNL     1       3.165   4.321  19.133  0.00  0.00    +0.000 A 
ATOM      9  C   UNL     1       2.708   3.246  19.882  0.00  0.00    +0.000 A 
ATOM     10  C   UNL     1       2.974   1.948  19.460  0.00  0.00    +0.000 A 
ATOM     11  C   UNL     1       3.710   1.811  18.272  0.00  0.00    +0.000 A 
ATOM     12  C   UNL     1       4.164   2.929  17.537  0.00  0.00    +0.000 A 
ATOM     13  C   UNL     1       3.887   4.254  17.976  0.00  0.00    +0.000 A 
ATOM     14  C   UNL     1       2.002   3.727  21.054  0.00  0.00    +0.000 C 
ATOM     15  O   UNL     1       1.446   3.152  21.977  0.00  0.00    +0.000 OA
ATOM     16  N   UNL     1       2.090   5.117  20.909  0.00  0.00    +0.000 N 
ATOM     17  H   UNL     1       1.699   5.747  21.595  0.00  0.00    +0.000 HD
ENDBRANCH   1   4
BRANCH   1  18
ATOM     18  N   UNL     1       6.766   5.441  16.507  0.00  0.00    +0.000 N 
ATOM     19  H   UNL     1       6.957   4.472  16.719  0.00  0.00    +0.000 HD
BRANCH  18  22
ATOM     20  C   UNL     1       8.169   8.267  18.162  0.00  0.00    +0.000 A 
ATOM     21  C   UNL     1       7.481   7.739  17.038  0.00  0.00    +0.000 A 
ATOM     22  C   UNL     1       7.363   6.398  17.302  0.00  0.00    +0.000 A 
ATOM     23  N   UNL     1       7.907   6.199  18.537  0.00  0.00    +0.000 N 
ATOM     24  N   UNL     1       8.428   7.311  19.068  0.00  0.00    +0.000 NA
ATOM     25  H   UNL     1       7.936   5.346  19.089  0.00  0.00    +0.000 HD
BRANCH  20  30
ATOM     26  C   UNL     1      10.253  12.907  19.889  0.00  0.00    +0.000 C 
ATOM     27  C   UNL     1       9.519  11.851  19.136  0.00  0.00    +0.000 A 
ATOM     28  C   UNL     1       8.868  11.958  17.925  0.00  0.00    +0.000 A 
ATOM     29  C   UNL     1       8.330  10.712  17.491  0.00  0.00    +0.000 A 
ATOM     30  C   UNL     1       8.581   9.692  18.386  0.00  0.00    +0.000 A 
ATOM     31  S   UNL     1       9.424  10.257  19.759  0.00  0.00    +0.000 S 
ENDBRANCH  20  30
ENDBRANCH  18  22
ENDBRANCH   1  18
TORSDOF 4
ENDMDL
MODEL 2
REMARK VINA RESULT:      -8.5      6.468      8.781
REMARK  Name = 
REMARK  5 active torsions:
REMARK  status: ('A' for Active; 'I' for Inactive)
REMARK    1  A    between atoms: C_1  and  C_2
REMARK    2  A    between atoms: C_5  and  C_6
REMARK    3  A    between atoms: C_8  and  N_9
REMARK    4  A    between atoms: N_9  and  S_10
REMARK    5  A    between atoms: S_10  and  C_13
REMARK                            x       y       z     vdW  Elec       q    Type
REMARK                         _______ _______ _______ _____ _____    ______ ____
ROOT
ATOM      1  S   UNL     1       0.333  10.403  20.542  0.00  0.00    +0.000 S 
ATOM      2  O   UNL     1      -0.019   9.237  21.325  0.00  0.00    +0.000 OA
ATOM      3  O   UNL     1       1.184  11.422  21.124  0.00  0.00    +0.000 OA
ENDROOT
BRANCH   1   4
ATOM      4  C   UNL     1      -1.196  11.191  20.076  0.00  0.00    +0.000 A 
ATOM      5  C   UNL     1      -1.783  12.114  20.984  0.00  0.00    +0.000 A 
ATOM      6  C   UNL     1      -3.010  12.744  20.706  0.00  0.00    +0.000 A 
ATOM      7  C   UNL     1      -3.596  12.404  19.505  0.00  0.00    +0.000 A 
ATOM      8  C   UNL     1      -3.010  11.511  18.634  0.00  0.00    +0.000 A 
ATOM      9  C   UNL     1      -3.843  11.370  17.534  0.00  0.00    +0.000 A 
ATOM     10  C   UNL     1      -3.485  10.508  16.503  0.00  0.00    +0.000 A 
ATOM     11  C   UNL     1      -2.272   9.817  16.652  0.00  0.00    +0.000 A 
ATOM     12  C   UNL     1      -1.451   9.982  17.791  0.00  0.00    +0.000 A 
ATOM     13  C   UNL     1      -1.825  10.866  18.840  0.00  0.00    +0.000 A 
ATOM     14  C   UNL     1      -5.019  12.203  17.696  0.00  0.00    +0.000 C 
ATOM     15  O   UNL     1      -6.001  12.391  16.995  0.00  0.00    +0.000 OA
ATOM     16  N   UNL     1      -4.788  12.811  18.937  0.00  0.00    +0.000 N 
ATOM     17  H   UNL     1      -5.455  13.450  19.345  0.00  0.00    +0.000 HD
ENDBRANCH   1   4
BRANCH   1  18
ATOM     18  N   UNL     1       0.966   9.903  19.112  0.00  0.00    +0.000 N 
ATOM     19  H   UNL     1       0.350  10.130  18.344  0.00  0.00    +0.000 HD
BRANCH  18  22
ATOM     20  C   UNL     1       2.937   7.029  18.370  0.00  0.00    +0.000 A 
ATOM     21  C   UNL     1       2.381   8.262  17.939  0.00  0.00    +0.000 A 
ATOM     22  C   UNL     1       1.688   8.730  19.026  0.00  0.00    +0.000 A 
ATOM     23  N   UNL     1       1.894   7.831  20.031  0.00  0.00    +0.000 N 
ATOM     24  N   UNL     1       2.625   6.776  19.652  0.00  0.00    +0.000 NA
ATOM     25  H   UNL     1       1.593   7.882  21.000  0.00  0.00    +0.000 HD
BRANCH  20  30
ATOM     26  C   UNL     1       6.669   4.586  15.377  0.00  0.00    +0.000 C 
ATOM     27  C   UNL     1       5.467   4.911  16.197  0.00  0.00    +0.000 A 
ATOM     28  C   UNL     1       4.516   4.048  16.699  0.00  0.00    +0.000 A 
ATOM     29  C   UNL     1       3.543   4.723  17.493  0.00  0.00    +0.000 A 
ATOM     30  C   UNL     1       3.777   6.081  17.566  0.00  0.00    +0.000 A 
ATOM     31  S   UNL     1       5.142   6.533  16.645  0.00  0.00    +0.000 S 
ENDBRANCH  20  30
ENDBRANCH  18  22
ENDBRANCH   1  18
TORSDOF 4
ENDMDL
MODEL 3
REMARK VINA RESULT:      -8.5      3.842      6.125
REMARK  Name = 
REMARK  5 active torsions:
REMARK  status: ('A' for Active; 'I' for Inactive)
REMARK    1  A    between atoms: C_1  and  C_2
REMARK    2  A    between atoms: C_5  and  C_6
REMARK    3  A    between atoms: C_8  and  N_9
REMARK    4  A    between atoms: N_9  and  S_10
REMARK    5  A    between atoms: S_10  and  C_13
REMARK                            x       y       z     vdW  Elec       q    Type
REMARK                         _______ _______ _______ _____ _____    ______ ____
ROOT
ATOM      1  S   UNL     1       6.903   5.729  18.638  0.00  0.00    +0.000 S 
ATOM      2  O   UNL     1       7.258   5.385  19.998  0.00  0.00    +0.000 OA
ATOM      3  O   UNL     1       7.123   7.081  18.164  0.00  0.00    +0.000 OA
ENDROOT
BRANCH   1   4
ATOM      4  C   UNL     1       5.165   5.378  18.455  0.00  0.00    +0.000 A 
ATOM      5  C   UNL     1       4.340   6.357  17.837  0.00  0.00    +0.000 A 
ATOM      6  C   UNL     1       2.953   6.172  17.696  0.00  0.00    +0.000 A 
ATOM      7  C   UNL     1       2.457   4.986  18.195  0.00  0.00    +0.000 A 
ATOM      8  C   UNL     1       3.272   4.045  18.787  0.00  0.00    +0.000 A 
ATOM      9  C   UNL     1       2.479   2.982  19.194  0.00  0.00    +0.000 A 
ATOM     10  C   UNL     1       3.061   1.894  19.837  0.00  0.00    +0.000 A 
ATOM     11  C   UNL     1       4.450   1.949  20.036  0.00  0.00    +0.000 A 
ATOM     12  C   UNL     1       5.225   3.052  19.612  0.00  0.00    +0.000 A 
ATOM     13  C   UNL     1       4.621   4.161  18.956  0.00  0.00    +0.000 A 
ATOM     14  C   UNL     1       1.093   3.242  18.857  0.00  0.00    +0.000 C 
ATOM     15  O   UNL     1       0.068   2.600  19.024  0.00  0.00    +0.000 OA
ATOM     16  N   UNL     1       1.165   4.498  18.240  0.00  0.00    +0.000 N 
ATOM     17  H   UNL     1       0.338   4.969  17.902  0.00  0.00    +0.000 HD
ENDBRANCH   1   4
BRANCH   1  18
ATOM     18  N   UNL     1       7.626   4.662  17.621  0.00  0.00    +0.000 N 
ATOM     19  H   UNL     1       8.582   4.488  17.898  0.00  0.00    +0.000 HD
BRANCH  18  22
ATOM     20  C   UNL     1       6.582   4.222  14.243  0.00  0.00    +0.000 A 
ATOM     21  C   UNL     1       6.531   3.787  15.594  0.00  0.00    +0.000 A 
ATOM     22  C   UNL     1       7.342   4.662  16.270  0.00  0.00    +0.000 A 
ATOM     23  N   UNL     1       7.777   5.574  15.353  0.00  0.00    +0.000 N 
ATOM     24  N   UNL     1       7.352   5.313  14.112  0.00  0.00    +0.000 NA
ATOM     25  H   UNL     1       8.338   6.407  15.503  0.00  0.00    +0.000 HD
BRANCH  20  30
ATOM     26  C   UNL     1       3.287   2.871  10.222  0.00  0.00    +0.000 C 
ATOM     27  C   UNL     1       4.410   2.947  11.199  0.00  0.00    +0.000 A 
ATOM     28  C   UNL     1       5.606   2.260  11.182  0.00  0.00    +0.000 A 
ATOM     29  C   UNL     1       6.460   2.643  12.258  0.00  0.00    +0.000 A 
ATOM     30  C   UNL     1       5.888   3.605  13.065  0.00  0.00    +0.000 A 
ATOM     31  S   UNL     1       4.313   4.005  12.543  0.00  0.00    +0.000 S 
ENDBRANCH  20  30
ENDBRANCH  18  22
ENDBRANCH   1  18
TORSDOF 4
ENDMDL
MODEL 4
REMARK VINA RESULT:      -8.4      7.083      9.229
REMARK  Name = 
REMARK  5 active torsions:
REMARK  status: ('A' for Active; 'I' for Inactive)
REMARK    1  A    between atoms: C_1  and  C_2
REMARK    2  A    between atoms: C_5  and  C_6
REMARK    3  A    between atoms: C_8  and  N_9
REMARK    4  A    between atoms: N_9  and  S_10
REMARK    5  A    between atoms: S_10  and  C_13
REMARK                            x       y       z     vdW  Elec       q    Type
REMARK                         _______ _______ _______ _____ _____    ______ ____
ROOT
ATOM      1  S   UNL     1       0.006  11.152  18.901  0.00  0.00    +0.000 S 
ATOM      2  O   UNL     1       0.033  10.530  20.208  0.00  0.00    +0.000 OA
ATOM      3  O   UNL     1       0.469  12.517  18.752  0.00  0.00    +0.000 OA
ENDROOT
BRANCH   1   4
ATOM      4  C   UNL     1      -1.686  11.102  18.343  0.00  0.00    +0.000 A 
ATOM      5  C   UNL     1      -1.986  10.366  17.164  0.00  0.00    +0.000 A 
ATOM      6  C   UNL     1      -3.289  10.314  16.637  0.00  0.00    +0.000 A 
ATOM      7  C   UNL     1      -4.244  11.022  17.338  0.00  0.00    +0.000 A 
ATOM      8  C   UNL     1      -3.937  11.726  18.482  0.00  0.00    +0.000 A 
ATOM      9  C   UNL     1      -5.096  12.335  18.939  0.00  0.00    +0.000 A 
ATOM     10  C   UNL     1      -5.056  13.124  20.084  0.00  0.00    +0.000 A 
ATOM     11  C   UNL     1      -3.809  13.254  20.716  0.00  0.00    +0.000 A 
ATOM     12  C   UNL     1      -2.647  12.622  20.218  0.00  0.00    +0.000 A 
ATOM     13  C   UNL     1      -2.697  11.818  19.046  0.00  0.00    +0.000 A 
ATOM     14  C   UNL     1      -6.201  12.018  18.055  0.00  0.00    +0.000 C 
ATOM     15  O   UNL     1      -7.382  12.331  18.064  0.00  0.00    +0.000 OA
ATOM     16  N   UNL     1      -5.592  11.200  17.095  0.00  0.00    +0.000 N 
ATOM     17  H   UNL     1      -6.112  10.824  16.314  0.00  0.00    +0.000 HD
ENDBRANCH   1   4
BRANCH   1  18
ATOM     18  N   UNL     1       0.796  10.179  17.840  0.00  0.00    +0.000 N 
ATOM     19  H   UNL     1       0.268  10.071  16.986  0.00  0.00    +0.000 HD
BRANCH  18  22
ATOM     20  C   UNL     1       2.949   7.416  18.490  0.00  0.00    +0.000 A 
ATOM     21  C   UNL     1       2.535   8.449  17.609  0.00  0.00    +0.000 A 
ATOM     22  C   UNL     1       1.529   9.096  18.280  0.00  0.00    +0.000 A 
ATOM     23  N   UNL     1       1.426   8.490  19.498  0.00  0.00    +0.000 N 
ATOM     24  N   UNL     1       2.256   7.451  19.640  0.00  0.00    +0.000 NA
ATOM     25  H   UNL     1       0.836   8.743  20.285  0.00  0.00    +0.000 HD
BRANCH  20  30
ATOM     26  C   UNL     1       7.144   4.521  16.795  0.00  0.00    +0.000 C 
ATOM     27  C   UNL     1       5.934   5.022  17.508  0.00  0.00    +0.000 A 
ATOM     28  C   UNL     1       5.325   4.500  18.630  0.00  0.00    +0.000 A 
ATOM     29  C   UNL     1       4.220   5.291  19.059  0.00  0.00    +0.000 A 
ATOM     30  C   UNL     1       4.015   6.388  18.247  0.00  0.00    +0.000 A 
ATOM     31  S   UNL     1       5.129   6.430  16.955  0.00  0.00    +0.000 S 
ENDBRANCH  20  30
ENDBRANCH  18  22
ENDBRANCH   1  18
TORSDOF 4
ENDMDL
MODEL 5
REMARK VINA RESULT:      -8.3      1.660      2.780
REMARK  Name = 
REMARK  5 active torsions:
REMARK  status: ('A' for Active; 'I' for Inactive)
REMARK    1  A    between atoms: C_1  and  C_2
REMARK    2  A    between atoms: C_5  and  C_6
REMARK    3  A    between atoms: C_8  and  N_9
REMARK    4  A    between atoms: N_9  and  S_10
REMARK    5  A    between atoms: S_10  and  C_13
REMARK                            x       y       z     vdW  Elec       q    Type
REMARK                         _______ _______ _______ _____ _____    ______ ____
ROOT
ATOM      1  S   UNL     1       6.605   5.184  16.691  0.00  0.00    +0.000 S 
ATOM      2  O   UNL     1       5.958   4.684  15.496  0.00  0.00    +0.000 OA
ATOM      3  O   UNL     1       7.794   4.521  17.188  0.00  0.00    +0.000 OA
ENDROOT
BRANCH   1   4
ATOM      4  C   UNL     1       5.388   5.139  17.993  0.00  0.00    +0.000 A 
ATOM      5  C   UNL     1       5.411   4.045  18.900  0.00  0.00    +0.000 A 
ATOM      6  C   UNL     1       4.458   3.917  19.926  0.00  0.00    +0.000 A 
ATOM      7  C   UNL     1       3.510   4.917  19.987  0.00  0.00    +0.000 A 
ATOM      8  C   UNL     1       3.506   5.974  19.103  0.00  0.00    +0.000 A 
ATOM      9  C   UNL     1       2.431   6.794  19.414  0.00  0.00    +0.000 A 
ATOM     10  C   UNL     1       2.192   7.936  18.657  0.00  0.00    +0.000 A 
ATOM     11  C   UNL     1       3.080   8.186  17.598  0.00  0.00    +0.000 A 
ATOM     12  C   UNL     1       4.162   7.325  17.307  0.00  0.00    +0.000 A 
ATOM     13  C   UNL     1       4.399   6.159  18.087  0.00  0.00    +0.000 A 
ATOM     14  C   UNL     1       1.705   6.248  20.544  0.00  0.00    +0.000 C 
ATOM     15  O   UNL     1       0.711   6.623  21.147  0.00  0.00    +0.000 OA
ATOM     16  N   UNL     1       2.437   5.091  20.841  0.00  0.00    +0.000 N 
ATOM     17  H   UNL     1       2.163   4.468  21.588  0.00  0.00    +0.000 HD
ENDBRANCH   1   4
BRANCH   1  18
ATOM     18  N   UNL     1       6.906   6.786  16.493  0.00  0.00    +0.000 N 
ATOM     19  H   UNL     1       7.067   7.007  15.520  0.00  0.00    +0.000 HD
BRANCH  18  22
ATOM     20  C   UNL     1       8.654   9.060  18.607  0.00  0.00    +0.000 A 
ATOM     21  C   UNL     1       7.901   8.839  17.423  0.00  0.00    +0.000 A 
ATOM     22  C   UNL     1       7.619   7.497  17.436  0.00  0.00    +0.000 A 
ATOM     23  N   UNL     1       8.140   7.005  18.597  0.00  0.00    +0.000 N 
ATOM     24  N   UNL     1       8.796   7.926  19.311  0.00  0.00    +0.000 NA
ATOM     25  H   UNL     1       8.066   6.066  18.979  0.00  0.00    +0.000 HD
BRANCH  20  30
ATOM     26  C   UNL     1      10.718  13.990  19.141  0.00  0.00    +0.000 C 
ATOM     27  C   UNL     1      10.187  12.618  19.381  0.00  0.00    +0.000 A 
ATOM     28  C   UNL     1       9.896  12.012  20.585  0.00  0.00    +0.000 A 
ATOM     29  C   UNL     1       9.346  10.708  20.411  0.00  0.00    +0.000 A 
ATOM     30  C   UNL     1       9.240  10.357  19.081  0.00  0.00    +0.000 A 
ATOM     31  S   UNL     1       9.843  11.583  18.058  0.00  0.00    +0.000 S 
ENDBRANCH  20  30
ENDBRANCH  18  22
ENDBRANCH   1  18
TORSDOF 4
ENDMDL
MODEL 6
REMARK VINA RESULT:      -8.2      6.703      9.223
REMARK  Name = 
REMARK  5 active torsions:
REMARK  status: ('A' for Active; 'I' for Inactive)
REMARK    1  A    between atoms: C_1  and  C_2
REMARK    2  A    between atoms: C_5  and  C_6
REMARK    3  A    between atoms: C_8  and  N_9
REMARK    4  A    between atoms: N_9  and  S_10
REMARK    5  A    between atoms: S_10  and  C_13
REMARK                            x       y       z     vdW  Elec       q    Type
REMARK                         _______ _______ _______ _____ _____    ______ ____
ROOT
ATOM      1  S   UNL     1       0.430   9.845  20.933  0.00  0.00    +0.000 S 
ATOM      2  O   UNL     1      -0.101   8.615  21.481  0.00  0.00    +0.000 OA
ATOM      3  O   UNL     1       1.319  10.659  21.738  0.00  0.00    +0.000 OA
ENDROOT
BRANCH   1   4
ATOM      4  C   UNL     1      -0.969  10.860  20.496  0.00  0.00    +0.000 A 
ATOM      5  C   UNL     1      -1.292  11.008  19.120  0.00  0.00    +0.000 A 
ATOM      6  C   UNL     1      -2.354  11.825  18.694  0.00  0.00    +0.000 A 
ATOM      7  C   UNL     1      -3.050  12.467  19.697  0.00  0.00    +0.000 A 
ATOM      8  C   UNL     1      -2.727  12.309  21.027  0.00  0.00    +0.000 A 
ATOM      9  C   UNL     1      -3.595  13.088  21.779  0.00  0.00    +0.000 A 
ATOM     10  C   UNL     1      -3.472  13.117  23.164  0.00  0.00    +0.000 A 
ATOM     11  C   UNL     1      -2.449  12.334  23.722  0.00  0.00    +0.000 A 
ATOM     12  C   UNL     1      -1.580  11.556  22.924  0.00  0.00    +0.000 A 
ATOM     13  C   UNL     1      -1.712  11.533  21.508  0.00  0.00    +0.000 A 
ATOM     14  C   UNL     1      -4.518  13.784  20.903  0.00  0.00    +0.000 C 
ATOM     15  O   UNL     1      -5.432  14.564  21.118  0.00  0.00    +0.000 OA
ATOM     16  N   UNL     1      -4.117  13.344  19.634  0.00  0.00    +0.000 N 
ATOM     17  H   UNL     1      -4.568  13.674  18.793  0.00  0.00    +0.000 HD
ENDBRANCH   1   4
BRANCH   1  18
ATOM     18  N   UNL     1       1.137   9.513  19.489  0.00  0.00    +0.000 N 
ATOM     19  H   UNL     1       0.568   9.843  18.722  0.00  0.00    +0.000 HD
BRANCH  18  22
ATOM     20  C   UNL     1       3.046   6.680  18.479  0.00  0.00    +0.000 A 
ATOM     21  C   UNL     1       2.458   7.927  18.143  0.00  0.00    +0.000 A 
ATOM     22  C   UNL     1       1.852   8.347  19.299  0.00  0.00    +0.000 A 
ATOM     23  N   UNL     1       2.136   7.409  20.247  0.00  0.00    +0.000 N 
ATOM     24  N   UNL     1       2.835   6.374  19.769  0.00  0.00    +0.000 NA
ATOM     25  H   UNL     1       1.911   7.419  21.238  0.00  0.00    +0.000 HD
BRANCH  20  30
ATOM     26  C   UNL     1       6.502   4.393  15.061  0.00  0.00    +0.000 C 
ATOM     27  C   UNL     1       5.388   4.669  16.011  0.00  0.00    +0.000 A 
ATOM     28  C   UNL     1       4.522   3.771  16.599  0.00  0.00    +0.000 A 
ATOM     29  C   UNL     1       3.621   4.405  17.503  0.00  0.00    +0.000 A 
ATOM     30  C   UNL     1       3.822   5.769  17.574  0.00  0.00    +0.000 A 
ATOM     31  S   UNL     1       5.065   6.274  16.518  0.00  0.00    +0.000 S 
ENDBRANCH  20  30
ENDBRANCH  18  22
ENDBRANCH   1  18
TORSDOF 4
ENDMDL
MODEL 7
REMARK VINA RESULT:      -8.2      1.102      1.272
REMARK  Name = 
REMARK  5 active torsions:
REMARK  status: ('A' for Active; 'I' for Inactive)
REMARK    1  A    between atoms: C_1  and  C_2
REMARK    2  A    between atoms: C_5  and  C_6
REMARK    3  A    between atoms: C_8  and  N_9
REMARK    4  A    between atoms: N_9  and  S_10
REMARK    5  A    between atoms: S_10  and  C_13
REMARK                            x       y       z     vdW  Elec       q    Type
REMARK                         _______ _______ _______ _____ _____    ______ ____
ROOT
ATOM      1  S   UNL     1       6.130   5.461  16.689  0.00  0.00    +0.000 S 
ATOM      2  O   UNL     1       5.722   4.943  15.401  0.00  0.00    +0.000 OA
ATOM      3  O   UNL     1       7.250   4.854  17.379  0.00  0.00    +0.000 OA
ENDROOT
BRANCH   1   4
ATOM      4  C   UNL     1       4.714   5.338  17.765  0.00  0.00    +0.000 A 
ATOM      5  C   UNL     1       4.237   6.522  18.392  0.00  0.00    +0.000 A 
ATOM      6  C   UNL     1       3.152   6.498  19.286  0.00  0.00    +0.000 A 
ATOM      7  C   UNL     1       2.592   5.258  19.511  0.00  0.00    +0.000 A 
ATOM      8  C   UNL     1       3.063   4.121  18.891  0.00  0.00    +0.000 A 
ATOM      9  C   UNL     1       2.307   3.044  19.331  0.00  0.00    +0.000 A 
ATOM     10  C   UNL     1       2.590   1.766  18.862  0.00  0.00    +0.000 A 
ATOM     11  C   UNL     1       3.652   1.649  17.951  0.00  0.00    +0.000 A 
ATOM     12  C   UNL     1       4.404   2.769  17.530  0.00  0.00    +0.000 A 
ATOM     13  C   UNL     1       4.109   4.073  18.015  0.00  0.00    +0.000 A 
ATOM     14  C   UNL     1       1.306   3.498  20.276  0.00  0.00    +0.000 C 
ATOM     15  O   UNL     1       0.441   2.911  20.908  0.00  0.00    +0.000 OA
ATOM     16  N   UNL     1       1.546   4.877  20.330  0.00  0.00    +0.000 N 
ATOM     17  H   UNL     1       1.009   5.485  20.931  0.00  0.00    +0.000 HD
ENDBRANCH   1   4
BRANCH   1  18
ATOM     18  N   UNL     1       6.375   7.079  16.550  0.00  0.00    +0.000 N 
ATOM     19  H   UNL     1       6.323   7.371  15.584  0.00  0.00    +0.000 HD
BRANCH  18  22
ATOM     20  C   UNL     1       8.556   9.224  18.376  0.00  0.00    +0.000 A 
ATOM     21  C   UNL     1       7.597   9.067  17.341  0.00  0.00    +0.000 A 
ATOM     22  C   UNL     1       7.271   7.735  17.369  0.00  0.00    +0.000 A 
ATOM     23  N   UNL     1       7.971   7.188  18.405  0.00  0.00    +0.000 N 
ATOM     24  N   UNL     1       8.778   8.063  19.014  0.00  0.00    +0.000 NA
ATOM     25  H   UNL     1       7.930   6.240  18.768  0.00  0.00    +0.000 HD
BRANCH  20  30
ATOM     26  C   UNL     1      10.739  13.435  20.897  0.00  0.00    +0.000 C 
ATOM     27  C   UNL     1      10.294  12.436  19.884  0.00  0.00    +0.000 A 
ATOM     28  C   UNL     1      10.662  12.339  18.558  0.00  0.00    +0.000 A 
ATOM     29  C   UNL     1      10.072  11.210  17.918  0.00  0.00    +0.000 A 
ATOM     30  C   UNL     1       9.266  10.485  18.772  0.00  0.00    +0.000 A 
ATOM     31  S   UNL     1       9.197  11.194  20.323  0.00  0.00    +0.000 S 
ENDBRANCH  20  30
ENDBRANCH  18  22
ENDBRANCH   1  18
TORSDOF 4
ENDMDL
MODEL 8
REMARK VINA RESULT:      -8.2      4.033      6.921
REMARK  Name = 
REMARK  5 active torsions:
REMARK  status: ('A' for Active; 'I' for Inactive)
REMARK    1  A    between atoms: C_1  and  C_2
REMARK    2  A    between atoms: C_5  and  C_6
REMARK    3  A    between atoms: C_8  and  N_9
REMARK    4  A    between atoms: N_9  and  S_10
REMARK    5  A    between atoms: S_10  and  C_13
REMARK                            x       y       z     vdW  Elec       q    Type
REMARK                         _______ _______ _______ _____ _____    ______ ____
ROOT
ATOM      1  S   UNL     1       2.454   4.180  20.030  0.00  0.00    +0.000 S 
ATOM      2  O   UNL     1       3.021   3.131  20.850  0.00  0.00    +0.000 OA
ATOM      3  O   UNL     1       1.047   4.134  19.686  0.00  0.00    +0.000 OA
ENDROOT
BRANCH   1   4
ATOM      4  C   UNL     1       3.374   4.194  18.503  0.00  0.00    +0.000 A 
ATOM      5  C   UNL     1       2.747   3.687  17.332  0.00  0.00    +0.000 A 
ATOM      6  C   UNL     1       3.422   3.625  16.100  0.00  0.00    +0.000 A 
ATOM      7  C   UNL     1       4.723   4.084  16.110  0.00  0.00    +0.000 A 
ATOM      8  C   UNL     1       5.314   4.578  17.253  0.00  0.00    +0.000 A 
ATOM      9  C   UNL     1       6.616   4.943  16.942  0.00  0.00    +0.000 A 
ATOM     10  C   UNL     1       7.441   5.464  17.933  0.00  0.00    +0.000 A 
ATOM     11  C   UNL     1       6.884   5.586  19.217  0.00  0.00    +0.000 A 
ATOM     12  C   UNL     1       5.555   5.198  19.497  0.00  0.00    +0.000 A 
ATOM     13  C   UNL     1       4.718   4.666  18.477  0.00  0.00    +0.000 A 
ATOM     14  C   UNL     1       6.884   4.674  15.543  0.00  0.00    +0.000 C 
ATOM     15  O   UNL     1       7.874   4.830  14.846  0.00  0.00    +0.000 OA
ATOM     16  N   UNL     1       5.663   4.148  15.099  0.00  0.00    +0.000 N 
ATOM     17  H   UNL     1       5.535   3.840  14.146  0.00  0.00    +0.000 HD
ENDBRANCH   1   4
BRANCH   1  18
ATOM     18  N   UNL     1       2.810   5.630  20.712  0.00  0.00    +0.000 N 
ATOM     19  H   UNL     1       2.933   5.540  21.711  0.00  0.00    +0.000 HD
BRANCH  18  22
ATOM     20  C   UNL     1       1.093   8.666  19.985  0.00  0.00    +0.000 A 
ATOM     21  C   UNL     1       1.370   7.620  20.905  0.00  0.00    +0.000 A 
ATOM     22  C   UNL     1       2.243   6.797  20.241  0.00  0.00    +0.000 A 
ATOM     23  N   UNL     1       2.484   7.383  19.033  0.00  0.00    +0.000 N 
ATOM     24  N   UNL     1       1.778   8.503  18.843  0.00  0.00    +0.000 NA
ATOM     25  H   UNL     1       3.132   7.095  18.305  0.00  0.00    +0.000 HD
BRANCH  20  30
ATOM     26  C   UNL     1      -1.787  12.800  21.849  0.00  0.00    +0.000 C 
ATOM     27  C   UNL     1      -1.165  11.747  20.997  0.00  0.00    +0.000 A 
ATOM     28  C   UNL     1      -1.232  11.605  19.626  0.00  0.00    +0.000 A 
ATOM     29  C   UNL     1      -0.455  10.504  19.161  0.00  0.00    +0.000 A 
ATOM     30  C   UNL     1       0.176   9.836  20.191  0.00  0.00    +0.000 A 
ATOM     31  S   UNL     1      -0.209  10.515  21.709  0.00  0.00    +0.000 S 
ENDBRANCH  20  30
ENDBRANCH  18  22
ENDBRANCH   1  18
TORSDOF 4
ENDMDL
MODEL 9
REMARK VINA RESULT:      -8.2      6.229      8.848
REMARK  Name = 
REMARK  5 active torsions:
REMARK  status: ('A' for Active; 'I' for Inactive)
REMARK    1  A    between atoms: C_1  and  C_2
REMARK    2  A    between atoms: C_5  and  C_6
REMARK    3  A    between atoms: C_8  and  N_9
REMARK    4  A    between atoms: N_9  and  S_10
REMARK    5  A    between atoms: S_10  and  C_13
REMARK                            x       y       z     vdW  Elec       q    Type
REMARK                         _______ _______ _______ _____ _____    ______ ____
ROOT
ATOM      1  S   UNL     1       0.937   8.874  20.758  0.00  0.00    +0.000 S 
ATOM      2  O   UNL     1       1.768   9.153  21.910  0.00  0.00    +0.000 OA
ATOM      3  O   UNL     1      -0.346   8.225  20.945  0.00  0.00    +0.000 OA
ENDROOT
BRANCH   1   4
ATOM      4  C   UNL     1       1.899   7.844  19.666  0.00  0.00    +0.000 A 
ATOM      5  C   UNL     1       2.472   8.438  18.509  0.00  0.00    +0.000 A 
ATOM      6  C   UNL     1       3.208   7.683  17.578  0.00  0.00    +0.000 A 
ATOM      7  C   UNL     1       3.330   6.339  17.865  0.00  0.00    +0.000 A 
ATOM      8  C   UNL     1       2.772   5.780  18.995  0.00  0.00    +0.000 A 
ATOM      9  C   UNL     1       3.057   4.423  18.990  0.00  0.00    +0.000 A 
ATOM     10  C   UNL     1       2.592   3.617  20.025  0.00  0.00    +0.000 A 
ATOM     11  C   UNL     1       1.845   4.252  21.030  0.00  0.00    +0.000 A 
ATOM     12  C   UNL     1       1.570   5.638  20.998  0.00  0.00    +0.000 A 
ATOM     13  C   UNL     1       2.048   6.454  19.936  0.00  0.00    +0.000 A 
ATOM     14  C   UNL     1       3.828   4.084  17.810  0.00  0.00    +0.000 C 
ATOM     15  O   UNL     1       4.287   3.030  17.398  0.00  0.00    +0.000 OA
ATOM     16  N   UNL     1       3.957   5.323  17.169  0.00  0.00    +0.000 N 
ATOM     17  H   UNL     1       4.440   5.415  16.287  0.00  0.00    +0.000 HD
ENDBRANCH   1   4
BRANCH   1  18
ATOM     18  N   UNL     1       0.736  10.264  19.907  0.00  0.00    +0.000 N 
ATOM     19  H   UNL     1       1.107  11.055  20.414  0.00  0.00    +0.000 HD
BRANCH  18  22
ATOM     20  C   UNL     1      -2.372  11.060  18.358  0.00  0.00    +0.000 A 
ATOM     21  C   UNL     1      -1.532  11.137  19.500  0.00  0.00    +0.000 A 
ATOM     22  C   UNL     1      -0.391  10.470  19.137  0.00  0.00    +0.000 A 
ATOM     23  N   UNL     1      -0.563  10.089  17.838  0.00  0.00    +0.000 N 
ATOM     24  N   UNL     1      -1.766  10.410  17.351  0.00  0.00    +0.000 NA
ATOM     25  H   UNL     1       0.100   9.633  17.217  0.00  0.00    +0.000 HD
BRANCH  20  30
ATOM     26  C   UNL     1      -7.149  13.444  18.951  0.00  0.00    +0.000 C 
ATOM     27  C   UNL     1      -5.967  12.697  18.434  0.00  0.00    +0.000 A 
ATOM     28  C   UNL     1      -5.736  12.244  17.152  0.00  0.00    +0.000 A 
ATOM     29  C   UNL     1      -4.460  11.621  17.024  0.00  0.00    +0.000 A 
ATOM     30  C   UNL     1      -3.760  11.612  18.213  0.00  0.00    +0.000 A 
ATOM     31  S   UNL     1      -4.664  12.316  19.479  0.00  0.00    +0.000 S 
ENDBRANCH  20  30
ENDBRANCH  18  22
ENDBRANCH   1  18
TORSDOF 4
ENDMDL
