MODEL 1
REMARK VINA RESULT:      -8.4      0.000      0.000
REMARK  Name = 
REMARK  4 active torsions:
REMARK  status: ('A' for Active; 'I' for Inactive)
REMARK    1  A    between atoms: C_1  and  C_2
REMARK    2  A    between atoms: C_7  and  C_8
REMARK    3  A    between atoms: C_11  and  C_12
REMARK    4  A    between atoms: C_12  and  N_13
REMARK                            x       y       z     vdW  Elec       q    Type
REMARK                         _______ _______ _______ _____ _____    ______ ____
ROOT
ATOM      1  N   UNL     1       1.081  10.231  20.498  0.00  0.00    +0.000 N 
ATOM      2  C   UNL     1       0.523  10.985  21.474  0.00  0.00    +0.000 C 
ATOM      3  O   UNL     1       0.259  10.655  22.630  0.00  0.00    +0.000 OA
ATOM      4  N   UNL     1       0.178  12.171  20.972  0.00  0.00    +0.000 N 
ATOM      5  C   UNL     1      -0.057  12.127  19.521  0.00  0.00    +0.000 C 
ATOM      6  C   UNL     1      -0.639  13.556  19.422  0.00  0.00    +0.000 C 
ATOM      7  C   UNL     1      -2.167  13.345  19.811  0.00  0.00    +0.000 C 
ATOM      8  C   UNL     1      -2.449  12.064  19.113  0.00  0.00    +0.000 A 
ATOM      9  C   UNL     1      -3.656  11.544  18.666  0.00  0.00    +0.000 A 
ATOM     10  C   UNL     1      -3.646  10.427  17.822  0.00  0.00    +0.000 A 
ATOM     11  C   UNL     1      -2.436   9.879  17.400  0.00  0.00    +0.000 A 
ATOM     12  C   UNL     1      -1.237  10.388  17.903  0.00  0.00    +0.000 A 
ATOM     13  C   UNL     1      -1.255  11.409  18.864  0.00  0.00    +0.000 A 
ATOM     14  C   UNL     1       1.105  11.047  19.360  0.00  0.00    +0.000 C 
ATOM     15  O   UNL     1       1.775  10.849  18.356  0.00  0.00    +0.000 OA
ATOM     16  H   UNL     1       0.984  12.802  21.132  0.00  0.00    +0.000 HD
ENDROOT
BRANCH   1  17
ATOM     17  C   UNL     1       0.568   8.867  20.611  0.00  0.00    +0.000 C 
BRANCH  17  21
ATOM     18  C   UNL     1       2.622   6.167  19.626  0.00  0.00    +0.000 A 
ATOM     19  N   UNL     1       2.043   5.645  20.721  0.00  0.00    +0.000 NA
ATOM     20  O   UNL     1       1.311   6.694  21.248  0.00  0.00    +0.000 OA
ATOM     21  C   UNL     1       1.505   7.756  20.419  0.00  0.00    +0.000 A 
ATOM     22  N   UNL     1       2.293   7.487  19.401  0.00  0.00    +0.000 NA
BRANCH  18  29
ATOM     23  C   UNL     1       1.541   4.252  17.582  0.00  0.00    +0.000 C 
ATOM     24  C   UNL     1       3.012   4.500  17.782  0.00  0.00    +0.000 A 
ATOM     25  C   UNL     1       3.930   3.871  16.920  0.00  0.00    +0.000 A 
ATOM     26  C   UNL     1       5.301   4.110  17.028  0.00  0.00    +0.000 A 
ATOM     27  C   UNL     1       5.784   4.961  18.014  0.00  0.00    +0.000 A 
ATOM     28  C   UNL     1       4.890   5.584  18.882  0.00  0.00    +0.000 A 
ATOM     29  C   UNL     1       3.501   5.382  18.768  0.00  0.00    +0.000 A 
ENDBRANCH  18  29
ENDBRANCH  17  21
ENDBRANCH   1  17
TORSDOF 3
ENDMDL
MODEL 2
REMARK VINA RESULT:      -8.0      1.772      3.122
REMARK  Name = 
REMARK  4 active torsions:
REMARK  status: ('A' for Active; 'I' for Inactive)
REMARK    1  A    between atoms: C_1  and  C_2
REMARK    2  A    between atoms: C_7  and  C_8
REMARK    3  A    between atoms: C_11  and  C_12
REMARK    4  A    between atoms: C_12  and  N_13
REMARK                            x       y       z     vdW  Elec       q    Type
REMARK                         _______ _______ _______ _____ _____    ______ ____
ROOT
ATOM      1  N   UNL     1       0.024  10.276  19.818  0.00  0.00    +0.000 N 
ATOM      2  C   UNL     1      -1.152  10.772  19.366  0.00  0.00    +0.000 C 
ATOM      3  O   UNL     1      -1.785  10.435  18.366  0.00  0.00    +0.000 OA
ATOM      4  N   UNL     1      -1.515  11.805  20.128  0.00  0.00    +0.000 N 
ATOM      5  C   UNL     1      -0.372  12.455  20.786  0.00  0.00    +0.000 C 
ATOM      6  C   UNL     1      -1.175  13.664  21.317  0.00  0.00    +0.000 C 
ATOM      7  C   UNL     1      -1.191  14.654  20.072  0.00  0.00    +0.000 C 
ATOM      8  C   UNL     1       0.194  14.476  19.566  0.00  0.00    +0.000 A 
ATOM      9  C   UNL     1       0.979  15.334  18.807  0.00  0.00    +0.000 A 
ATOM     10  C   UNL     1       2.341  15.052  18.651  0.00  0.00    +0.000 A 
ATOM     11  C   UNL     1       2.906  13.950  19.291  0.00  0.00    +0.000 A 
ATOM     12  C   UNL     1       2.087  13.076  20.007  0.00  0.00    +0.000 A 
ATOM     13  C   UNL     1       0.700  13.277  20.038  0.00  0.00    +0.000 A 
ATOM     14  C   UNL     1       0.348  11.042  20.945  0.00  0.00    +0.000 C 
ATOM     15  O   UNL     1       1.172  10.740  21.796  0.00  0.00    +0.000 OA
ATOM     16  H   UNL     1      -2.119  11.420  20.875  0.00  0.00    +0.000 HD
ENDROOT
BRANCH   1  17
ATOM     17  C   UNL     1       0.873   9.971  18.668  0.00  0.00    +0.000 C 
BRANCH  17  21
ATOM     18  C   UNL     1       2.815   7.028  18.460  0.00  0.00    +0.000 A 
ATOM     19  N   UNL     1       2.399   6.955  19.736  0.00  0.00    +0.000 NA
ATOM     20  O   UNL     1       1.730   8.147  19.941  0.00  0.00    +0.000 OA
ATOM     21  C   UNL     1       1.792   8.833  18.766  0.00  0.00    +0.000 A 
ATOM     22  N   UNL     1       2.437   8.189  17.820  0.00  0.00    +0.000 NA
BRANCH  18  29
ATOM     23  C   UNL     1       1.627   4.315  17.962  0.00  0.00    +0.000 C 
ATOM     24  C   UNL     1       3.030   4.685  17.565  0.00  0.00    +0.000 A 
ATOM     25  C   UNL     1       3.803   3.749  16.852  0.00  0.00    +0.000 A 
ATOM     26  C   UNL     1       5.091   4.062  16.413  0.00  0.00    +0.000 A 
ATOM     27  C   UNL     1       5.641   5.306  16.699  0.00  0.00    +0.000 A 
ATOM     28  C   UNL     1       4.893   6.241  17.411  0.00  0.00    +0.000 A 
ATOM     29  C   UNL     1       3.580   5.956  17.834  0.00  0.00    +0.000 A 
ENDBRANCH  18  29
ENDBRANCH  17  21
ENDBRANCH   1  17
TORSDOF 3
ENDMDL
MODEL 3
REMARK VINA RESULT:      -8.0      5.736      9.132
REMARK  Name = 
REMARK  4 active torsions:
REMARK  status: ('A' for Active; 'I' for Inactive)
REMARK    1  A    between atoms: C_1  and  C_2
REMARK    2  A    between atoms: C_7  and  C_8
REMARK    3  A    between atoms: C_11  and  C_12
REMARK    4  A    between atoms: C_12  and  N_13
REMARK                            x       y       z     vdW  Elec       q    Type
REMARK                         _______ _______ _______ _____ _____    ______ ____
ROOT
ATOM      1  N   UNL     1       7.266   6.052  17.663  0.00  0.00    +0.000 N 
ATOM      2  C   UNL     1       7.053   5.229  16.610  0.00  0.00    +0.000 C 
ATOM      3  O   UNL     1       7.262   5.451  15.418  0.00  0.00    +0.000 OA
ATOM      4  N   UNL     1       6.456   4.114  17.036  0.00  0.00    +0.000 N 
ATOM      5  C   UNL     1       5.705   4.314  18.284  0.00  0.00    +0.000 C 
ATOM      6  C   UNL     1       5.020   2.929  18.267  0.00  0.00    +0.000 C 
ATOM      7  C   UNL     1       3.765   3.164  17.318  0.00  0.00    +0.000 C 
ATOM      8  C   UNL     1       3.344   4.520  17.758  0.00  0.00    +0.000 A 
ATOM      9  C   UNL     1       2.101   5.133  17.677  0.00  0.00    +0.000 A 
ATOM     10  C   UNL     1       1.885   6.327  18.373  0.00  0.00    +0.000 A 
ATOM     11  C   UNL     1       2.891   6.863  19.176  0.00  0.00    +0.000 A 
ATOM     12  C   UNL     1       4.147   6.255  19.201  0.00  0.00    +0.000 A 
ATOM     13  C   UNL     1       4.408   5.145  18.386  0.00  0.00    +0.000 A 
ATOM     14  C   UNL     1       6.804   5.354  18.786  0.00  0.00    +0.000 C 
ATOM     15  O   UNL     1       7.068   5.623  19.950  0.00  0.00    +0.000 OA
ATOM     16  H   UNL     1       7.213   3.437  17.240  0.00  0.00    +0.000 HD
ENDROOT
BRANCH   1  17
ATOM     17  C   UNL     1       6.938   7.419  17.261  0.00  0.00    +0.000 C 
BRANCH  17  21
ATOM     18  C   UNL     1       9.000  10.124  18.211  0.00  0.00    +0.000 A 
ATOM     19  N   UNL     1       9.333   9.223  19.152  0.00  0.00    +0.000 NA
ATOM     20  O   UNL     1       8.468   8.168  18.928  0.00  0.00    +0.000 OA
ATOM     21  C   UNL     1       7.695   8.519  17.864  0.00  0.00    +0.000 A 
ATOM     22  N   UNL     1       7.984   9.706  17.378  0.00  0.00    +0.000 NA
BRANCH  18  29
ATOM     23  C   UNL     1       7.578  12.587  17.249  0.00  0.00    +0.000 C 
ATOM     24  C   UNL     1       9.020  12.583  17.677  0.00  0.00    +0.000 A 
ATOM     25  C   UNL     1       9.722  13.803  17.710  0.00  0.00    +0.000 A 
ATOM     26  C   UNL     1      11.045  13.863  18.151  0.00  0.00    +0.000 A 
ATOM     27  C   UNL     1      11.701  12.702  18.544  0.00  0.00    +0.000 A 
ATOM     28  C   UNL     1      11.024  11.485  18.509  0.00  0.00    +0.000 A 
ATOM     29  C   UNL     1       9.679  11.410  18.098  0.00  0.00    +0.000 A 
ENDBRANCH  18  29
ENDBRANCH  17  21
ENDBRANCH   1  17
TORSDOF 3
ENDMDL
MODEL 4
REMARK VINA RESULT:      -7.9      1.833      3.438
REMARK  Name = 
REMARK  4 active torsions:
REMARK  status: ('A' for Active; 'I' for Inactive)
REMARK    1  A    between atoms: C_1  and  C_2
REMARK    2  A    between atoms: C_7  and  C_8
REMARK    3  A    between atoms: C_11  and  C_12
REMARK    4  A    between atoms: C_12  and  N_13
REMARK                            x       y       z     vdW  Elec       q    Type
REMARK                         _______ _______ _______ _____ _____    ______ ____
ROOT
ATOM      1  N   UNL     1       0.070  10.382  19.770  0.00  0.00    +0.000 N 
ATOM      2  C   UNL     1      -1.062  10.885  19.223  0.00  0.00    +0.000 C 
ATOM      3  O   UNL     1      -1.605  10.560  18.168  0.00  0.00    +0.000 OA
ATOM      4  N   UNL     1      -1.489  11.911  19.961  0.00  0.00    +0.000 N 
ATOM      5  C   UNL     1      -0.407  12.551  20.724  0.00  0.00    +0.000 C 
ATOM      6  C   UNL     1      -1.252  13.757  21.195  0.00  0.00    +0.000 C 
ATOM      7  C   UNL     1      -1.159  14.760  19.964  0.00  0.00    +0.000 C 
ATOM      8  C   UNL     1       0.265  14.584  19.580  0.00  0.00    +0.000 A 
ATOM      9  C   UNL     1       1.114  15.449  18.902  0.00  0.00    +0.000 A 
ATOM     10  C   UNL     1       2.484  15.165  18.862  0.00  0.00    +0.000 A 
ATOM     11  C   UNL     1       2.991  14.056  19.538  0.00  0.00    +0.000 A 
ATOM     12  C   UNL     1       2.111  13.175  20.170  0.00  0.00    +0.000 A 
ATOM     13  C   UNL     1       0.727  13.379  20.081  0.00  0.00    +0.000 A 
ATOM     14  C   UNL     1       0.295  11.135  20.929  0.00  0.00    +0.000 C 
ATOM     15  O   UNL     1       1.041  10.823  21.847  0.00  0.00    +0.000 OA
ATOM     16  H   UNL     1      -2.157  11.519  20.649  0.00  0.00    +0.000 HD
ENDROOT
BRANCH   1  17
ATOM     17  C   UNL     1       1.016  10.087  18.696  0.00  0.00    +0.000 C 
BRANCH  17  21
ATOM     18  C   UNL     1       2.432   6.859  18.488  0.00  0.00    +0.000 A 
ATOM     19  N   UNL     1       2.294   6.978  19.820  0.00  0.00    +0.000 NA
ATOM     20  O   UNL     1       1.860   8.278  19.998  0.00  0.00    +0.000 OA
ATOM     21  C   UNL     1       1.764   8.829  18.756  0.00  0.00    +0.000 A 
ATOM     22  N   UNL     1       2.094   8.000  17.791  0.00  0.00    +0.000 NA
BRANCH  18  29
ATOM     23  C   UNL     1       5.156   6.614  17.248  0.00  0.00    +0.000 C 
ATOM     24  C   UNL     1       4.172   5.477  17.305  0.00  0.00    +0.000 A 
ATOM     25  C   UNL     1       4.569   4.212  16.832  0.00  0.00    +0.000 A 
ATOM     26  C   UNL     1       3.713   3.112  16.912  0.00  0.00    +0.000 A 
ATOM     27  C   UNL     1       2.438   3.259  17.443  0.00  0.00    +0.000 A 
ATOM     28  C   UNL     1       2.026   4.506  17.908  0.00  0.00    +0.000 A 
ATOM     29  C   UNL     1       2.886   5.620  17.866  0.00  0.00    +0.000 A 
ENDBRANCH  18  29
ENDBRANCH  17  21
ENDBRANCH   1  17
TORSDOF 3
ENDMDL
MODEL 5
REMARK VINA RESULT:      -7.9      1.198      1.281
REMARK  Name = 
REMARK  4 active torsions:
REMARK  status: ('A' for Active; 'I' for Inactive)
REMARK    1  A    between atoms: C_1  and  C_2
REMARK    2  A    between atoms: C_7  and  C_8
REMARK    3  A    between atoms: C_11  and  C_12
REMARK    4  A    between atoms: C_12  and  N_13
REMARK                            x       y       z     vdW  Elec       q    Type
REMARK                         _______ _______ _______ _____ _____    ______ ____
ROOT
ATOM      1  N   UNL     1       0.671  10.773  20.046  0.00  0.00    +0.000 N 
ATOM      2  C   UNL     1       0.041  10.823  21.244  0.00  0.00    +0.000 C 
ATOM      3  O   UNL     1      -0.096   9.919  22.068  0.00  0.00    +0.000 OA
ATOM      4  N   UNL     1      -0.537  12.016  21.388  0.00  0.00    +0.000 N 
ATOM      5  C   UNL     1      -0.838  12.660  20.101  0.00  0.00    +0.000 C 
ATOM      6  C   UNL     1      -1.671  13.814  20.704  0.00  0.00    +0.000 C 
ATOM      7  C   UNL     1      -3.113  13.164  20.869  0.00  0.00    +0.000 C 
ATOM      8  C   UNL     1      -3.199  12.375  19.613  0.00  0.00    +0.000 A 
ATOM      9  C   UNL     1      -4.317  11.938  18.914  0.00  0.00    +0.000 A 
ATOM     10  C   UNL     1      -4.153  11.414  17.626  0.00  0.00    +0.000 A 
ATOM     11  C   UNL     1      -2.889  11.380  17.039  0.00  0.00    +0.000 A 
ATOM     12  C   UNL     1      -1.775  11.779  17.780  0.00  0.00    +0.000 A 
ATOM     13  C   UNL     1      -1.923  12.161  19.121  0.00  0.00    +0.000 A 
ATOM     14  C   UNL     1       0.487  12.036  19.471  0.00  0.00    +0.000 C 
ATOM     15  O   UNL     1       1.126  12.491  18.532  0.00  0.00    +0.000 OA
ATOM     16  H   UNL     1       0.151  12.618  21.876  0.00  0.00    +0.000 HD
ENDROOT
BRANCH   1  17
ATOM     17  C   UNL     1       0.418   9.467  19.440  0.00  0.00    +0.000 C 
BRANCH  17  21
ATOM     18  C   UNL     1       2.832   7.015  18.646  0.00  0.00    +0.000 A 
ATOM     19  N   UNL     1       2.689   6.797  19.964  0.00  0.00    +0.000 NA
ATOM     20  O   UNL     1       1.846   7.809  20.384  0.00  0.00    +0.000 OA
ATOM     21  C   UNL     1       1.546   8.546  19.279  0.00  0.00    +0.000 A 
ATOM     22  N   UNL     1       2.116   8.098  18.182  0.00  0.00    +0.000 NA
BRANCH  18  29
ATOM     23  C   UNL     1       2.091   4.164  18.065  0.00  0.00    +0.000 C 
ATOM     24  C   UNL     1       3.316   4.828  17.498  0.00  0.00    +0.000 A 
ATOM     25  C   UNL     1       4.115   4.113  16.586  0.00  0.00    +0.000 A 
ATOM     26  C   UNL     1       5.232   4.702  15.990  0.00  0.00    +0.000 A 
ATOM     27  C   UNL     1       5.587   6.006  16.312  0.00  0.00    +0.000 A 
ATOM     28  C   UNL     1       4.812   6.725  17.220  0.00  0.00    +0.000 A 
ATOM     29  C   UNL     1       3.663   6.159  17.806  0.00  0.00    +0.000 A 
ENDBRANCH  18  29
ENDBRANCH  17  21
ENDBRANCH   1  17
TORSDOF 3
ENDMDL
MODEL 6
REMARK VINA RESULT:      -7.8      5.687      9.126
REMARK  Name = 
REMARK  4 active torsions:
REMARK  status: ('A' for Active; 'I' for Inactive)
REMARK    1  A    between atoms: C_1  and  C_2
REMARK    2  A    between atoms: C_7  and  C_8
REMARK    3  A    between atoms: C_11  and  C_12
REMARK    4  A    between atoms: C_12  and  N_13
REMARK                            x       y       z     vdW  Elec       q    Type
REMARK                         _______ _______ _______ _____ _____    ______ ____
ROOT
ATOM      1  N   UNL     1       7.270   5.948  17.628  0.00  0.00    +0.000 N 
ATOM      2  C   UNL     1       7.011   5.152  16.563  0.00  0.00    +0.000 C 
ATOM      3  O   UNL     1       7.224   5.383  15.373  0.00  0.00    +0.000 OA
ATOM      4  N   UNL     1       6.363   4.063  16.976  0.00  0.00    +0.000 N 
ATOM      5  C   UNL     1       5.629   4.279  18.232  0.00  0.00    +0.000 C 
ATOM      6  C   UNL     1       4.876   2.930  18.198  0.00  0.00    +0.000 C 
ATOM      7  C   UNL     1       3.630   3.242  17.260  0.00  0.00    +0.000 C 
ATOM      8  C   UNL     1       3.278   4.609  17.722  0.00  0.00    +0.000 A 
ATOM      9  C   UNL     1       2.067   5.284  17.658  0.00  0.00    +0.000 A 
ATOM     10  C   UNL     1       1.913   6.478  18.374  0.00  0.00    +0.000 A 
ATOM     11  C   UNL     1       2.948   6.951  19.178  0.00  0.00    +0.000 A 
ATOM     12  C   UNL     1       4.174   6.281  19.187  0.00  0.00    +0.000 A 
ATOM     13  C   UNL     1       4.375   5.172  18.354  0.00  0.00    +0.000 A 
ATOM     14  C   UNL     1       6.780   5.257  18.743  0.00  0.00    +0.000 C 
ATOM     15  O   UNL     1       7.063   5.495  19.909  0.00  0.00    +0.000 OA
ATOM     16  H   UNL     1       7.086   3.346  17.165  0.00  0.00    +0.000 HD
ENDROOT
BRANCH   1  17
ATOM     17  C   UNL     1       7.009   7.335  17.248  0.00  0.00    +0.000 C 
BRANCH  17  21
ATOM     18  C   UNL     1       8.810  10.088  18.533  0.00  0.00    +0.000 A 
ATOM     19  N   UNL     1       9.391   9.081  19.207  0.00  0.00    +0.000 NA
ATOM     20  O   UNL     1       8.651   7.968  18.855  0.00  0.00    +0.000 OA
ATOM     21  C   UNL     1       7.692   8.398  17.990  0.00  0.00    +0.000 A 
ATOM     22  N   UNL     1       7.748   9.689  17.748  0.00  0.00    +0.000 NA
BRANCH  18  29
ATOM     23  C   UNL     1       9.064  11.492  21.175  0.00  0.00    +0.000 C 
ATOM     24  C   UNL     1       9.443  12.128  19.865  0.00  0.00    +0.000 A 
ATOM     25  C   UNL     1      10.022  13.410  19.875  0.00  0.00    +0.000 A 
ATOM     26  C   UNL     1      10.441  14.022  18.692  0.00  0.00    +0.000 A 
ATOM     27  C   UNL     1      10.267  13.375  17.474  0.00  0.00    +0.000 A 
ATOM     28  C   UNL     1       9.687  12.109  17.445  0.00  0.00    +0.000 A 
ATOM     29  C   UNL     1       9.289  11.462  18.631  0.00  0.00    +0.000 A 
ENDBRANCH  18  29
ENDBRANCH  17  21
ENDBRANCH   1  17
TORSDOF 3
ENDMDL
MODEL 7
REMARK VINA RESULT:      -7.7      6.701      8.357
REMARK  Name = 
REMARK  4 active torsions:
REMARK  status: ('A' for Active; 'I' for Inactive)
REMARK    1  A    between atoms: C_1  and  C_2
REMARK    2  A    between atoms: C_7  and  C_8
REMARK    3  A    between atoms: C_11  and  C_12
REMARK    4  A    between atoms: C_12  and  N_13
REMARK                            x       y       z     vdW  Elec       q    Type
REMARK                         _______ _______ _______ _____ _____    ______ ____
ROOT
ATOM      1  N   UNL     1       9.611  10.775  18.838  0.00  0.00    +0.000 N 
ATOM      2  C   UNL     1       9.670  10.922  20.182  0.00  0.00    +0.000 C 
ATOM      3  O   UNL     1       9.168  10.205  21.047  0.00  0.00    +0.000 OA
ATOM      4  N   UNL     1      10.290  12.066  20.473  0.00  0.00    +0.000 N 
ATOM      5  C   UNL     1      10.198  13.054  19.388  0.00  0.00    +0.000 C 
ATOM      6  C   UNL     1      10.789  14.226  20.205  0.00  0.00    +0.000 C 
ATOM      7  C   UNL     1       9.526  14.780  20.997  0.00  0.00    +0.000 C 
ATOM      8  C   UNL     1       8.481  14.678  19.946  0.00  0.00    +0.000 A 
ATOM      9  C   UNL     1       7.291  15.379  19.807  0.00  0.00    +0.000 A 
ATOM     10  C   UNL     1       6.579  15.280  18.605  0.00  0.00    +0.000 A 
ATOM     11  C   UNL     1       7.088  14.525  17.550  0.00  0.00    +0.000 A 
ATOM     12  C   UNL     1       8.260  13.789  17.732  0.00  0.00    +0.000 A 
ATOM     13  C   UNL     1       8.891  13.771  18.984  0.00  0.00    +0.000 A 
ATOM     14  C   UNL     1      10.281  11.885  18.308  0.00  0.00    +0.000 C 
ATOM     15  O   UNL     1      10.692  11.987  17.161  0.00  0.00    +0.000 OA
ATOM     16  H   UNL     1      11.293  11.834  20.590  0.00  0.00    +0.000 HD
ENDROOT
BRANCH   1  17
ATOM     17  C   UNL     1       8.285  10.275  18.481  0.00  0.00    +0.000 C 
BRANCH  17  21
ATOM     18  C   UNL     1       7.428   6.992  17.503  0.00  0.00    +0.000 A 
ATOM     19  N   UNL     1       8.164   6.734  18.597  0.00  0.00    +0.000 NA
ATOM     20  O   UNL     1       8.651   7.972  18.974  0.00  0.00    +0.000 OA
ATOM     21  C   UNL     1       8.158   8.872  18.079  0.00  0.00    +0.000 A 
ATOM     22  N   UNL     1       7.392   8.327  17.159  0.00  0.00    +0.000 NA
BRANCH  18  29
ATOM     23  C   UNL     1       4.646   6.132  18.237  0.00  0.00    +0.000 C 
ATOM     24  C   UNL     1       5.414   5.541  17.086  0.00  0.00    +0.000 A 
ATOM     25  C   UNL     1       4.776   4.598  16.258  0.00  0.00    +0.000 A 
ATOM     26  C   UNL     1       5.425   4.060  15.145  0.00  0.00    +0.000 A 
ATOM     27  C   UNL     1       6.731   4.433  14.852  0.00  0.00    +0.000 A 
ATOM     28  C   UNL     1       7.380   5.358  15.667  0.00  0.00    +0.000 A 
ATOM     29  C   UNL     1       6.731   5.937  16.775  0.00  0.00    +0.000 A 
ENDBRANCH  18  29
ENDBRANCH  17  21
ENDBRANCH   1  17
TORSDOF 3
ENDMDL
MODEL 8
REMARK VINA RESULT:      -7.6      0.706      1.217
REMARK  Name = 
REMARK  4 active torsions:
REMARK  status: ('A' for Active; 'I' for Inactive)
REMARK    1  A    between atoms: C_1  and  C_2
REMARK    2  A    between atoms: C_7  and  C_8
REMARK    3  A    between atoms: C_11  and  C_12
REMARK    4  A    between atoms: C_12  and  N_13
REMARK                            x       y       z     vdW  Elec       q    Type
REMARK                         _______ _______ _______ _____ _____    ______ ____
ROOT
ATOM      1  N   UNL     1       1.161  10.184  20.398  0.00  0.00    +0.000 N 
ATOM      2  C   UNL     1       0.586  10.922  21.376  0.00  0.00    +0.000 C 
ATOM      3  O   UNL     1       0.320  10.580  22.528  0.00  0.00    +0.000 OA
ATOM      4  N   UNL     1       0.227  12.107  20.880  0.00  0.00    +0.000 N 
ATOM      5  C   UNL     1       0.002  12.070  19.427  0.00  0.00    +0.000 C 
ATOM      6  C   UNL     1      -0.601  13.490  19.335  0.00  0.00    +0.000 C 
ATOM      7  C   UNL     1      -2.128  13.254  19.712  0.00  0.00    +0.000 C 
ATOM      8  C   UNL     1      -2.387  11.974  19.004  0.00  0.00    +0.000 A 
ATOM      9  C   UNL     1      -3.583  11.440  18.546  0.00  0.00    +0.000 A 
ATOM     10  C   UNL     1      -3.551  10.329  17.694  0.00  0.00    +0.000 A 
ATOM     11  C   UNL     1      -2.331   9.801  17.276  0.00  0.00    +0.000 A 
ATOM     12  C   UNL     1      -1.143  10.325  17.790  0.00  0.00    +0.000 A 
ATOM     13  C   UNL     1      -1.182  11.338  18.757  0.00  0.00    +0.000 A 
ATOM     14  C   UNL     1       1.180  11.007  19.265  0.00  0.00    +0.000 C 
ATOM     15  O   UNL     1       1.859  10.827  18.265  0.00  0.00    +0.000 OA
ATOM     16  H   UNL     1       1.023  12.748  21.049  0.00  0.00    +0.000 HD
ENDROOT
BRANCH   1  17
ATOM     17  C   UNL     1       0.668   8.811  20.498  0.00  0.00    +0.000 C 
BRANCH  17  21
ATOM     18  C   UNL     1       2.580   6.152  19.176  0.00  0.00    +0.000 A 
ATOM     19  N   UNL     1       2.203   5.619  20.351  0.00  0.00    +0.000 NA
ATOM     20  O   UNL     1       1.550   6.653  20.996  0.00  0.00    +0.000 OA
ATOM     21  C   UNL     1       1.580   7.719  20.149  0.00  0.00    +0.000 A 
ATOM     22  N   UNL     1       2.192   7.465  19.013  0.00  0.00    +0.000 NA
BRANCH  18  29
ATOM     23  C   UNL     1       4.504   7.456  17.275  0.00  0.00    +0.000 C 
ATOM     24  C   UNL     1       4.247   5.974  17.299  0.00  0.00    +0.000 A 
ATOM     25  C   UNL     1       5.000   5.141  16.451  0.00  0.00    +0.000 A 
ATOM     26  C   UNL     1       4.840   3.754  16.473  0.00  0.00    +0.000 A 
ATOM     27  C   UNL     1       3.907   3.175  17.325  0.00  0.00    +0.000 A 
ATOM     28  C   UNL     1       3.147   3.986  18.165  0.00  0.00    +0.000 A 
ATOM     29  C   UNL     1       3.318   5.384  18.180  0.00  0.00    +0.000 A 
ENDBRANCH  18  29
ENDBRANCH  17  21
ENDBRANCH   1  17
TORSDOF 3
ENDMDL
MODEL 9
REMARK VINA RESULT:      -7.6      1.063      1.196
REMARK  Name = 
REMARK  4 active torsions:
REMARK  status: ('A' for Active; 'I' for Inactive)
REMARK    1  A    between atoms: C_1  and  C_2
REMARK    2  A    between atoms: C_7  and  C_8
REMARK    3  A    between atoms: C_11  and  C_12
REMARK    4  A    between atoms: C_12  and  N_13
REMARK                            x       y       z     vdW  Elec       q    Type
REMARK                         _______ _______ _______ _____ _____    ______ ____
ROOT
ATOM      1  N   UNL     1       0.754  10.228  21.131  0.00  0.00    +0.000 N 
ATOM      2  C   UNL     1      -0.018  10.260  22.243  0.00  0.00    +0.000 C 
ATOM      3  O   UNL     1      -0.384   9.314  22.941  0.00  0.00    +0.000 OA
ATOM      4  N   UNL     1      -0.446  11.506  22.447  0.00  0.00    +0.000 N 
ATOM      5  C   UNL     1      -0.484  12.303  21.211  0.00  0.00    +0.000 C 
ATOM      6  C   UNL     1      -1.229  13.506  21.834  0.00  0.00    +0.000 C 
ATOM      7  C   UNL     1      -2.754  13.061  21.753  0.00  0.00    +0.000 C 
ATOM      8  C   UNL     1      -2.776  12.412  20.417  0.00  0.00    +0.000 A 
ATOM      9  C   UNL     1      -3.838  12.208  19.547  0.00  0.00    +0.000 A 
ATOM     10  C   UNL     1      -3.575  11.786  18.238  0.00  0.00    +0.000 A 
ATOM     11  C   UNL     1      -2.261  11.622  17.806  0.00  0.00    +0.000 A 
ATOM     12  C   UNL     1      -1.212  11.784  18.714  0.00  0.00    +0.000 A 
ATOM     13  C   UNL     1      -1.485  12.060  20.061  0.00  0.00    +0.000 A 
ATOM     14  C   UNL     1       0.818  11.552  20.679  0.00  0.00    +0.000 C 
ATOM     15  O   UNL     1       1.631  11.993  19.880  0.00  0.00    +0.000 OA
ATOM     16  H   UNL     1       0.245  11.954  23.077  0.00  0.00    +0.000 HD
ENDROOT
BRANCH   1  17
ATOM     17  C   UNL     1       0.411   9.034  20.360  0.00  0.00    +0.000 C 
BRANCH  17  21
ATOM     18  C   UNL     1       2.598   6.362  19.618  0.00  0.00    +0.000 A 
ATOM     19  N   UNL     1       2.065   5.926  20.773  0.00  0.00    +0.000 NA
ATOM     20  O   UNL     1       1.284   6.983  21.203  0.00  0.00    +0.000 OA
ATOM     21  C   UNL     1       1.405   7.962  20.265  0.00  0.00    +0.000 A 
ATOM     22  N   UNL     1       2.193   7.632  19.265  0.00  0.00    +0.000 NA
BRANCH  18  29
ATOM     23  C   UNL     1       1.591   4.348  17.632  0.00  0.00    +0.000 C 
ATOM     24  C   UNL     1       3.054   4.610  17.869  0.00  0.00    +0.000 A 
ATOM     25  C   UNL     1       4.001   3.945  17.069  0.00  0.00    +0.000 A 
ATOM     26  C   UNL     1       5.368   4.193  17.212  0.00  0.00    +0.000 A 
ATOM     27  C   UNL     1       5.815   5.092  18.173  0.00  0.00    +0.000 A 
ATOM     28  C   UNL     1       4.891   5.752  18.979  0.00  0.00    +0.000 A 
ATOM     29  C   UNL     1       3.507   5.540  18.828  0.00  0.00    +0.000 A 
ENDBRANCH  18  29
ENDBRANCH  17  21
ENDBRANCH   1  17
TORSDOF 3
ENDMDL
