MODEL 1
REMARK VINA RESULT:      -8.9      0.000      0.000
REMARK  Name = 
REMARK  7 active torsions:
REMARK  status: ('A' for Active; 'I' for Inactive)
REMARK    1  A    between atoms: C_1  and  C_2
REMARK    2  A    between atoms: C_4  and  C_5
REMARK    3  A    between atoms: C_8  and  C_9
REMARK    4  A    between atoms: C_9  and  N_10
REMARK    5  A    between atoms: N_10  and  C_11
REMARK    6  A    between atoms: N_10  and  C_19
REMARK    7  A    between atoms: C_11  and  C_12
REMARK                            x       y       z     vdW  Elec       q    Type
REMARK                         _______ _______ _______ _____ _____    ______ ____
ROOT
ATOM      1  N   UNL     1       3.986   6.178  18.074  0.00  0.00    +0.000 NA
ENDROOT
BRANCH   1   2
ATOM      2  C   UNL     1       5.455   5.935  17.880  0.00  0.00    +0.000 C 
ATOM      3  C   UNL     1       5.755   4.806  16.869  0.00  0.00    +0.000 C 
ATOM      4  C   UNL     1       7.259   4.582  16.729  0.00  0.00    +0.000 C 
ATOM      5  O   UNL     1       7.849   4.323  18.000  0.00  0.00    +0.000 OA
ATOM      6  C   UNL     1       7.721   5.436  18.881  0.00  0.00    +0.000 C 
ATOM      7  C   UNL     1       6.256   5.708  19.179  0.00  0.00    +0.000 C 
ENDBRANCH   1   2
BRANCH   1   8
ATOM      8  C   UNL     1       3.519   7.357  17.289  0.00  0.00    +0.000 C 
BRANCH   8  12
ATOM      9  C   UNL     1       1.415   9.922  18.623  0.00  0.00    +0.000 A 
ATOM     10  N   UNL     1       1.371   9.043  19.640  0.00  0.00    +0.000 NA
ATOM     11  O   UNL     1       2.079   7.941  19.166  0.00  0.00    +0.000 OA
ATOM     12  C   UNL     1       2.491   8.257  17.906  0.00  0.00    +0.000 A 
ATOM     13  N   UNL     1       2.081   9.445  17.509  0.00  0.00    +0.000 NA
BRANCH   9  17
ATOM     14  C   UNL     1       2.043  14.909  18.742  0.00  0.00    +0.000 C 
ATOM     15  C   UNL     1       1.156  13.701  18.752  0.00  0.00    +0.000 A 
ATOM     16  C   UNL     1       1.686  12.404  18.650  0.00  0.00    +0.000 A 
ATOM     17  C   UNL     1       0.852  11.271  18.694  0.00  0.00    +0.000 A 
ATOM     18  C   UNL     1      -0.535  11.458  18.809  0.00  0.00    +0.000 A 
ATOM     19  C   UNL     1      -1.070  12.745  18.908  0.00  0.00    +0.000 A 
ATOM     20  C   UNL     1      -0.225  13.849  18.888  0.00  0.00    +0.000 A 
ATOM     21  F   UNL     1      -0.754  15.076  19.003  0.00  0.00    +0.000 F 
ENDBRANCH   9  17
ENDBRANCH   8  12
ENDBRANCH   1   8
BRANCH   1  22
ATOM     22  C   UNL     1       3.168   4.984  17.742  0.00  0.00    +0.000 C 
BRANCH  22  23
ATOM     23  C   UNL     1       2.503   4.322  18.938  0.00  0.00    +0.000 A 
ATOM     24  C   UNL     1       2.849   4.696  20.248  0.00  0.00    +0.000 A 
ATOM     25  C   UNL     1       2.264   4.059  21.344  0.00  0.00    +0.000 A 
ATOM     26  C   UNL     1       1.338   3.042  21.137  0.00  0.00    +0.000 A 
ATOM     27  F   UNL     1       0.796   2.418  22.191  0.00  0.00    +0.000 F 
ATOM     28  C   UNL     1       0.974   2.661  19.854  0.00  0.00    +0.000 A 
ATOM     29  C   UNL     1       1.548   3.305  18.754  0.00  0.00    +0.000 A 
ENDBRANCH  22  23
ENDBRANCH   1  22
TORSDOF 6
ENDMDL
MODEL 2
REMARK VINA RESULT:      -8.8      2.070      2.531
REMARK  Name = 
REMARK  7 active torsions:
REMARK  status: ('A' for Active; 'I' for Inactive)
REMARK    1  A    between atoms: C_1  and  C_2
REMARK    2  A    between atoms: C_4  and  C_5
REMARK    3  A    between atoms: C_8  and  C_9
REMARK    4  A    between atoms: C_9  and  N_10
REMARK    5  A    between atoms: N_10  and  C_11
REMARK    6  A    between atoms: N_10  and  C_19
REMARK    7  A    between atoms: C_11  and  C_12
REMARK                            x       y       z     vdW  Elec       q    Type
REMARK                         _______ _______ _______ _____ _____    ______ ____
ROOT
ATOM      1  N   UNL     1       3.648   6.279  17.971  0.00  0.00    +0.000 NA
ENDROOT
BRANCH   1   2
ATOM      2  C   UNL     1       5.099   6.082  17.639  0.00  0.00    +0.000 C 
ATOM      3  C   UNL     1       5.320   5.333  16.307  0.00  0.00    +0.000 C 
ATOM      4  C   UNL     1       6.809   5.135  16.030  0.00  0.00    +0.000 C 
ATOM      5  O   UNL     1       7.438   4.467  17.121  0.00  0.00    +0.000 OA
ATOM      6  C   UNL     1       7.383   5.239  18.318  0.00  0.00    +0.000 C 
ATOM      7  C   UNL     1       5.941   5.432  18.757  0.00  0.00    +0.000 C 
ENDBRANCH   1   2
BRANCH   1   8
ATOM      8  C   UNL     1       3.085   7.469  17.270  0.00  0.00    +0.000 C 
BRANCH   8  12
ATOM      9  C   UNL     1       1.274   9.710  19.386  0.00  0.00    +0.000 A 
ATOM     10  N   UNL     1       1.471  10.512  18.326  0.00  0.00    +0.000 NA
ATOM     11  O   UNL     1       2.277   9.759  17.477  0.00  0.00    +0.000 OA
ATOM     12  C   UNL     1       2.491   8.566  18.100  0.00  0.00    +0.000 A 
ATOM     13  N   UNL     1       1.929   8.496  19.290  0.00  0.00    +0.000 NA
BRANCH   9  17
ATOM     14  C   UNL     1      -2.090  12.777  21.521  0.00  0.00    +0.000 C 
ATOM     15  C   UNL     1      -1.221  11.557  21.562  0.00  0.00    +0.000 A 
ATOM     16  C   UNL     1      -0.423  11.191  20.466  0.00  0.00    +0.000 A 
ATOM     17  C   UNL     1       0.418  10.063  20.520  0.00  0.00    +0.000 A 
ATOM     18  C   UNL     1       0.421   9.280  21.685  0.00  0.00    +0.000 A 
ATOM     19  C   UNL     1      -0.374   9.635  22.779  0.00  0.00    +0.000 A 
ATOM     20  C   UNL     1      -1.177  10.768  22.712  0.00  0.00    +0.000 A 
ATOM     21  F   UNL     1      -1.918  11.105  23.778  0.00  0.00    +0.000 F 
ENDBRANCH   9  17
ENDBRANCH   8  12
ENDBRANCH   1   8
BRANCH   1  22
ATOM     22  C   UNL     1       2.833   5.075  17.674  0.00  0.00    +0.000 C 
BRANCH  22  23
ATOM     23  C   UNL     1       2.334   4.331  18.904  0.00  0.00    +0.000 A 
ATOM     24  C   UNL     1       2.465   4.896  20.184  0.00  0.00    +0.000 A 
ATOM     25  C   UNL     1       2.041   4.193  21.314  0.00  0.00    +0.000 A 
ATOM     26  C   UNL     1       1.492   2.924  21.171  0.00  0.00    +0.000 A 
ATOM     27  F   UNL     1       1.108   2.244  22.259  0.00  0.00    +0.000 F 
ATOM     28  C   UNL     1       1.345   2.349  19.916  0.00  0.00    +0.000 A 
ATOM     29  C   UNL     1       1.757   3.054  18.782  0.00  0.00    +0.000 A 
ENDBRANCH  22  23
ENDBRANCH   1  22
TORSDOF 6
ENDMDL
MODEL 3
REMARK VINA RESULT:      -8.8      2.046      2.649
REMARK  Name = 
REMARK  7 active torsions:
REMARK  status: ('A' for Active; 'I' for Inactive)
REMARK    1  A    between atoms: C_1  and  C_2
REMARK    2  A    between atoms: C_4  and  C_5
REMARK    3  A    between atoms: C_8  and  C_9
REMARK    4  A    between atoms: C_9  and  N_10
REMARK    5  A    between atoms: N_10  and  C_11
REMARK    6  A    between atoms: N_10  and  C_19
REMARK    7  A    between atoms: C_11  and  C_12
REMARK                            x       y       z     vdW  Elec       q    Type
REMARK                         _______ _______ _______ _____ _____    ______ ____
ROOT
ATOM      1  N   UNL     1       3.592   6.672  18.241  0.00  0.00    +0.000 NA
ENDROOT
BRANCH   1   2
ATOM      2  C   UNL     1       4.940   6.284  17.705  0.00  0.00    +0.000 C 
ATOM      3  C   UNL     1       4.866   5.575  16.335  0.00  0.00    +0.000 C 
ATOM      4  C   UNL     1       6.259   5.180  15.848  0.00  0.00    +0.000 C 
ATOM      5  O   UNL     1       6.923   4.378  16.822  0.00  0.00    +0.000 OA
ATOM      6  C   UNL     1       7.143   5.093  18.035  0.00  0.00    +0.000 C 
ATOM      7  C   UNL     1       5.818   5.468  18.676  0.00  0.00    +0.000 C 
ENDBRANCH   1   2
BRANCH   1   8
ATOM      8  C   UNL     1       3.192   8.033  17.780  0.00  0.00    +0.000 C 
BRANCH   8  12
ATOM      9  C   UNL     1       0.046   9.620  18.386  0.00  0.00    +0.000 A 
ATOM     10  N   UNL     1       0.613   9.778  19.594  0.00  0.00    +0.000 NA
ATOM     11  O   UNL     1       1.817   9.085  19.496  0.00  0.00    +0.000 OA
ATOM     12  C   UNL     1       1.869   8.573  18.233  0.00  0.00    +0.000 A 
ATOM     13  N   UNL     1       0.793   8.841  17.522  0.00  0.00    +0.000 NA
BRANCH   9  17
ATOM     14  C   UNL     1      -3.656  10.262  15.044  0.00  0.00    +0.000 C 
ATOM     15  C   UNL     1      -3.026  10.557  16.372  0.00  0.00    +0.000 A 
ATOM     16  C   UNL     1      -1.829   9.938  16.765  0.00  0.00    +0.000 A 
ATOM     17  C   UNL     1      -1.221  10.243  17.999  0.00  0.00    +0.000 A 
ATOM     18  C   UNL     1      -1.855  11.159  18.853  0.00  0.00    +0.000 A 
ATOM     19  C   UNL     1      -3.048  11.777  18.470  0.00  0.00    +0.000 A 
ATOM     20  C   UNL     1      -3.616  11.480  17.237  0.00  0.00    +0.000 A 
ATOM     21  F   UNL     1      -4.752  12.096  16.877  0.00  0.00    +0.000 F 
ENDBRANCH   9  17
ENDBRANCH   8  12
ENDBRANCH   1   8
BRANCH   1  22
ATOM     22  C   UNL     1       2.541   5.683  17.893  0.00  0.00    +0.000 C 
BRANCH  22  23
ATOM     23  C   UNL     1       2.159   4.742  19.025  0.00  0.00    +0.000 A 
ATOM     24  C   UNL     1       2.382   5.106  20.364  0.00  0.00    +0.000 A 
ATOM     25  C   UNL     1       2.066   4.223  21.400  0.00  0.00    +0.000 A 
ATOM     26  C   UNL     1       1.533   2.974  21.102  0.00  0.00    +0.000 A 
ATOM     27  F   UNL     1       1.253   2.122  22.096  0.00  0.00    +0.000 F 
ATOM     28  C   UNL     1       1.297   2.595  19.788  0.00  0.00    +0.000 A 
ATOM     29  C   UNL     1       1.600   3.480  18.750  0.00  0.00    +0.000 A 
ENDBRANCH  22  23
ENDBRANCH   1  22
TORSDOF 6
ENDMDL
MODEL 4
REMARK VINA RESULT:      -8.8      2.201      2.865
REMARK  Name = 
REMARK  7 active torsions:
REMARK  status: ('A' for Active; 'I' for Inactive)
REMARK    1  A    between atoms: C_1  and  C_2
REMARK    2  A    between atoms: C_4  and  C_5
REMARK    3  A    between atoms: C_8  and  C_9
REMARK    4  A    between atoms: C_9  and  N_10
REMARK    5  A    between atoms: N_10  and  C_11
REMARK    6  A    between atoms: N_10  and  C_19
REMARK    7  A    between atoms: C_11  and  C_12
REMARK                            x       y       z     vdW  Elec       q    Type
REMARK                         _______ _______ _______ _____ _____    ______ ____
ROOT
ATOM      1  N   UNL     1       3.807   6.177  17.962  0.00  0.00    +0.000 NA
ENDROOT
BRANCH   1   2
ATOM      2  C   UNL     1       5.254   5.878  17.691  0.00  0.00    +0.000 C 
ATOM      3  C   UNL     1       6.074   7.135  17.324  0.00  0.00    +0.000 C 
ATOM      4  C   UNL     1       7.529   6.773  17.033  0.00  0.00    +0.000 C 
ATOM      5  O   UNL     1       7.605   5.776  16.016  0.00  0.00    +0.000 OA
ATOM      6  C   UNL     1       6.994   4.555  16.423  0.00  0.00    +0.000 C 
ATOM      7  C   UNL     1       5.507   4.761  16.658  0.00  0.00    +0.000 C 
ENDBRANCH   1   2
BRANCH   1   8
ATOM      8  C   UNL     1       3.346   7.375  17.203  0.00  0.00    +0.000 C 
BRANCH   8  12
ATOM      9  C   UNL     1       1.232   9.433  19.223  0.00  0.00    +0.000 A 
ATOM     10  N   UNL     1       1.025  10.007  18.024  0.00  0.00    +0.000 NA
ATOM     11  O   UNL     1       1.903   9.339  17.174  0.00  0.00    +0.000 OA
ATOM     12  C   UNL     1       2.559   8.418  17.936  0.00  0.00    +0.000 A 
ATOM     13  N   UNL     1       2.212   8.458  19.207  0.00  0.00    +0.000 NA
BRANCH   9  17
ATOM     14  C   UNL     1      -1.110  12.844  22.078  0.00  0.00    +0.000 C 
ATOM     15  C   UNL     1      -0.671  11.435  21.818  0.00  0.00    +0.000 A 
ATOM     16  C   UNL     1       0.030  11.093  20.650  0.00  0.00    +0.000 A 
ATOM     17  C   UNL     1       0.470   9.774  20.425  0.00  0.00    +0.000 A 
ATOM     18  C   UNL     1       0.165   8.790  21.378  0.00  0.00    +0.000 A 
ATOM     19  C   UNL     1      -0.536   9.122  22.541  0.00  0.00    +0.000 A 
ATOM     20  C   UNL     1      -0.938  10.435  22.754  0.00  0.00    +0.000 A 
ATOM     21  F   UNL     1      -1.593  10.740  23.884  0.00  0.00    +0.000 F 
ENDBRANCH   9  17
ENDBRANCH   8  12
ENDBRANCH   1   8
BRANCH   1  22
ATOM     22  C   UNL     1       2.929   5.016  17.673  0.00  0.00    +0.000 C 
BRANCH  22  23
ATOM     23  C   UNL     1       2.400   4.302  18.907  0.00  0.00    +0.000 A 
ATOM     24  C   UNL     1       1.589   3.161  18.783  0.00  0.00    +0.000 A 
ATOM     25  C   UNL     1       1.074   2.531  19.918  0.00  0.00    +0.000 A 
ATOM     26  C   UNL     1       1.360   3.041  21.179  0.00  0.00    +0.000 A 
ATOM     27  F   UNL     1       0.845   2.448  22.264  0.00  0.00    +0.000 F 
ATOM     28  C   UNL     1       2.165   4.162  21.328  0.00  0.00    +0.000 A 
ATOM     29  C   UNL     1       2.692   4.788  20.195  0.00  0.00    +0.000 A 
ENDBRANCH  22  23
ENDBRANCH   1  22
TORSDOF 6
ENDMDL
MODEL 5
REMARK VINA RESULT:      -8.8      1.527      2.082
REMARK  Name = 
REMARK  7 active torsions:
REMARK  status: ('A' for Active; 'I' for Inactive)
REMARK    1  A    between atoms: C_1  and  C_2
REMARK    2  A    between atoms: C_4  and  C_5
REMARK    3  A    between atoms: C_8  and  C_9
REMARK    4  A    between atoms: C_9  and  N_10
REMARK    5  A    between atoms: N_10  and  C_11
REMARK    6  A    between atoms: N_10  and  C_19
REMARK    7  A    between atoms: C_11  and  C_12
REMARK                            x       y       z     vdW  Elec       q    Type
REMARK                         _______ _______ _______ _____ _____    ______ ____
ROOT
ATOM      1  N   UNL     1       4.094   6.032  18.091  0.00  0.00    +0.000 NA
ENDROOT
BRANCH   1   2
ATOM      2  C   UNL     1       5.477   5.837  17.540  0.00  0.00    +0.000 C 
ATOM      3  C   UNL     1       5.483   5.368  16.068  0.00  0.00    +0.000 C 
ATOM      4  C   UNL     1       6.911   5.160  15.566  0.00  0.00    +0.000 C 
ATOM      5  O   UNL     1       7.614   4.253  16.412  0.00  0.00    +0.000 OA
ATOM      6  C   UNL     1       7.757   4.765  17.734  0.00  0.00    +0.000 C 
ATOM      7  C   UNL     1       6.396   4.932  18.387  0.00  0.00    +0.000 C 
ENDBRANCH   1   2
BRANCH   1   8
ATOM      8  C   UNL     1       3.524   7.348  17.684  0.00  0.00    +0.000 C 
BRANCH   8  12
ATOM      9  C   UNL     1       0.963   9.177  19.381  0.00  0.00    +0.000 A 
ATOM     10  N   UNL     1       1.423   8.434  20.402  0.00  0.00    +0.000 NA
ATOM     11  O   UNL     1       2.363   7.593  19.812  0.00  0.00    +0.000 OA
ATOM     12  C   UNL     1       2.389   7.908  18.486  0.00  0.00    +0.000 A 
ATOM     13  N   UNL     1       1.524   8.847  18.161  0.00  0.00    +0.000 NA
BRANCH   9  17
ATOM     14  C   UNL     1      -3.210  11.549  17.884  0.00  0.00    +0.000 C 
ATOM     15  C   UNL     1      -2.041  11.418  18.812  0.00  0.00    +0.000 A 
ATOM     16  C   UNL     1      -1.124  10.362  18.688  0.00  0.00    +0.000 A 
ATOM     17  C   UNL     1      -0.008  10.261  19.541  0.00  0.00    +0.000 A 
ATOM     18  C   UNL     1       0.158  11.222  20.550  0.00  0.00    +0.000 A 
ATOM     19  C   UNL     1      -0.753  12.274  20.683  0.00  0.00    +0.000 A 
ATOM     20  C   UNL     1      -1.833  12.368  19.813  0.00  0.00    +0.000 A 
ATOM     21  F   UNL     1      -2.686  13.395  19.943  0.00  0.00    +0.000 F 
ENDBRANCH   9  17
ENDBRANCH   8  12
ENDBRANCH   1   8
BRANCH   1  22
ATOM     22  C   UNL     1       3.174   4.933  17.705  0.00  0.00    +0.000 C 
BRANCH  22  23
ATOM     23  C   UNL     1       2.540   4.199  18.876  0.00  0.00    +0.000 A 
ATOM     24  C   UNL     1       1.315   3.527  18.723  0.00  0.00    +0.000 A 
ATOM     25  C   UNL     1       0.718   2.887  19.811  0.00  0.00    +0.000 A 
ATOM     26  C   UNL     1       1.336   2.920  21.055  0.00  0.00    +0.000 A 
ATOM     27  F   UNL     1       0.749   2.325  22.101  0.00  0.00    +0.000 F 
ATOM     28  C   UNL     1       2.550   3.570  21.230  0.00  0.00    +0.000 A 
ATOM     29  C   UNL     1       3.157   4.202  20.141  0.00  0.00    +0.000 A 
ENDBRANCH  22  23
ENDBRANCH   1  22
TORSDOF 6
ENDMDL
MODEL 6
REMARK VINA RESULT:      -8.8      1.903      2.199
REMARK  Name = 
REMARK  7 active torsions:
REMARK  status: ('A' for Active; 'I' for Inactive)
REMARK    1  A    between atoms: C_1  and  C_2
REMARK    2  A    between atoms: C_4  and  C_5
REMARK    3  A    between atoms: C_8  and  C_9
REMARK    4  A    between atoms: C_9  and  N_10
REMARK    5  A    between atoms: N_10  and  C_11
REMARK    6  A    between atoms: N_10  and  C_19
REMARK    7  A    between atoms: C_11  and  C_12
REMARK                            x       y       z     vdW  Elec       q    Type
REMARK                         _______ _______ _______ _____ _____    ______ ____
ROOT
ATOM      1  N   UNL     1       3.865   6.515  18.164  0.00  0.00    +0.000 NA
ENDROOT
BRANCH   1   2
ATOM      2  C   UNL     1       5.235   6.202  17.634  0.00  0.00    +0.000 C 
ATOM      3  C   UNL     1       5.210   5.570  16.225  0.00  0.00    +0.000 C 
ATOM      4  C   UNL     1       6.624   5.247  15.745  0.00  0.00    +0.000 C 
ATOM      5  O   UNL     1       7.296   4.414  16.687  0.00  0.00    +0.000 OA
ATOM      6  C   UNL     1       7.470   5.065  17.942  0.00  0.00    +0.000 C 
ATOM      7  C   UNL     1       6.121   5.361  18.576  0.00  0.00    +0.000 C 
ENDBRANCH   1   2
BRANCH   1   8
ATOM      8  C   UNL     1       3.409   7.869  17.734  0.00  0.00    +0.000 C 
BRANCH   8  12
ATOM      9  C   UNL     1       0.327   9.462  18.598  0.00  0.00    +0.000 A 
ATOM     10  N   UNL     1       0.906   9.419  19.811  0.00  0.00    +0.000 NA
ATOM     11  O   UNL     1       2.083   8.705  19.599  0.00  0.00    +0.000 OA
ATOM     12  C   UNL     1       2.110   8.384  18.275  0.00  0.00    +0.000 A 
ATOM     13  N   UNL     1       1.041   8.792  17.621  0.00  0.00    +0.000 NA
BRANCH   9  17
ATOM     14  C   UNL     1      -3.216  12.745  19.992  0.00  0.00    +0.000 C 
ATOM     15  C   UNL     1      -2.645  11.779  18.998  0.00  0.00    +0.000 A 
ATOM     16  C   UNL     1      -1.433  11.112  19.241  0.00  0.00    +0.000 A 
ATOM     17  C   UNL     1      -0.917  10.180  18.320  0.00  0.00    +0.000 A 
ATOM     18  C   UNL     1      -1.621   9.951  17.128  0.00  0.00    +0.000 A 
ATOM     19  C   UNL     1      -2.826  10.614  16.877  0.00  0.00    +0.000 A 
ATOM     20  C   UNL     1      -3.329  11.510  17.812  0.00  0.00    +0.000 A 
ATOM     21  F   UNL     1      -4.496  12.124  17.564  0.00  0.00    +0.000 F 
ENDBRANCH   9  17
ENDBRANCH   8  12
ENDBRANCH   1   8
BRANCH   1  22
ATOM     22  C   UNL     1       2.863   5.490  17.776  0.00  0.00    +0.000 C 
BRANCH  22  23
ATOM     23  C   UNL     1       2.299   4.689  18.939  0.00  0.00    +0.000 A 
ATOM     24  C   UNL     1       2.715   4.947  20.256  0.00  0.00    +0.000 A 
ATOM     25  C   UNL     1       2.224   4.183  21.317  0.00  0.00    +0.000 A 
ATOM     26  C   UNL     1       1.321   3.156  21.066  0.00  0.00    +0.000 A 
ATOM     27  F   UNL     1       0.870   2.410  22.083  0.00  0.00    +0.000 F 
ATOM     28  C   UNL     1       0.888   2.887  19.775  0.00  0.00    +0.000 A 
ATOM     29  C   UNL     1       1.369   3.657  18.713  0.00  0.00    +0.000 A 
ENDBRANCH  22  23
ENDBRANCH   1  22
TORSDOF 6
ENDMDL
MODEL 7
REMARK VINA RESULT:      -8.8      1.485      1.979
REMARK  Name = 
REMARK  7 active torsions:
REMARK  status: ('A' for Active; 'I' for Inactive)
REMARK    1  A    between atoms: C_1  and  C_2
REMARK    2  A    between atoms: C_4  and  C_5
REMARK    3  A    between atoms: C_8  and  C_9
REMARK    4  A    between atoms: C_9  and  N_10
REMARK    5  A    between atoms: N_10  and  C_11
REMARK    6  A    between atoms: N_10  and  C_19
REMARK    7  A    between atoms: C_11  and  C_12
REMARK                            x       y       z     vdW  Elec       q    Type
REMARK                         _______ _______ _______ _____ _____    ______ ____
ROOT
ATOM      1  N   UNL     1       3.904   6.293  18.166  0.00  0.00    +0.000 NA
ENDROOT
BRANCH   1   2
ATOM      2  C   UNL     1       5.291   6.101  17.624  0.00  0.00    +0.000 C 
ATOM      3  C   UNL     1       5.309   5.492  16.204  0.00  0.00    +0.000 C 
ATOM      4  C   UNL     1       6.741   5.294  15.712  0.00  0.00    +0.000 C 
ATOM      5  O   UNL     1       7.485   4.503  16.635  0.00  0.00    +0.000 OA
ATOM      6  C   UNL     1       7.614   5.146  17.900  0.00  0.00    +0.000 C 
ATOM      7  C   UNL     1       6.250   5.320  18.546  0.00  0.00    +0.000 C 
ENDBRANCH   1   2
BRANCH   1   8
ATOM      8  C   UNL     1       3.335   7.609  17.756  0.00  0.00    +0.000 C 
BRANCH   8  12
ATOM      9  C   UNL     1       0.816   9.460  19.491  0.00  0.00    +0.000 A 
ATOM     10  N   UNL     1       1.235   8.663  20.488  0.00  0.00    +0.000 NA
ATOM     11  O   UNL     1       2.153   7.812  19.878  0.00  0.00    +0.000 OA
ATOM     12  C   UNL     1       2.208   8.176  18.565  0.00  0.00    +0.000 A 
ATOM     13  N   UNL     1       1.381   9.158  18.266  0.00  0.00    +0.000 NA
BRANCH   9  17
ATOM     14  C   UNL     1      -1.788  12.494  22.540  0.00  0.00    +0.000 C 
ATOM     15  C   UNL     1      -1.389  12.049  21.166  0.00  0.00    +0.000 A 
ATOM     16  C   UNL     1      -0.466  11.008  20.974  0.00  0.00    +0.000 A 
ATOM     17  C   UNL     1      -0.119  10.570  19.681  0.00  0.00    +0.000 A 
ATOM     18  C   UNL     1      -0.689  11.219  18.575  0.00  0.00    +0.000 A 
ATOM     19  C   UNL     1      -1.605  12.259  18.758  0.00  0.00    +0.000 A 
ATOM     20  C   UNL     1      -1.953  12.657  20.043  0.00  0.00    +0.000 A 
ATOM     21  F   UNL     1      -2.847  13.643  20.201  0.00  0.00    +0.000 F 
ENDBRANCH   9  17
ENDBRANCH   8  12
ENDBRANCH   1   8
BRANCH   1  22
ATOM     22  C   UNL     1       2.988   5.192  17.773  0.00  0.00    +0.000 C 
BRANCH  22  23
ATOM     23  C   UNL     1       2.425   4.393  18.937  0.00  0.00    +0.000 A 
ATOM     24  C   UNL     1       1.442   3.413  18.724  0.00  0.00    +0.000 A 
ATOM     25  C   UNL     1       0.900   2.707  19.801  0.00  0.00    +0.000 A 
ATOM     26  C   UNL     1       1.332   2.983  21.093  0.00  0.00    +0.000 A 
ATOM     27  F   UNL     1       0.793   2.322  22.125  0.00  0.00    +0.000 F 
ATOM     28  C   UNL     1       2.308   3.942  21.328  0.00  0.00    +0.000 A 
ATOM     29  C   UNL     1       2.862   4.640  20.252  0.00  0.00    +0.000 A 
ENDBRANCH  22  23
ENDBRANCH   1  22
TORSDOF 6
ENDMDL
MODEL 8
REMARK VINA RESULT:      -8.7      3.687      8.381
REMARK  Name = 
REMARK  7 active torsions:
REMARK  status: ('A' for Active; 'I' for Inactive)
REMARK    1  A    between atoms: C_1  and  C_2
REMARK    2  A    between atoms: C_4  and  C_5
REMARK    3  A    between atoms: C_8  and  C_9
REMARK    4  A    between atoms: C_9  and  N_10
REMARK    5  A    between atoms: N_10  and  C_11
REMARK    6  A    between atoms: N_10  and  C_19
REMARK    7  A    between atoms: C_11  and  C_12
REMARK                            x       y       z     vdW  Elec       q    Type
REMARK                         _______ _______ _______ _____ _____    ______ ____
ROOT
ATOM      1  N   UNL     1       3.760   5.294  19.529  0.00  0.00    +0.000 NA
ENDROOT
BRANCH   1   2
ATOM      2  C   UNL     1       2.515   4.460  19.629  0.00  0.00    +0.000 C 
ATOM      3  C   UNL     1       2.424   3.662  20.948  0.00  0.00    +0.000 C 
ATOM      4  C   UNL     1       1.155   2.812  20.988  0.00  0.00    +0.000 C 
ATOM      5  O   UNL     1       1.088   1.958  19.848  0.00  0.00    +0.000 OA
ATOM      6  C   UNL     1       1.000   2.699  18.634  0.00  0.00    +0.000 C 
ATOM      7  C   UNL     1       2.258   3.526  18.428  0.00  0.00    +0.000 C 
ENDBRANCH   1   2
BRANCH   1   8
ATOM      8  C   UNL     1       4.976   4.444  19.374  0.00  0.00    +0.000 C 
BRANCH   8  12
ATOM      9  C   UNL     1       6.744   4.643  16.273  0.00  0.00    +0.000 A 
ATOM     10  N   UNL     1       7.783   4.507  17.116  0.00  0.00    +0.000 NA
ATOM     11  O   UNL     1       7.199   4.534  18.380  0.00  0.00    +0.000 OA
ATOM     12  C   UNL     1       5.857   4.680  18.185  0.00  0.00    +0.000 A 
ATOM     13  N   UNL     1       5.528   4.788  16.914  0.00  0.00    +0.000 NA
BRANCH   9  17
ATOM     14  C   UNL     1       5.353   2.761  11.823  0.00  0.00    +0.000 C 
ATOM     15  C   UNL     1       6.197   3.686  12.647  0.00  0.00    +0.000 A 
ATOM     16  C   UNL     1       6.055   3.757  14.042  0.00  0.00    +0.000 A 
ATOM     17  C   UNL     1       6.874   4.603  14.816  0.00  0.00    +0.000 A 
ATOM     18  C   UNL     1       7.820   5.407  14.162  0.00  0.00    +0.000 A 
ATOM     19  C   UNL     1       7.964   5.345  12.773  0.00  0.00    +0.000 A 
ATOM     20  C   UNL     1       7.163   4.484  12.032  0.00  0.00    +0.000 A 
ATOM     21  F   UNL     1       7.328   4.423  10.703  0.00  0.00    +0.000 F 
ENDBRANCH   9  17
ENDBRANCH   8  12
ENDBRANCH   1   8
BRANCH   1  22
ATOM     22  C   UNL     1       3.685   6.288  18.430  0.00  0.00    +0.000 C 
BRANCH  22  23
ATOM     23  C   UNL     1       2.745   7.454  18.696  0.00  0.00    +0.000 A 
ATOM     24  C   UNL     1       2.144   7.616  19.956  0.00  0.00    +0.000 A 
ATOM     25  C   UNL     1       1.252   8.666  20.185  0.00  0.00    +0.000 A 
ATOM     26  C   UNL     1       0.951   9.552  19.156  0.00  0.00    +0.000 A 
ATOM     27  F   UNL     1       0.077  10.543  19.373  0.00  0.00    +0.000 F 
ATOM     28  C   UNL     1       1.538   9.417  17.906  0.00  0.00    +0.000 A 
ATOM     29  C   UNL     1       2.441   8.375  17.677  0.00  0.00    +0.000 A 
ENDBRANCH  22  23
ENDBRANCH   1  22
TORSDOF 6
ENDMDL
MODEL 9
REMARK VINA RESULT:      -8.7      2.278      2.967
REMARK  Name = 
REMARK  7 active torsions:
REMARK  status: ('A' for Active; 'I' for Inactive)
REMARK    1  A    between atoms: C_1  and  C_2
REMARK    2  A    between atoms: C_4  and  C_5
REMARK    3  A    between atoms: C_8  and  C_9
REMARK    4  A    between atoms: C_9  and  N_10
REMARK    5  A    between atoms: N_10  and  C_11
REMARK    6  A    between atoms: N_10  and  C_19
REMARK    7  A    between atoms: C_11  and  C_12
REMARK                            x       y       z     vdW  Elec       q    Type
REMARK                         _______ _______ _______ _____ _____    ______ ____
ROOT
ATOM      1  N   UNL     1       4.382   6.282  18.346  0.00  0.00    +0.000 NA
ENDROOT
BRANCH   1   2
ATOM      2  C   UNL     1       5.223   5.565  17.329  0.00  0.00    +0.000 C 
ATOM      3  C   UNL     1       6.692   5.386  17.773  0.00  0.00    +0.000 C 
ATOM      4  C   UNL     1       7.508   4.676  16.695  0.00  0.00    +0.000 C 
ATOM      5  O   UNL     1       7.412   5.372  15.454  0.00  0.00    +0.000 OA
ATOM      6  C   UNL     1       6.077   5.389  14.957  0.00  0.00    +0.000 C 
ATOM      7  C   UNL     1       5.170   6.155  15.905  0.00  0.00    +0.000 C 
ENDBRANCH   1   2
BRANCH   1   8
ATOM      8  C   UNL     1       3.109   6.778  17.749  0.00  0.00    +0.000 C 
BRANCH   8  12
ATOM      9  C   UNL     1       1.229   9.314  19.428  0.00  0.00    +0.000 A 
ATOM     10  N   UNL     1       1.313   9.869  18.207  0.00  0.00    +0.000 NA
ATOM     11  O   UNL     1       2.136   8.998  17.496  0.00  0.00    +0.000 OA
ATOM     12  C   UNL     1       2.470   7.992  18.353  0.00  0.00    +0.000 A 
ATOM     13  N   UNL     1       1.971   8.155  19.561  0.00  0.00    +0.000 NA
BRANCH   9  17
ATOM     14  C   UNL     1      -1.813  12.899  21.211  0.00  0.00    +0.000 C 
ATOM     15  C   UNL     1      -1.081  11.601  21.377  0.00  0.00    +0.000 A 
ATOM     16  C   UNL     1      -0.313  11.057  20.335  0.00  0.00    +0.000 A 
ATOM     17  C   UNL     1       0.401   9.855  20.507  0.00  0.00    +0.000 A 
ATOM     18  C   UNL     1       0.304   9.184  21.736  0.00  0.00    +0.000 A 
ATOM     19  C   UNL     1      -0.462   9.717  22.776  0.00  0.00    +0.000 A 
ATOM     20  C   UNL     1      -1.137  10.918  22.593  0.00  0.00    +0.000 A 
ATOM     21  F   UNL     1      -1.852  11.425  23.608  0.00  0.00    +0.000 F 
ENDBRANCH   9  17
ENDBRANCH   8  12
ENDBRANCH   1   8
BRANCH   1  22
ATOM     22  C   UNL     1       4.098   5.440  19.535  0.00  0.00    +0.000 C 
BRANCH  22  23
ATOM     23  C   UNL     1       3.048   4.364  19.310  0.00  0.00    +0.000 A 
ATOM     24  C   UNL     1       3.267   3.332  18.382  0.00  0.00    +0.000 A 
ATOM     25  C   UNL     1       2.284   2.367  18.150  0.00  0.00    +0.000 A 
ATOM     26  C   UNL     1       1.078   2.433  18.838  0.00  0.00    +0.000 A 
ATOM     27  F   UNL     1       0.129   1.519  18.597  0.00  0.00    +0.000 F 
ATOM     28  C   UNL     1       0.841   3.437  19.766  0.00  0.00    +0.000 A 
ATOM     29  C   UNL     1       1.827   4.397  20.010  0.00  0.00    +0.000 A 
ENDBRANCH  22  23
ENDBRANCH   1  22
TORSDOF 6
ENDMDL
