MODEL 1
REMARK VINA RESULT:      -7.9      0.000      0.000
REMARK  Name = 
REMARK  2 active torsions:
REMARK  status: ('A' for Active; 'I' for Inactive)
REMARK    1  A    between atoms: C_2  and  C_4
REMARK    2  A    between atoms: C_14  and  C_16
REMARK                            x       y       z     vdW  Elec       q    Type
REMARK                         _______ _______ _______ _____ _____    ______ ____
ROOT
ATOM      1  C   UNL     1       2.927   5.965  18.151  0.00  0.00    +0.000 C 
ATOM      2  C   UNL     1       2.120   4.803  18.726  0.00  0.00    +0.000 A 
ATOM      3  C   UNL     1       1.725   3.711  17.950  0.00  0.00    +0.000 A 
ATOM      4  C   UNL     1       1.064   2.635  18.552  0.00  0.00    +0.000 A 
ATOM      5  C   UNL     1       0.800   2.644  19.921  0.00  0.00    +0.000 A 
ATOM      6  C   UNL     1       1.180   3.734  20.703  0.00  0.00    +0.000 A 
ATOM      7  C   UNL     1       1.829   4.814  20.105  0.00  0.00    +0.000 A 
ATOM      8  C   UNL     1       2.231   6.039  20.882  0.00  0.00    +0.000 C 
ATOM      9  C   UNL     1       1.873   7.255  20.028  0.00  0.00    +0.000 C 
ATOM     10  N   UNL     1       2.386   7.263  18.647  0.00  0.00    +0.000 N 
ATOM     11  C   UNL     1       2.349   8.354  17.772  0.00  0.00    +0.000 C 
ATOM     12  O   UNL     1       2.987   8.320  16.714  0.00  0.00    +0.000 OA
ENDROOT
BRANCH  11  13
ATOM     13  C   UNL     1       1.586   9.623  18.120  0.00  0.00    +0.000 A 
ATOM     14  C   UNL     1       2.327  10.896  18.270  0.00  0.00    +0.000 A 
ATOM     15  C   UNL     1       1.719  12.060  18.595  0.00  0.00    +0.000 A 
ATOM     16  C   UNL     1       0.316  12.084  18.830  0.00  0.00    +0.000 A 
ATOM     17  N   UNL     1      -0.514  13.037  19.205  0.00  0.00    +0.000 NA
ATOM     18  C   UNL     1      -1.752  12.444  19.262  0.00  0.00    +0.000 A 
ATOM     19  C   UNL     1      -1.680  11.117  18.907  0.00  0.00    +0.000 A 
ATOM     20  N   UNL     1      -0.360  10.897  18.616  0.00  0.00    +0.000 N 
ATOM     21  C   UNL     1       0.246   9.716  18.223  0.00  0.00    +0.000 A 
ENDBRANCH  11  13
BRANCH   1  23
ATOM     22  N   UNL     1       5.342   6.517  17.802  0.00  0.00    +0.000 N 
ATOM     23  C   UNL     1       4.439   5.767  18.502  0.00  0.00    +0.000 C 
ATOM     24  O   UNL     1       4.861   4.950  19.316  0.00  0.00    +0.000 OA
ATOM     25  H   UNL     1       6.314   6.278  17.958  0.00  0.00    +0.000 HD
ATOM     26  H   UNL     1       5.084   6.837  16.876  0.00  0.00    +0.000 HD
ENDBRANCH   1  23
TORSDOF 2
ENDMDL
MODEL 2
REMARK VINA RESULT:      -7.9      0.688      1.406
REMARK  Name = 
REMARK  2 active torsions:
REMARK  status: ('A' for Active; 'I' for Inactive)
REMARK    1  A    between atoms: C_2  and  C_4
REMARK    2  A    between atoms: C_14  and  C_16
REMARK                            x       y       z     vdW  Elec       q    Type
REMARK                         _______ _______ _______ _____ _____    ______ ____
ROOT
ATOM      1  C   UNL     1       2.923   6.071  18.141  0.00  0.00    +0.000 C 
ATOM      2  C   UNL     1       2.126   4.898  18.706  0.00  0.00    +0.000 A 
ATOM      3  C   UNL     1       1.753   3.802  17.924  0.00  0.00    +0.000 A 
ATOM      4  C   UNL     1       1.101   2.716  18.518  0.00  0.00    +0.000 A 
ATOM      5  C   UNL     1       0.825   2.719  19.885  0.00  0.00    +0.000 A 
ATOM      6  C   UNL     1       1.183   3.812  20.672  0.00  0.00    +0.000 A 
ATOM      7  C   UNL     1       1.822   4.902  20.083  0.00  0.00    +0.000 A 
ATOM      8  C   UNL     1       2.202   6.131  20.865  0.00  0.00    +0.000 C 
ATOM      9  C   UNL     1       1.835   7.343  20.011  0.00  0.00    +0.000 C 
ATOM     10  N   UNL     1       2.360   7.361  18.634  0.00  0.00    +0.000 N 
ATOM     11  C   UNL     1       2.317   8.454  17.762  0.00  0.00    +0.000 C 
ATOM     12  O   UNL     1       2.965   8.430  16.709  0.00  0.00    +0.000 OA
ENDROOT
BRANCH  11  13
ATOM     13  C   UNL     1       1.534   9.711  18.105  0.00  0.00    +0.000 A 
ATOM     14  C   UNL     1       0.056   9.651  18.163  0.00  0.00    +0.000 A 
ATOM     15  C   UNL     1      -0.708  10.731  18.444  0.00  0.00    +0.000 A 
ATOM     16  C   UNL     1      -0.093  11.993  18.675  0.00  0.00    +0.000 A 
ATOM     17  N   UNL     1      -0.575  13.196  18.910  0.00  0.00    +0.000 NA
ATOM     18  C   UNL     1       0.522  14.012  19.046  0.00  0.00    +0.000 A 
ATOM     19  C   UNL     1       1.688  13.298  18.902  0.00  0.00    +0.000 A 
ATOM     20  N   UNL     1       1.290  12.005  18.682  0.00  0.00    +0.000 N 
ATOM     21  C   UNL     1       2.080  10.891  18.457  0.00  0.00    +0.000 A 
ENDBRANCH  11  13
BRANCH   1  23
ATOM     22  N   UNL     1       5.343   6.541  17.717  0.00  0.00    +0.000 N 
ATOM     23  C   UNL     1       4.434   5.893  18.505  0.00  0.00    +0.000 C 
ATOM     24  O   UNL     1       4.849   5.171  19.408  0.00  0.00    +0.000 OA
ATOM     25  H   UNL     1       6.313   6.308  17.896  0.00  0.00    +0.000 HD
ATOM     26  H   UNL     1       5.084   6.755  16.762  0.00  0.00    +0.000 HD
ENDBRANCH   1  23
TORSDOF 2
ENDMDL
MODEL 3
REMARK VINA RESULT:      -7.5      2.461      4.097
REMARK  Name = 
REMARK  2 active torsions:
REMARK  status: ('A' for Active; 'I' for Inactive)
REMARK    1  A    between atoms: C_2  and  C_4
REMARK    2  A    between atoms: C_14  and  C_16
REMARK                            x       y       z     vdW  Elec       q    Type
REMARK                         _______ _______ _______ _____ _____    ______ ____
ROOT
ATOM      1  C   UNL     1       3.575   5.429  19.148  0.00  0.00    +0.000 C 
ATOM      2  C   UNL     1       4.973   5.776  18.644  0.00  0.00    +0.000 A 
ATOM      3  C   UNL     1       6.128   5.225  19.205  0.00  0.00    +0.000 A 
ATOM      4  C   UNL     1       7.377   5.512  18.644  0.00  0.00    +0.000 A 
ATOM      5  C   UNL     1       7.476   6.341  17.527  0.00  0.00    +0.000 A 
ATOM      6  C   UNL     1       6.332   6.904  16.966  0.00  0.00    +0.000 A 
ATOM      7  C   UNL     1       5.086   6.631  17.529  0.00  0.00    +0.000 A 
ATOM      8  C   UNL     1       3.814   7.237  16.998  0.00  0.00    +0.000 C 
ATOM      9  C   UNL     1       2.985   7.679  18.203  0.00  0.00    +0.000 C 
ATOM     10  N   UNL     1       2.741   6.662  19.242  0.00  0.00    +0.000 N 
ATOM     11  C   UNL     1       1.850   6.792  20.312  0.00  0.00    +0.000 C 
ATOM     12  O   UNL     1       1.569   5.808  21.005  0.00  0.00    +0.000 OA
ENDROOT
BRANCH  11  13
ATOM     13  C   UNL     1       1.161   8.113  20.614  0.00  0.00    +0.000 A 
ATOM     14  C   UNL     1       1.148   9.176  19.582  0.00  0.00    +0.000 A 
ATOM     15  C   UNL     1       0.571  10.382  19.784  0.00  0.00    +0.000 A 
ATOM     16  C   UNL     1      -0.035  10.676  21.038  0.00  0.00    +0.000 A 
ATOM     17  N   UNL     1      -0.609  11.757  21.525  0.00  0.00    +0.000 NA
ATOM     18  C   UNL     1      -0.999  11.424  22.800  0.00  0.00    +0.000 A 
ATOM     19  C   UNL     1      -0.669  10.122  23.092  0.00  0.00    +0.000 A 
ATOM     20  N   UNL     1      -0.068   9.643  21.957  0.00  0.00    +0.000 N 
ATOM     21  C   UNL     1       0.465   8.385  21.735  0.00  0.00    +0.000 A 
ENDBRANCH  11  13
BRANCH   1  23
ATOM     22  N   UNL     1       1.581   4.319  18.122  0.00  0.00    +0.000 N 
ATOM     23  C   UNL     1       2.944   4.343  18.215  0.00  0.00    +0.000 C 
ATOM     24  O   UNL     1       3.588   3.487  17.613  0.00  0.00    +0.000 OA
ATOM     25  H   UNL     1       1.197   3.531  17.615  0.00  0.00    +0.000 HD
ATOM     26  H   UNL     1       1.041   4.681  18.899  0.00  0.00    +0.000 HD
ENDBRANCH   1  23
TORSDOF 2
ENDMDL
MODEL 4
REMARK VINA RESULT:      -7.4      1.337      1.595
REMARK  Name = 
REMARK  2 active torsions:
REMARK  status: ('A' for Active; 'I' for Inactive)
REMARK    1  A    between atoms: C_2  and  C_4
REMARK    2  A    between atoms: C_14  and  C_16
REMARK                            x       y       z     vdW  Elec       q    Type
REMARK                         _______ _______ _______ _____ _____    ______ ____
ROOT
ATOM      1  C   UNL     1       3.234   5.897  18.084  0.00  0.00    +0.000 C 
ATOM      2  C   UNL     1       2.692   4.495  18.351  0.00  0.00    +0.000 A 
ATOM      3  C   UNL     1       2.540   3.546  17.337  0.00  0.00    +0.000 A 
ATOM      4  C   UNL     1       2.123   2.250  17.657  0.00  0.00    +0.000 A 
ATOM      5  C   UNL     1       1.863   1.897  18.981  0.00  0.00    +0.000 A 
ATOM      6  C   UNL     1       2.001   2.839  19.999  0.00  0.00    +0.000 A 
ATOM      7  C   UNL     1       2.405   4.136  19.684  0.00  0.00    +0.000 A 
ATOM      8  C   UNL     1       2.537   5.212  20.728  0.00  0.00    +0.000 C 
ATOM      9  C   UNL     1       1.928   6.487  20.145  0.00  0.00    +0.000 C 
ATOM     10  N   UNL     1       2.428   6.910  18.824  0.00  0.00    +0.000 N 
ATOM     11  C   UNL     1       2.160   8.137  18.209  0.00  0.00    +0.000 C 
ATOM     12  O   UNL     1       2.791   8.474  17.201  0.00  0.00    +0.000 OA
ENDROOT
BRANCH  11  13
ATOM     13  C   UNL     1       1.144   9.109  18.788  0.00  0.00    +0.000 A 
ATOM     14  C   UNL     1       0.110   9.690  17.902  0.00  0.00    +0.000 A 
ATOM     15  C   UNL     1      -0.815  10.574  18.340  0.00  0.00    +0.000 A 
ATOM     16  C   UNL     1      -0.802  10.995  19.700  0.00  0.00    +0.000 A 
ATOM     17  N   UNL     1      -1.527  11.863  20.376  0.00  0.00    +0.000 NA
ATOM     18  C   UNL     1      -1.034  11.834  21.658  0.00  0.00    +0.000 A 
ATOM     19  C   UNL     1      -0.003  10.931  21.769  0.00  0.00    +0.000 A 
ATOM     20  N   UNL     1       0.130  10.386  20.519  0.00  0.00    +0.000 N 
ATOM     21  C   UNL     1       1.040   9.434  20.091  0.00  0.00    +0.000 A 
ENDBRANCH  11  13
BRANCH   1  23
ATOM     22  N   UNL     1       5.549   6.768  17.710  0.00  0.00    +0.000 N 
ATOM     23  C   UNL     1       4.753   5.944  18.455  0.00  0.00    +0.000 C 
ATOM     24  O   UNL     1       5.275   5.254  19.326  0.00  0.00    +0.000 OA
ATOM     25  H   UNL     1       6.543   6.683  17.888  0.00  0.00    +0.000 HD
ATOM     26  H   UNL     1       5.262   6.984  16.763  0.00  0.00    +0.000 HD
ENDBRANCH   1  23
TORSDOF 2
ENDMDL
MODEL 5
REMARK VINA RESULT:      -7.4      3.406      6.943
REMARK  Name = 
REMARK  2 active torsions:
REMARK  status: ('A' for Active; 'I' for Inactive)
REMARK    1  A    between atoms: C_2  and  C_4
REMARK    2  A    between atoms: C_14  and  C_16
REMARK                            x       y       z     vdW  Elec       q    Type
REMARK                         _______ _______ _______ _____ _____    ______ ____
ROOT
ATOM      1  C   UNL     1       3.423   5.675  19.188  0.00  0.00    +0.000 C 
ATOM      2  C   UNL     1       2.700   4.523  19.880  0.00  0.00    +0.000 A 
ATOM      3  C   UNL     1       2.975   4.150  21.198  0.00  0.00    +0.000 A 
ATOM      4  C   UNL     1       2.218   3.144  21.808  0.00  0.00    +0.000 A 
ATOM      5  C   UNL     1       1.187   2.514  21.110  0.00  0.00    +0.000 A 
ATOM      6  C   UNL     1       0.911   2.871  19.792  0.00  0.00    +0.000 A 
ATOM      7  C   UNL     1       1.671   3.865  19.175  0.00  0.00    +0.000 A 
ATOM      8  C   UNL     1       1.452   4.271  17.743  0.00  0.00    +0.000 C 
ATOM      9  C   UNL     1       2.829   4.419  17.098  0.00  0.00    +0.000 C 
ATOM     10  N   UNL     1       3.793   5.290  17.796  0.00  0.00    +0.000 N 
ATOM     11  C   UNL     1       5.020   5.720  17.282  0.00  0.00    +0.000 C 
ATOM     12  O   UNL     1       5.655   6.608  17.861  0.00  0.00    +0.000 OA
ENDROOT
BRANCH  11  13
ATOM     13  C   UNL     1       5.574   5.161  15.980  0.00  0.00    +0.000 A 
ATOM     14  C   UNL     1       7.011   5.336  15.670  0.00  0.00    +0.000 A 
ATOM     15  C   UNL     1       7.571   4.883  14.526  0.00  0.00    +0.000 A 
ATOM     16  C   UNL     1       6.764   4.228  13.554  0.00  0.00    +0.000 A 
ATOM     17  N   UNL     1       7.019   3.744  12.355  0.00  0.00    +0.000 NA
ATOM     18  C   UNL     1       5.826   3.232  11.903  0.00  0.00    +0.000 A 
ATOM     19  C   UNL     1       4.833   3.397  12.840  0.00  0.00    +0.000 A 
ATOM     20  N   UNL     1       5.441   4.018  13.899  0.00  0.00    +0.000 N 
ATOM     21  C   UNL     1       4.875   4.424  15.096  0.00  0.00    +0.000 A 
ENDBRANCH  11  13
BRANCH   1  23
ATOM     22  N   UNL     1       1.998   7.293  20.458  0.00  0.00    +0.000 N 
ATOM     23  C   UNL     1       2.526   6.956  19.243  0.00  0.00    +0.000 C 
ATOM     24  O   UNL     1       2.226   7.635  18.264  0.00  0.00    +0.000 OA
ATOM     25  H   UNL     1       1.323   8.048  20.440  0.00  0.00    +0.000 HD
ATOM     26  H   UNL     1       1.857   6.558  21.139  0.00  0.00    +0.000 HD
ENDBRANCH   1  23
TORSDOF 2
ENDMDL
MODEL 6
REMARK VINA RESULT:      -7.4      2.180      3.958
REMARK  Name = 
REMARK  2 active torsions:
REMARK  status: ('A' for Active; 'I' for Inactive)
REMARK    1  A    between atoms: C_2  and  C_4
REMARK    2  A    between atoms: C_14  and  C_16
REMARK                            x       y       z     vdW  Elec       q    Type
REMARK                         _______ _______ _______ _____ _____    ______ ____
ROOT
ATOM      1  C   UNL     1       3.570   5.470  19.094  0.00  0.00    +0.000 C 
ATOM      2  C   UNL     1       4.992   5.747  18.613  0.00  0.00    +0.000 A 
ATOM      3  C   UNL     1       6.110   5.147  19.198  0.00  0.00    +0.000 A 
ATOM      4  C   UNL     1       7.380   5.370  18.656  0.00  0.00    +0.000 A 
ATOM      5  C   UNL     1       7.537   6.185  17.536  0.00  0.00    +0.000 A 
ATOM      6  C   UNL     1       6.431   6.797  16.951  0.00  0.00    +0.000 A 
ATOM      7  C   UNL     1       5.163   6.587  17.494  0.00  0.00    +0.000 A 
ATOM      8  C   UNL     1       3.931   7.248  16.937  0.00  0.00    +0.000 C 
ATOM      9  C   UNL     1       3.103   7.737  18.125  0.00  0.00    +0.000 C 
ATOM     10  N   UNL     1       2.793   6.741  19.166  0.00  0.00    +0.000 N 
ATOM     11  C   UNL     1       1.892   6.920  20.220  0.00  0.00    +0.000 C 
ATOM     12  O   UNL     1       1.553   5.955  20.914  0.00  0.00    +0.000 OA
ENDROOT
BRANCH  11  13
ATOM     13  C   UNL     1       1.261   8.275  20.501  0.00  0.00    +0.000 A 
ATOM     14  C   UNL     1       0.978   8.666  21.901  0.00  0.00    +0.000 A 
ATOM     15  C   UNL     1       0.402   9.845  22.227  0.00  0.00    +0.000 A 
ATOM     16  C   UNL     1       0.024  10.756  21.201  0.00  0.00    +0.000 A 
ATOM     17  N   UNL     1      -0.588  11.923  21.219  0.00  0.00    +0.000 NA
ATOM     18  C   UNL     1      -0.673  12.314  19.904  0.00  0.00    +0.000 A 
ATOM     19  C   UNL     1      -0.097  11.380  19.075  0.00  0.00    +0.000 A 
ATOM     20  N   UNL     1       0.361  10.395  19.910  0.00  0.00    +0.000 N 
ATOM     21  C   UNL     1       1.007   9.217  19.573  0.00  0.00    +0.000 A 
ENDBRANCH  11  13
BRANCH   1  23
ATOM     22  N   UNL     1       1.539   4.380  18.121  0.00  0.00    +0.000 N 
ATOM     23  C   UNL     1       2.905   4.408  18.158  0.00  0.00    +0.000 C 
ATOM     24  O   UNL     1       3.526   3.572  17.506  0.00  0.00    +0.000 OA
ATOM     25  H   UNL     1       1.137   3.605  17.608  0.00  0.00    +0.000 HD
ATOM     26  H   UNL     1       1.031   4.718  18.929  0.00  0.00    +0.000 HD
ENDBRANCH   1  23
TORSDOF 2
ENDMDL
MODEL 7
REMARK VINA RESULT:      -7.3      1.282      1.290
REMARK  Name = 
REMARK  2 active torsions:
REMARK  status: ('A' for Active; 'I' for Inactive)
REMARK    1  A    between atoms: C_2  and  C_4
REMARK    2  A    between atoms: C_14  and  C_16
REMARK                            x       y       z     vdW  Elec       q    Type
REMARK                         _______ _______ _______ _____ _____    ______ ____
ROOT
ATOM      1  C   UNL     1       2.652   6.137  18.216  0.00  0.00    +0.000 C 
ATOM      2  C   UNL     1       1.967   4.869  18.722  0.00  0.00    +0.000 A 
ATOM      3  C   UNL     1       1.426   3.915  17.856  0.00  0.00    +0.000 A 
ATOM      4  C   UNL     1       0.891   2.732  18.375  0.00  0.00    +0.000 A 
ATOM      5  C   UNL     1       0.897   2.497  19.750  0.00  0.00    +0.000 A 
ATOM      6  C   UNL     1       1.424   3.446  20.623  0.00  0.00    +0.000 A 
ATOM      7  C   UNL     1       1.948   4.633  20.112  0.00  0.00    +0.000 A 
ATOM      8  C   UNL     1       2.498   5.717  21.000  0.00  0.00    +0.000 C 
ATOM      9  C   UNL     1       1.985   7.050  20.457  0.00  0.00    +0.000 C 
ATOM     10  N   UNL     1       2.221   7.313  19.026  0.00  0.00    +0.000 N 
ATOM     11  C   UNL     1       2.020   8.537  18.380  0.00  0.00    +0.000 C 
ATOM     12  O   UNL     1       2.441   8.705  17.230  0.00  0.00    +0.000 OA
ENDROOT
BRANCH  11  13
ATOM     13  C   UNL     1       1.342   9.702  19.084  0.00  0.00    +0.000 A 
ATOM     14  C   UNL     1       1.466  11.063  18.515  0.00  0.00    +0.000 A 
ATOM     15  C   UNL     1       0.907  12.150  19.094  0.00  0.00    +0.000 A 
ATOM     16  C   UNL     1       0.184  12.010  20.311  0.00  0.00    +0.000 A 
ATOM     17  N   UNL     1      -0.406  12.878  21.109  0.00  0.00    +0.000 NA
ATOM     18  C   UNL     1      -0.935  12.133  22.135  0.00  0.00    +0.000 A 
ATOM     19  C   UNL     1      -0.674  10.795  21.958  0.00  0.00    +0.000 A 
ATOM     20  N   UNL     1       0.026  10.720  20.783  0.00  0.00    +0.000 N 
ATOM     21  C   UNL     1       0.543   9.595  20.163  0.00  0.00    +0.000 A 
ENDBRANCH  11  13
BRANCH   1  23
ATOM     22  N   UNL     1       4.950   6.767  17.454  0.00  0.00    +0.000 N 
ATOM     23  C   UNL     1       4.202   5.928  18.232  0.00  0.00    +0.000 C 
ATOM     24  O   UNL     1       4.776   5.033  18.848  0.00  0.00    +0.000 OA
ATOM     25  H   UNL     1       5.933   6.529  17.384  0.00  0.00    +0.000 HD
ATOM     26  H   UNL     1       4.513   7.183  16.641  0.00  0.00    +0.000 HD
ENDBRANCH   1  23
TORSDOF 2
ENDMDL
MODEL 8
REMARK VINA RESULT:      -7.0      3.344      5.534
REMARK  Name = 
REMARK  2 active torsions:
REMARK  status: ('A' for Active; 'I' for Inactive)
REMARK    1  A    between atoms: C_2  and  C_4
REMARK    2  A    between atoms: C_14  and  C_16
REMARK                            x       y       z     vdW  Elec       q    Type
REMARK                         _______ _______ _______ _____ _____    ______ ____
ROOT
ATOM      1  C   UNL     1       0.702  10.935  18.426  0.00  0.00    +0.000 C 
ATOM      2  C   UNL     1       1.223   9.540  18.760  0.00  0.00    +0.000 A 
ATOM      3  C   UNL     1       1.747   8.685  17.788  0.00  0.00    +0.000 A 
ATOM      4  C   UNL     1       2.292   7.454  18.167  0.00  0.00    +0.000 A 
ATOM      5  C   UNL     1       2.317   7.075  19.509  0.00  0.00    +0.000 A 
ATOM      6  C   UNL     1       1.787   7.916  20.486  0.00  0.00    +0.000 A 
ATOM      7  C   UNL     1       1.233   9.140  20.112  0.00  0.00    +0.000 A 
ATOM      8  C   UNL     1       0.609  10.078  21.110  0.00  0.00    +0.000 C 
ATOM      9  C   UNL     1      -0.686  10.602  20.491  0.00  0.00    +0.000 C 
ATOM     10  N   UNL     1      -0.580  11.192  19.144  0.00  0.00    +0.000 N 
ATOM     11  C   UNL     1      -1.588  11.905  18.488  0.00  0.00    +0.000 C 
ATOM     12  O   UNL     1      -1.329  12.531  17.453  0.00  0.00    +0.000 OA
ENDROOT
BRANCH  11  13
ATOM     13  C   UNL     1      -2.998  11.984  19.051  0.00  0.00    +0.000 A 
ATOM     14  C   UNL     1      -3.241  12.759  20.289  0.00  0.00    +0.000 A 
ATOM     15  C   UNL     1      -4.464  12.859  20.859  0.00  0.00    +0.000 A 
ATOM     16  C   UNL     1      -5.573  12.185  20.276  0.00  0.00    +0.000 A 
ATOM     17  N   UNL     1      -6.836  12.062  20.633  0.00  0.00    +0.000 NA
ATOM     18  C   UNL     1      -7.418  11.283  19.663  0.00  0.00    +0.000 A 
ATOM     19  C   UNL     1      -6.504  10.934  18.697  0.00  0.00    +0.000 A 
ATOM     20  N   UNL     1      -5.331  11.527  19.085  0.00  0.00    +0.000 N 
ATOM     21  C   UNL     1      -4.095  11.471  18.463  0.00  0.00    +0.000 A 
ENDBRANCH  11  13
BRANCH   1  23
ATOM     22  N   UNL     1       2.744  12.238  17.800  0.00  0.00    +0.000 N 
ATOM     23  C   UNL     1       1.805  11.993  18.762  0.00  0.00    +0.000 C 
ATOM     24  O   UNL     1       1.909  12.567  19.843  0.00  0.00    +0.000 OA
ATOM     25  H   UNL     1       3.515  12.829  18.090  0.00  0.00    +0.000 HD
ATOM     26  H   UNL     1       2.945  11.507  17.129  0.00  0.00    +0.000 HD
ENDBRANCH   1  23
TORSDOF 2
ENDMDL
MODEL 9
REMARK VINA RESULT:      -6.9      2.783      7.733
REMARK  Name = 
REMARK  2 active torsions:
REMARK  status: ('A' for Active; 'I' for Inactive)
REMARK    1  A    between atoms: C_2  and  C_4
REMARK    2  A    between atoms: C_14  and  C_16
REMARK                            x       y       z     vdW  Elec       q    Type
REMARK                         _______ _______ _______ _____ _____    ______ ____
ROOT
ATOM      1  C   UNL     1      -1.123  12.343  19.893  0.00  0.00    +0.000 C 
ATOM      2  C   UNL     1      -2.629  12.224  19.674  0.00  0.00    +0.000 A 
ATOM      3  C   UNL     1      -3.559  12.672  20.616  0.00  0.00    +0.000 A 
ATOM      4  C   UNL     1      -4.925  12.618  20.321  0.00  0.00    +0.000 A 
ATOM      5  C   UNL     1      -5.365  12.124  19.094  0.00  0.00    +0.000 A 
ATOM      6  C   UNL     1      -4.447  11.664  18.152  0.00  0.00    +0.000 A 
ATOM      7  C   UNL     1      -3.084  11.705  18.445  0.00  0.00    +0.000 A 
ATOM      8  C   UNL     1      -2.041  11.189  17.490  0.00  0.00    +0.000 C 
ATOM      9  C   UNL     1      -1.027  10.395  18.312  0.00  0.00    +0.000 C 
ATOM     10  N   UNL     1      -0.441  11.083  19.477  0.00  0.00    +0.000 N 
ATOM     11  C   UNL     1       0.641  10.622  20.234  0.00  0.00    +0.000 C 
ATOM     12  O   UNL     1       1.182  11.368  21.057  0.00  0.00    +0.000 OA
ENDROOT
BRANCH  11  13
ATOM     13  C   UNL     1       1.217   9.230  20.026  0.00  0.00    +0.000 A 
ATOM     14  C   UNL     1       0.972   8.185  21.047  0.00  0.00    +0.000 A 
ATOM     15  C   UNL     1       1.467   6.931  20.941  0.00  0.00    +0.000 A 
ATOM     16  C   UNL     1       2.276   6.582  19.823  0.00  0.00    +0.000 A 
ATOM     17  N   UNL     1       2.921   5.481  19.493  0.00  0.00    +0.000 NA
ATOM     18  C   UNL     1       3.530   5.759  18.292  0.00  0.00    +0.000 A 
ATOM     19  C   UNL     1       3.245   7.039  17.880  0.00  0.00    +0.000 A 
ATOM     20  N   UNL     1       2.430   7.555  18.854  0.00  0.00    +0.000 N 
ATOM     21  C   UNL     1       1.876   8.822  18.925  0.00  0.00    +0.000 A 
ENDBRANCH  11  13
BRANCH   1  23
ATOM     22  N   UNL     1      -1.194  14.794  19.399  0.00  0.00    +0.000 N 
ATOM     23  C   UNL     1      -0.587  13.599  19.130  0.00  0.00    +0.000 C 
ATOM     24  O   UNL     1       0.294  13.568  18.275  0.00  0.00    +0.000 OA
ATOM     25  H   UNL     1      -0.915  15.564  18.801  0.00  0.00    +0.000 HD
ATOM     26  H   UNL     1      -2.152  14.783  19.726  0.00  0.00    +0.000 HD
ENDBRANCH   1  23
TORSDOF 2
ENDMDL
