MODEL 1
REMARK VINA RESULT:      -7.9      0.000      0.000
REMARK  Name = 
REMARK  5 active torsions:
REMARK  status: ('A' for Active; 'I' for Inactive)
REMARK    1  A    between atoms: C_1  and  N_2
REMARK    2  A    between atoms: C_3  and  C_4
REMARK    3  A    between atoms: N_6  and  C_7
REMARK    4  A    between atoms: C_7  and  C_8
REMARK    5  A    between atoms: C_19  and  C_20
REMARK                            x       y       z     vdW  Elec       q    Type
REMARK                         _______ _______ _______ _____ _____    ______ ____
ROOT
ATOM      1  C   UNL     1       1.760   6.676  20.752  0.00  0.00    +0.000 C 
ATOM      2  N   UNL     1       1.881   7.588  19.632  0.00  0.00    +0.000 N 
ATOM      3  C   UNL     1       2.428   7.320  18.386  0.00  0.00    +0.000 A 
ATOM      4  C   UNL     1       2.339   8.505  17.665  0.00  0.00    +0.000 A 
ATOM      5  C   UNL     1       1.742   9.496  18.480  0.00  0.00    +0.000 A 
ATOM      6  C   UNL     1       1.448  10.859  18.288  0.00  0.00    +0.000 A 
ATOM      7  C   UNL     1       0.839  11.597  19.318  0.00  0.00    +0.000 A 
ATOM      8  C   UNL     1       0.510  10.958  20.521  0.00  0.00    +0.000 A 
ATOM      9  C   UNL     1       0.798   9.604  20.731  0.00  0.00    +0.000 A 
ATOM     10  C   UNL     1       1.432   8.897  19.696  0.00  0.00    +0.000 A 
ENDROOT
BRANCH   3  11
ATOM     11  C   UNL     1       3.030   6.067  17.963  0.00  0.00    +0.000 C 
ATOM     12  O   UNL     1       2.370   5.065  17.706  0.00  0.00    +0.000 OA
ATOM     13  N   UNL     1       4.408   6.083  17.884  0.00  0.00    +0.000 N 
ATOM     14  H   UNL     1       4.877   6.969  18.035  0.00  0.00    +0.000 HD
BRANCH  13  15
ATOM     15  C   UNL     1       5.262   4.919  17.564  0.00  0.00    +0.000 C 
ATOM     16  C   UNL     1       6.802   5.161  17.576  0.00  0.00    +0.000 C 
ATOM     17  C   UNL     1       6.915   4.425  16.231  0.00  0.00    +0.000 C 
ATOM     18  C   UNL     1       5.402   4.596  16.044  0.00  0.00    +0.000 C 
BRANCH  15  19
ATOM     19  C   UNL     1       4.852   3.695  18.407  0.00  0.00    +0.000 A 
ATOM     20  N   UNL     1       5.214   3.498  19.657  0.00  0.00    +0.000 NA
ATOM     21  N   UNL     1       4.695   2.289  20.063  0.00  0.00    +0.000 NA
ATOM     22  C   UNL     1       4.031   1.778  19.053  0.00  0.00    +0.000 A 
ATOM     23  N   UNL     1       4.089   2.632  17.997  0.00  0.00    +0.000 N 
ATOM     24  H   UNL     1       3.672   2.495  17.089  0.00  0.00    +0.000 HD
ENDBRANCH  15  19
ENDBRANCH  13  15
ENDBRANCH   3  11
BRANCH   7  25
ATOM     25  C   UNL     1       0.546  13.064  19.140  0.00  0.00    +0.000 C 
ATOM     26  F   UNL     1      -0.440  13.321  18.235  0.00  0.00    +0.000 F 
ATOM     27  F   UNL     1       0.152  13.663  20.298  0.00  0.00    +0.000 F 
ATOM     28  F   UNL     1       1.635  13.763  18.710  0.00  0.00    +0.000 F 
ENDBRANCH   7  25
TORSDOF 4
ENDMDL
MODEL 2
REMARK VINA RESULT:      -7.9      2.214      3.237
REMARK  Name = 
REMARK  5 active torsions:
REMARK  status: ('A' for Active; 'I' for Inactive)
REMARK    1  A    between atoms: C_1  and  N_2
REMARK    2  A    between atoms: C_3  and  C_4
REMARK    3  A    between atoms: N_6  and  C_7
REMARK    4  A    between atoms: C_7  and  C_8
REMARK    5  A    between atoms: C_19  and  C_20
REMARK                            x       y       z     vdW  Elec       q    Type
REMARK                         _______ _______ _______ _____ _____    ______ ____
ROOT
ATOM      1  C   UNL     1       2.084   8.805  17.615  0.00  0.00    +0.000 C 
ATOM      2  N   UNL     1       1.751   8.571  19.006  0.00  0.00    +0.000 N 
ATOM      3  C   UNL     1       2.120   7.487  19.788  0.00  0.00    +0.000 A 
ATOM      4  C   UNL     1       1.547   7.700  21.035  0.00  0.00    +0.000 A 
ATOM      5  C   UNL     1       0.821   8.915  21.008  0.00  0.00    +0.000 A 
ATOM      6  C   UNL     1       0.027   9.590  21.953  0.00  0.00    +0.000 A 
ATOM      7  C   UNL     1      -0.582  10.811  21.613  0.00  0.00    +0.000 A 
ATOM      8  C   UNL     1      -0.372  11.354  20.339  0.00  0.00    +0.000 A 
ATOM      9  C   UNL     1       0.411  10.695  19.384  0.00  0.00    +0.000 A 
ATOM     10  C   UNL     1       0.985   9.463  19.740  0.00  0.00    +0.000 A 
ENDROOT
BRANCH   3  11
ATOM     11  C   UNL     1       2.894   6.336  19.352  0.00  0.00    +0.000 C 
ATOM     12  O   UNL     1       2.803   5.234  19.884  0.00  0.00    +0.000 OA
ATOM     13  N   UNL     1       3.755   6.581  18.303  0.00  0.00    +0.000 N 
ATOM     14  H   UNL     1       3.717   7.495  17.866  0.00  0.00    +0.000 HD
BRANCH  13  15
ATOM     15  C   UNL     1       4.712   5.607  17.732  0.00  0.00    +0.000 C 
ATOM     16  C   UNL     1       4.925   5.661  16.189  0.00  0.00    +0.000 C 
ATOM     17  C   UNL     1       4.779   4.132  16.128  0.00  0.00    +0.000 C 
ATOM     18  C   UNL     1       4.150   4.167  17.528  0.00  0.00    +0.000 C 
BRANCH  15  19
ATOM     19  C   UNL     1       6.042   5.632  18.512  0.00  0.00    +0.000 A 
ATOM     20  N   UNL     1       6.227   5.062  19.685  0.00  0.00    +0.000 NA
ATOM     21  N   UNL     1       7.518   5.327  20.084  0.00  0.00    +0.000 NA
ATOM     22  C   UNL     1       8.088   6.049  19.149  0.00  0.00    +0.000 A 
ATOM     23  N   UNL     1       7.205   6.253  18.135  0.00  0.00    +0.000 N 
ATOM     24  H   UNL     1       7.370   6.777  17.289  0.00  0.00    +0.000 HD
ENDBRANCH  15  19
ENDBRANCH  13  15
ENDBRANCH   3  11
BRANCH   7  25
ATOM     25  C   UNL     1      -1.461  11.531  22.603  0.00  0.00    +0.000 C 
ATOM     26  F   UNL     1      -1.904  10.739  23.620  0.00  0.00    +0.000 F 
ATOM     27  F   UNL     1      -0.827  12.580  23.199  0.00  0.00    +0.000 F 
ATOM     28  F   UNL     1      -2.580  12.051  22.024  0.00  0.00    +0.000 F 
ENDBRANCH   7  25
TORSDOF 4
ENDMDL
MODEL 3
REMARK VINA RESULT:      -7.9      2.140      3.420
REMARK  Name = 
REMARK  5 active torsions:
REMARK  status: ('A' for Active; 'I' for Inactive)
REMARK    1  A    between atoms: C_1  and  N_2
REMARK    2  A    between atoms: C_3  and  C_4
REMARK    3  A    between atoms: N_6  and  C_7
REMARK    4  A    between atoms: C_7  and  C_8
REMARK    5  A    between atoms: C_19  and  C_20
REMARK                            x       y       z     vdW  Elec       q    Type
REMARK                         _______ _______ _______ _____ _____    ______ ____
ROOT
ATOM      1  C   UNL     1       2.128   9.208  17.410  0.00  0.00    +0.000 C 
ATOM      2  N   UNL     1       1.807   8.810  18.767  0.00  0.00    +0.000 N 
ATOM      3  C   UNL     1       2.187   7.643  19.412  0.00  0.00    +0.000 A 
ATOM      4  C   UNL     1       1.624   7.705  20.681  0.00  0.00    +0.000 A 
ATOM      5  C   UNL     1       0.894   8.911  20.803  0.00  0.00    +0.000 A 
ATOM      6  C   UNL     1       0.105   9.467  21.827  0.00  0.00    +0.000 A 
ATOM      7  C   UNL     1      -0.511  10.717  21.638  0.00  0.00    +0.000 A 
ATOM      8  C   UNL     1      -0.314  11.406  20.435  0.00  0.00    +0.000 A 
ATOM      9  C   UNL     1       0.464  10.868  19.404  0.00  0.00    +0.000 A 
ATOM     10  C   UNL     1       1.045   9.606  19.607  0.00  0.00    +0.000 A 
ENDROOT
BRANCH   3  11
ATOM     11  C   UNL     1       2.962   6.555  18.838  0.00  0.00    +0.000 C 
ATOM     12  O   UNL     1       3.499   6.630  17.737  0.00  0.00    +0.000 OA
ATOM     13  N   UNL     1       3.035   5.421  19.620  0.00  0.00    +0.000 N 
ATOM     14  H   UNL     1       2.632   5.463  20.549  0.00  0.00    +0.000 HD
BRANCH  13  15
ATOM     15  C   UNL     1       3.685   4.151  19.229  0.00  0.00    +0.000 C 
ATOM     16  C   UNL     1       2.938   3.280  18.174  0.00  0.00    +0.000 C 
ATOM     17  C   UNL     1       3.170   2.040  19.051  0.00  0.00    +0.000 C 
ATOM     18  C   UNL     1       3.490   2.970  20.230  0.00  0.00    +0.000 C 
BRANCH  15  19
ATOM     19  C   UNL     1       5.162   4.388  18.857  0.00  0.00    +0.000 A 
ATOM     20  N   UNL     1       6.076   4.840  19.690  0.00  0.00    +0.000 NA
ATOM     21  N   UNL     1       7.259   4.961  18.996  0.00  0.00    +0.000 NA
ATOM     22  C   UNL     1       7.040   4.582  17.760  0.00  0.00    +0.000 A 
ATOM     23  N   UNL     1       5.742   4.199  17.629  0.00  0.00    +0.000 N 
ATOM     24  H   UNL     1       5.295   3.866  16.788  0.00  0.00    +0.000 HD
ENDBRANCH  15  19
ENDBRANCH  13  15
ENDBRANCH   3  11
BRANCH   7  25
ATOM     25  C   UNL     1      -1.384  11.311  22.713  0.00  0.00    +0.000 C 
ATOM     26  F   UNL     1      -0.822  12.378  23.349  0.00  0.00    +0.000 F 
ATOM     27  F   UNL     1      -2.579  11.753  22.232  0.00  0.00    +0.000 F 
ATOM     28  F   UNL     1      -1.686  10.413  23.694  0.00  0.00    +0.000 F 
ENDBRANCH   7  25
TORSDOF 4
ENDMDL
MODEL 4
REMARK VINA RESULT:      -7.8      4.955      8.640
REMARK  Name = 
REMARK  5 active torsions:
REMARK  status: ('A' for Active; 'I' for Inactive)
REMARK    1  A    between atoms: C_1  and  N_2
REMARK    2  A    between atoms: C_3  and  C_4
REMARK    3  A    between atoms: N_6  and  C_7
REMARK    4  A    between atoms: C_7  and  C_8
REMARK    5  A    between atoms: C_19  and  C_20
REMARK                            x       y       z     vdW  Elec       q    Type
REMARK                         _______ _______ _______ _____ _____    ______ ____
ROOT
ATOM      1  C   UNL     1       0.945   8.262  21.208  0.00  0.00    +0.000 C 
ATOM      2  N   UNL     1       1.601   8.193  19.917  0.00  0.00    +0.000 N 
ATOM      3  C   UNL     1       1.622   9.169  18.932  0.00  0.00    +0.000 A 
ATOM      4  C   UNL     1       2.353   8.635  17.878  0.00  0.00    +0.000 A 
ATOM      5  C   UNL     1       2.771   7.327  18.223  0.00  0.00    +0.000 A 
ATOM      6  C   UNL     1       3.487   6.328  17.539  0.00  0.00    +0.000 A 
ATOM      7  C   UNL     1       3.747   5.097  18.167  0.00  0.00    +0.000 A 
ATOM      8  C   UNL     1       3.306   4.888  19.480  0.00  0.00    +0.000 A 
ATOM      9  C   UNL     1       2.589   5.868  20.175  0.00  0.00    +0.000 A 
ATOM     10  C   UNL     1       2.319   7.078  19.515  0.00  0.00    +0.000 A 
ENDROOT
BRANCH   3  11
ATOM     11  C   UNL     1       0.952  10.458  18.984  0.00  0.00    +0.000 C 
ATOM     12  O   UNL     1       1.494  11.473  19.409  0.00  0.00    +0.000 OA
ATOM     13  N   UNL     1      -0.352  10.451  18.531  0.00  0.00    +0.000 N 
ATOM     14  H   UNL     1      -0.704   9.593  18.123  0.00  0.00    +0.000 HD
BRANCH  13  15
ATOM     15  C   UNL     1      -1.276  11.606  18.560  0.00  0.00    +0.000 C 
ATOM     16  C   UNL     1      -0.625  13.021  18.485  0.00  0.00    +0.000 C 
ATOM     17  C   UNL     1      -1.517  13.478  19.651  0.00  0.00    +0.000 C 
ATOM     18  C   UNL     1      -1.798  12.004  19.974  0.00  0.00    +0.000 C 
BRANCH  15  19
ATOM     19  C   UNL     1      -2.406  11.423  17.527  0.00  0.00    +0.000 A 
ATOM     20  N   UNL     1      -3.687  11.369  17.829  0.00  0.00    +0.000 NA
ATOM     21  N   UNL     1      -4.388  11.159  16.663  0.00  0.00    +0.000 NA
ATOM     22  C   UNL     1      -3.522  11.091  15.680  0.00  0.00    +0.000 A 
ATOM     23  N   UNL     1      -2.266  11.266  16.173  0.00  0.00    +0.000 N 
ATOM     24  H   UNL     1      -1.406  11.257  15.645  0.00  0.00    +0.000 HD
ENDBRANCH  15  19
ENDBRANCH  13  15
ENDBRANCH   3  11
BRANCH   7  25
ATOM     25  C   UNL     1       4.485   4.005  17.437  0.00  0.00    +0.000 C 
ATOM     26  F   UNL     1       4.291   4.018  16.088  0.00  0.00    +0.000 F 
ATOM     27  F   UNL     1       5.833   4.073  17.618  0.00  0.00    +0.000 F 
ATOM     28  F   UNL     1       4.116   2.760  17.852  0.00  0.00    +0.000 F 
ENDBRANCH   7  25
TORSDOF 4
ENDMDL
MODEL 5
REMARK VINA RESULT:      -7.8      1.356      2.255
REMARK  Name = 
REMARK  5 active torsions:
REMARK  status: ('A' for Active; 'I' for Inactive)
REMARK    1  A    between atoms: C_1  and  N_2
REMARK    2  A    between atoms: C_3  and  C_4
REMARK    3  A    between atoms: N_6  and  C_7
REMARK    4  A    between atoms: C_7  and  C_8
REMARK    5  A    between atoms: C_19  and  C_20
REMARK                            x       y       z     vdW  Elec       q    Type
REMARK                         _______ _______ _______ _____ _____    ______ ____
ROOT
ATOM      1  C   UNL     1       1.903   6.776  20.750  0.00  0.00    +0.000 C 
ATOM      2  N   UNL     1       1.882   7.719  19.649  0.00  0.00    +0.000 N 
ATOM      3  C   UNL     1       2.543   7.609  18.436  0.00  0.00    +0.000 A 
ATOM      4  C   UNL     1       2.234   8.762  17.724  0.00  0.00    +0.000 A 
ATOM      5  C   UNL     1       1.387   9.577  18.512  0.00  0.00    +0.000 A 
ATOM      6  C   UNL     1       0.810  10.846  18.318  0.00  0.00    +0.000 A 
ATOM      7  C   UNL     1      -0.004  11.406  19.318  0.00  0.00    +0.000 A 
ATOM      8  C   UNL     1      -0.249  10.682  20.492  0.00  0.00    +0.000 A 
ATOM      9  C   UNL     1       0.319   9.420  20.704  0.00  0.00    +0.000 A 
ATOM     10  C   UNL     1       1.151   8.896  19.701  0.00  0.00    +0.000 A 
ENDROOT
BRANCH   3  11
ATOM     11  C   UNL     1       3.430   6.530  18.034  0.00  0.00    +0.000 C 
ATOM     12  O   UNL     1       4.250   6.645  17.129  0.00  0.00    +0.000 OA
ATOM     13  N   UNL     1       3.271   5.356  18.741  0.00  0.00    +0.000 N 
ATOM     14  H   UNL     1       2.629   5.362  19.526  0.00  0.00    +0.000 HD
BRANCH  13  15
ATOM     15  C   UNL     1       3.985   4.089  18.472  0.00  0.00    +0.000 C 
ATOM     16  C   UNL     1       3.425   3.203  17.318  0.00  0.00    +0.000 C 
ATOM     17  C   UNL     1       3.523   1.972  18.233  0.00  0.00    +0.000 C 
ATOM     18  C   UNL     1       3.640   2.914  19.438  0.00  0.00    +0.000 C 
BRANCH  15  19
ATOM     19  C   UNL     1       5.501   4.337  18.340  0.00  0.00    +0.000 A 
ATOM     20  N   UNL     1       6.279   4.733  19.327  0.00  0.00    +0.000 NA
ATOM     21  N   UNL     1       7.553   4.886  18.827  0.00  0.00    +0.000 NA
ATOM     22  C   UNL     1       7.523   4.582  17.551  0.00  0.00    +0.000 A 
ATOM     23  N   UNL     1       6.259   4.217  17.204  0.00  0.00    +0.000 N 
ATOM     24  H   UNL     1       5.944   3.937  16.287  0.00  0.00    +0.000 HD
ENDBRANCH  15  19
ENDBRANCH  13  15
ENDBRANCH   3  11
BRANCH   7  25
ATOM     25  C   UNL     1      -0.604  12.777  19.139  0.00  0.00    +0.000 C 
ATOM     26  F   UNL     1      -1.849  12.906  19.679  0.00  0.00    +0.000 F 
ATOM     27  F   UNL     1       0.152  13.757  19.710  0.00  0.00    +0.000 F 
ATOM     28  F   UNL     1      -0.732  13.121  17.827  0.00  0.00    +0.000 F 
ENDBRANCH   7  25
TORSDOF 4
ENDMDL
MODEL 6
REMARK VINA RESULT:      -7.7      1.901      2.737
REMARK  Name = 
REMARK  5 active torsions:
REMARK  status: ('A' for Active; 'I' for Inactive)
REMARK    1  A    between atoms: C_1  and  N_2
REMARK    2  A    between atoms: C_3  and  C_4
REMARK    3  A    between atoms: N_6  and  C_7
REMARK    4  A    between atoms: C_7  and  C_8
REMARK    5  A    between atoms: C_19  and  C_20
REMARK                            x       y       z     vdW  Elec       q    Type
REMARK                         _______ _______ _______ _____ _____    ______ ____
ROOT
ATOM      1  C   UNL     1       2.206   8.616  17.692  0.00  0.00    +0.000 C 
ATOM      2  N   UNL     1       1.825   8.425  19.077  0.00  0.00    +0.000 N 
ATOM      3  C   UNL     1       2.140   7.351  19.895  0.00  0.00    +0.000 A 
ATOM      4  C   UNL     1       1.537   7.609  21.119  0.00  0.00    +0.000 A 
ATOM      5  C   UNL     1       0.847   8.843  21.041  0.00  0.00    +0.000 A 
ATOM      6  C   UNL     1       0.044   9.562  21.946  0.00  0.00    +0.000 A 
ATOM      7  C   UNL     1      -0.520  10.791  21.559  0.00  0.00    +0.000 A 
ATOM      8  C   UNL     1      -0.257  11.296  20.280  0.00  0.00    +0.000 A 
ATOM      9  C   UNL     1       0.535  10.593  19.365  0.00  0.00    +0.000 A 
ATOM     10  C   UNL     1       1.064   9.355  19.767  0.00  0.00    +0.000 A 
ENDROOT
BRANCH   3  11
ATOM     11  C   UNL     1       2.894   6.169  19.510  0.00  0.00    +0.000 C 
ATOM     12  O   UNL     1       2.970   5.169  20.217  0.00  0.00    +0.000 OA
ATOM     13  N   UNL     1       3.536   6.262  18.292  0.00  0.00    +0.000 N 
ATOM     14  H   UNL     1       3.362   7.089  17.731  0.00  0.00    +0.000 HD
BRANCH  13  15
ATOM     15  C   UNL     1       4.433   5.238  17.714  0.00  0.00    +0.000 C 
ATOM     16  C   UNL     1       5.900   5.220  18.241  0.00  0.00    +0.000 C 
ATOM     17  C   UNL     1       6.406   5.128  16.792  0.00  0.00    +0.000 C 
ATOM     18  C   UNL     1       5.021   5.586  16.312  0.00  0.00    +0.000 C 
BRANCH  15  19
ATOM     19  C   UNL     1       3.773   3.846  17.764  0.00  0.00    +0.000 A 
ATOM     20  N   UNL     1       2.667   3.524  17.126  0.00  0.00    +0.000 NA
ATOM     21  N   UNL     1       2.362   2.218  17.439  0.00  0.00    +0.000 NA
ATOM     22  C   UNL     1       3.286   1.775  18.259  0.00  0.00    +0.000 A 
ATOM     23  N   UNL     1       4.200   2.757  18.480  0.00  0.00    +0.000 N 
ATOM     24  H   UNL     1       5.015   2.698  19.072  0.00  0.00    +0.000 HD
ENDBRANCH  15  19
ENDBRANCH  13  15
ENDBRANCH   3  11
BRANCH   7  25
ATOM     25  C   UNL     1      -1.407  11.558  22.505  0.00  0.00    +0.000 C 
ATOM     26  F   UNL     1      -2.527  12.065  21.918  0.00  0.00    +0.000 F 
ATOM     27  F   UNL     1      -1.845  10.796  23.546  0.00  0.00    +0.000 F 
ATOM     28  F   UNL     1      -0.769  12.624  23.067  0.00  0.00    +0.000 F 
ENDBRANCH   7  25
TORSDOF 4
ENDMDL
MODEL 7
REMARK VINA RESULT:      -7.6      1.762      2.509
REMARK  Name = 
REMARK  5 active torsions:
REMARK  status: ('A' for Active; 'I' for Inactive)
REMARK    1  A    between atoms: C_1  and  N_2
REMARK    2  A    between atoms: C_3  and  C_4
REMARK    3  A    between atoms: N_6  and  C_7
REMARK    4  A    between atoms: C_7  and  C_8
REMARK    5  A    between atoms: C_19  and  C_20
REMARK                            x       y       z     vdW  Elec       q    Type
REMARK                         _______ _______ _______ _____ _____    ______ ____
ROOT
ATOM      1  C   UNL     1       2.398   8.800  17.384  0.00  0.00    +0.000 C 
ATOM      2  N   UNL     1       1.996   8.399  18.718  0.00  0.00    +0.000 N 
ATOM      3  C   UNL     1       2.244   7.186  19.342  0.00  0.00    +0.000 A 
ATOM      4  C   UNL     1       1.647   7.268  20.593  0.00  0.00    +0.000 A 
ATOM      5  C   UNL     1       1.028   8.533  20.727  0.00  0.00    +0.000 A 
ATOM      6  C   UNL     1       0.260   9.134  21.742  0.00  0.00    +0.000 A 
ATOM      7  C   UNL     1      -0.231  10.440  21.570  0.00  0.00    +0.000 A 
ATOM      8  C   UNL     1       0.069  11.139  20.393  0.00  0.00    +0.000 A 
ATOM      9  C   UNL     1       0.828  10.557  19.371  0.00  0.00    +0.000 A 
ATOM     10  C   UNL     1       1.283   9.242  19.557  0.00  0.00    +0.000 A 
ENDROOT
BRANCH   3  11
ATOM     11  C   UNL     1       2.934   6.046  18.761  0.00  0.00    +0.000 C 
ATOM     12  O   UNL     1       2.341   5.090  18.269  0.00  0.00    +0.000 OA
ATOM     13  N   UNL     1       4.311   6.110  18.818  0.00  0.00    +0.000 N 
ATOM     14  H   UNL     1       4.727   6.966  19.168  0.00  0.00    +0.000 HD
BRANCH  13  15
ATOM     15  C   UNL     1       5.239   5.045  18.378  0.00  0.00    +0.000 C 
ATOM     16  C   UNL     1       6.739   5.228  18.759  0.00  0.00    +0.000 C 
ATOM     17  C   UNL     1       7.135   4.868  17.318  0.00  0.00    +0.000 C 
ATOM     18  C   UNL     1       5.686   5.129  16.886  0.00  0.00    +0.000 C 
BRANCH  15  19
ATOM     19  C   UNL     1       4.697   3.656  18.770  0.00  0.00    +0.000 A 
ATOM     20  N   UNL     1       4.804   3.128  19.971  0.00  0.00    +0.000 NA
ATOM     21  N   UNL     1       4.243   1.870  19.932  0.00  0.00    +0.000 NA
ATOM     22  C   UNL     1       3.808   1.662  18.712  0.00  0.00    +0.000 A 
ATOM     23  N   UNL     1       4.057   2.761  17.951  0.00  0.00    +0.000 N 
ATOM     24  H   UNL     1       3.835   2.880  16.974  0.00  0.00    +0.000 HD
ENDBRANCH  15  19
ENDBRANCH  13  15
ENDBRANCH   3  11
BRANCH   7  25
ATOM     25  C   UNL     1      -1.080  11.086  22.634  0.00  0.00    +0.000 C 
ATOM     26  F   UNL     1      -2.311  11.473  22.194  0.00  0.00    +0.000 F 
ATOM     27  F   UNL     1      -1.308  10.260  23.693  0.00  0.00    +0.000 F 
ATOM     28  F   UNL     1      -0.503  12.207  23.152  0.00  0.00    +0.000 F 
ENDBRANCH   7  25
TORSDOF 4
ENDMDL
MODEL 8
REMARK VINA RESULT:      -7.6      1.900      2.660
REMARK  Name = 
REMARK  5 active torsions:
REMARK  status: ('A' for Active; 'I' for Inactive)
REMARK    1  A    between atoms: C_1  and  N_2
REMARK    2  A    between atoms: C_3  and  C_4
REMARK    3  A    between atoms: N_6  and  C_7
REMARK    4  A    between atoms: C_7  and  C_8
REMARK    5  A    between atoms: C_19  and  C_20
REMARK                            x       y       z     vdW  Elec       q    Type
REMARK                         _______ _______ _______ _____ _____    ______ ____
ROOT
ATOM      1  C   UNL     1       2.047   6.745  20.752  0.00  0.00    +0.000 C 
ATOM      2  N   UNL     1       2.023   7.606  19.586  0.00  0.00    +0.000 N 
ATOM      3  C   UNL     1       2.761   7.463  18.421  0.00  0.00    +0.000 A 
ATOM      4  C   UNL     1       2.413   8.537  17.612  0.00  0.00    +0.000 A 
ATOM      5  C   UNL     1       1.465   9.338  18.292  0.00  0.00    +0.000 A 
ATOM      6  C   UNL     1       0.810  10.544  17.975  0.00  0.00    +0.000 A 
ATOM      7  C   UNL     1      -0.100  11.108  18.887  0.00  0.00    +0.000 A 
ATOM      8  C   UNL     1      -0.361  10.449  20.095  0.00  0.00    +0.000 A 
ATOM      9  C   UNL     1       0.283   9.252  20.429  0.00  0.00    +0.000 A 
ATOM     10  C   UNL     1       1.207   8.724  19.513  0.00  0.00    +0.000 A 
ENDROOT
BRANCH   3  11
ATOM     11  C   UNL     1       3.746   6.430  18.148  0.00  0.00    +0.000 C 
ATOM     12  O   UNL     1       3.465   5.236  18.116  0.00  0.00    +0.000 OA
ATOM     13  N   UNL     1       5.030   6.892  17.943  0.00  0.00    +0.000 N 
ATOM     14  H   UNL     1       5.168   7.896  17.907  0.00  0.00    +0.000 HD
BRANCH  13  15
ATOM     15  C   UNL     1       6.224   6.044  17.734  0.00  0.00    +0.000 C 
ATOM     16  C   UNL     1       6.493   4.944  18.804  0.00  0.00    +0.000 C 
ATOM     17  C   UNL     1       7.968   5.375  18.858  0.00  0.00    +0.000 C 
ATOM     18  C   UNL     1       7.578   6.687  18.165  0.00  0.00    +0.000 C 
BRANCH  15  19
ATOM     19  C   UNL     1       6.250   5.487  16.297  0.00  0.00    +0.000 A 
ATOM     20  N   UNL     1       7.193   5.748  15.415  0.00  0.00    +0.000 NA
ATOM     21  N   UNL     1       6.860   5.113  14.239  0.00  0.00    +0.000 NA
ATOM     22  C   UNL     1       5.726   4.482  14.430  0.00  0.00    +0.000 A 
ATOM     23  N   UNL     1       5.313   4.675  15.711  0.00  0.00    +0.000 N 
ATOM     24  H   UNL     1       4.472   4.311  16.134  0.00  0.00    +0.000 HD
ENDBRANCH  15  19
ENDBRANCH  13  15
ENDBRANCH   3  11
BRANCH   7  25
ATOM     25  C   UNL     1      -0.785  12.413  18.577  0.00  0.00    +0.000 C 
ATOM     26  F   UNL     1      -1.470  12.938  19.632  0.00  0.00    +0.000 F 
ATOM     27  F   UNL     1       0.088  13.381  18.182  0.00  0.00    +0.000 F 
ATOM     28  F   UNL     1      -1.694  12.297  17.567  0.00  0.00    +0.000 F 
ENDBRANCH   7  25
TORSDOF 4
ENDMDL
MODEL 9
REMARK VINA RESULT:      -7.5      1.949      3.160
REMARK  Name = 
REMARK  5 active torsions:
REMARK  status: ('A' for Active; 'I' for Inactive)
REMARK    1  A    between atoms: C_1  and  N_2
REMARK    2  A    between atoms: C_3  and  C_4
REMARK    3  A    between atoms: N_6  and  C_7
REMARK    4  A    between atoms: C_7  and  C_8
REMARK    5  A    between atoms: C_19  and  C_20
REMARK                            x       y       z     vdW  Elec       q    Type
REMARK                         _______ _______ _______ _____ _____    ______ ____
ROOT
ATOM      1  C   UNL     1       2.371   8.134  17.821  0.00  0.00    +0.000 C 
ATOM      2  N   UNL     1       1.835   8.124  19.168  0.00  0.00    +0.000 N 
ATOM      3  C   UNL     1       1.780   7.050  20.043  0.00  0.00    +0.000 A 
ATOM      4  C   UNL     1       1.165   7.523  21.194  0.00  0.00    +0.000 A 
ATOM      5  C   UNL     1       0.839   8.889  21.015  0.00  0.00    +0.000 A 
ATOM      6  C   UNL     1       0.183   9.841  21.817  0.00  0.00    +0.000 A 
ATOM      7  C   UNL     1       0.004  11.153  21.343  0.00  0.00    +0.000 A 
ATOM      8  C   UNL     1       0.501  11.502  20.081  0.00  0.00    +0.000 A 
ATOM      9  C   UNL     1       1.152  10.568  19.267  0.00  0.00    +0.000 A 
ATOM     10  C   UNL     1       1.294   9.258  19.754  0.00  0.00    +0.000 A 
ENDROOT
BRANCH   3  11
ATOM     11  C   UNL     1       2.221   5.692  19.766  0.00  0.00    +0.000 C 
ATOM     12  O   UNL     1       1.517   4.709  19.975  0.00  0.00    +0.000 OA
ATOM     13  N   UNL     1       3.502   5.590  19.264  0.00  0.00    +0.000 N 
ATOM     14  H   UNL     1       3.992   6.451  19.046  0.00  0.00    +0.000 HD
BRANCH  13  15
ATOM     15  C   UNL     1       4.215   4.325  18.984  0.00  0.00    +0.000 C 
ATOM     16  C   UNL     1       3.607   3.412  17.876  0.00  0.00    +0.000 C 
ATOM     17  C   UNL     1       3.763   2.200  18.807  0.00  0.00    +0.000 C 
ATOM     18  C   UNL     1       3.931   3.166  19.988  0.00  0.00    +0.000 C 
BRANCH  15  19
ATOM     19  C   UNL     1       5.720   4.585  18.772  0.00  0.00    +0.000 A 
ATOM     20  N   UNL     1       6.504   5.173  19.651  0.00  0.00    +0.000 NA
ATOM     21  N   UNL     1       7.763   5.266  19.100  0.00  0.00    +0.000 NA
ATOM     22  C   UNL     1       7.717   4.735  17.902  0.00  0.00    +0.000 A 
ATOM     23  N   UNL     1       6.459   4.280  17.658  0.00  0.00    +0.000 N 
ATOM     24  H   UNL     1       6.135   3.831  16.815  0.00  0.00    +0.000 HD
ENDBRANCH  15  19
ENDBRANCH  13  15
ENDBRANCH   3  11
BRANCH   7  25
ATOM     25  C   UNL     1      -0.723  12.176  22.176  0.00  0.00    +0.000 C 
ATOM     26  F   UNL     1      -0.000  13.308  22.410  0.00  0.00    +0.000 F 
ATOM     27  F   UNL     1      -1.886  12.591  21.599  0.00  0.00    +0.000 F 
ATOM     28  F   UNL     1      -1.068  11.696  23.405  0.00  0.00    +0.000 F 
ENDBRANCH   7  25
TORSDOF 4
ENDMDL
