MODEL 1
REMARK VINA RESULT:      -8.6      0.000      0.000
REMARK  Name = 
REMARK  5 active torsions:
REMARK  status: ('A' for Active; 'I' for Inactive)
REMARK    1  A    between atoms: C_1  and  N_2
REMARK    2  A    between atoms: C_6  and  C_7
REMARK    3  A    between atoms: C_7  and  C_8
REMARK    4  A    between atoms: C_9  and  N_10
REMARK    5  A    between atoms: C_17  and  C_18
REMARK                            x       y       z     vdW  Elec       q    Type
REMARK                         _______ _______ _______ _____ _____    ______ ____
ROOT
ATOM      1  N   UNL     1       4.210   4.816  16.838  0.00  0.00    +0.000 N 
ATOM      2  C   UNL     1       3.436   3.743  17.444  0.00  0.00    +0.000 C 
ATOM      3  C   UNL     1       2.749   4.423  18.587  0.00  0.00    +0.000 A 
ATOM      4  C   UNL     1       3.047   5.783  18.563  0.00  0.00    +0.000 A 
ATOM      5  C   UNL     1       2.505   6.692  19.452  0.00  0.00    +0.000 A 
ATOM      6  C   UNL     1       1.643   6.198  20.426  0.00  0.00    +0.000 A 
ATOM      7  C   UNL     1       1.367   4.818  20.498  0.00  0.00    +0.000 A 
ATOM      8  C   UNL     1       1.924   3.903  19.579  0.00  0.00    +0.000 A 
ATOM      9  C   UNL     1       4.006   6.032  17.486  0.00  0.00    +0.000 C 
ATOM     10  O   UNL     1       4.466   7.138  17.263  0.00  0.00    +0.000 OA
ENDROOT
BRANCH   1  12
ATOM     11  C   UNL     1       6.424   4.586  15.830  0.00  0.00    +0.000 C 
ATOM     12  C   UNL     1       5.078   4.585  15.799  0.00  0.00    +0.000 C 
ATOM     13  C   UNL     1       4.597   4.142  14.437  0.00  0.00    +0.000 C 
ATOM     14  C   UNL     1       5.886   3.955  13.695  0.00  0.00    +0.000 C 
ATOM     15  C   UNL     1       6.917   4.217  14.511  0.00  0.00    +0.000 C 
BRANCH  11  16
ATOM     16  C   UNL     1       7.353   4.662  17.010  0.00  0.00    +0.000 C 
BRANCH  16  22
ATOM     17  C   UNL     1       8.122   5.639  19.900  0.00  0.00    +0.000 C 
ATOM     18  N   UNL     1       7.991   6.454  18.723  0.00  0.00    +0.000 N 
ATOM     19  C   UNL     1       8.143   7.806  18.681  0.00  0.00    +0.000 A 
ATOM     20  N   UNL     1       8.005   8.227  17.447  0.00  0.00    +0.000 NA
ATOM     21  N   UNL     1       7.717   7.132  16.671  0.00  0.00    +0.000 NA
ATOM     22  C   UNL     1       7.692   6.060  17.443  0.00  0.00    +0.000 A 
ENDBRANCH  16  22
ENDBRANCH  11  16
ENDBRANCH   1  12
BRANCH   8  23
ATOM     23  C   UNL     1       1.639   2.431  19.717  0.00  0.00    +0.000 C 
ATOM     24  F   UNL     1       0.672   1.977  18.873  0.00  0.00    +0.000 F 
ATOM     25  F   UNL     1       2.738   1.668  19.468  0.00  0.00    +0.000 F 
ATOM     26  F   UNL     1       1.225   2.098  20.969  0.00  0.00    +0.000 F 
ENDBRANCH   8  23
TORSDOF 4
ENDMDL
MODEL 2
REMARK VINA RESULT:      -8.1      3.611      5.270
REMARK  Name = 
REMARK  5 active torsions:
REMARK  status: ('A' for Active; 'I' for Inactive)
REMARK    1  A    between atoms: C_1  and  N_2
REMARK    2  A    between atoms: C_6  and  C_7
REMARK    3  A    between atoms: C_7  and  C_8
REMARK    4  A    between atoms: C_9  and  N_10
REMARK    5  A    between atoms: C_17  and  C_18
REMARK                            x       y       z     vdW  Elec       q    Type
REMARK                         _______ _______ _______ _____ _____    ______ ____
ROOT
ATOM      1  N   UNL     1       2.214   6.683  19.559  0.00  0.00    +0.000 N 
ATOM      2  C   UNL     1       1.496   7.232  20.700  0.00  0.00    +0.000 C 
ATOM      3  C   UNL     1       1.256   8.654  20.299  0.00  0.00    +0.000 A 
ATOM      4  C   UNL     1       1.723   8.854  19.002  0.00  0.00    +0.000 A 
ATOM      5  C   UNL     1       1.583  10.049  18.323  0.00  0.00    +0.000 A 
ATOM      6  C   UNL     1       0.965  11.098  18.998  0.00  0.00    +0.000 A 
ATOM      7  C   UNL     1       0.530  10.932  20.327  0.00  0.00    +0.000 A 
ATOM      8  C   UNL     1       0.676   9.703  21.005  0.00  0.00    +0.000 A 
ATOM      9  C   UNL     1       2.370   7.623  18.543  0.00  0.00    +0.000 C 
ATOM     10  O   UNL     1       2.900   7.531  17.451  0.00  0.00    +0.000 OA
ENDROOT
BRANCH   1  12
ATOM     11  C   UNL     1       3.991   5.016  19.362  0.00  0.00    +0.000 C 
ATOM     12  C   UNL     1       2.718   5.405  19.566  0.00  0.00    +0.000 C 
ATOM     13  C   UNL     1       1.876   4.215  19.964  0.00  0.00    +0.000 C 
ATOM     14  C   UNL     1       2.866   3.092  19.888  0.00  0.00    +0.000 C 
ATOM     15  C   UNL     1       4.067   3.574  19.539  0.00  0.00    +0.000 C 
BRANCH  11  16
ATOM     16  C   UNL     1       5.237   5.850  19.242  0.00  0.00    +0.000 C 
BRANCH  16  22
ATOM     17  C   UNL     1       5.202   5.641  16.103  0.00  0.00    +0.000 C 
ATOM     18  N   UNL     1       6.228   5.156  16.986  0.00  0.00    +0.000 N 
ATOM     19  C   UNL     1       7.347   4.485  16.598  0.00  0.00    +0.000 A 
ATOM     20  N   UNL     1       8.094   4.232  17.646  0.00  0.00    +0.000 NA
ATOM     21  N   UNL     1       7.431   4.714  18.748  0.00  0.00    +0.000 NA
ATOM     22  C   UNL     1       6.294   5.259  18.352  0.00  0.00    +0.000 A 
ENDBRANCH  16  22
ENDBRANCH  11  16
ENDBRANCH   1  12
BRANCH   8  23
ATOM     23  C   UNL     1       0.238   9.577  22.440  0.00  0.00    +0.000 C 
ATOM     24  F   UNL     1      -0.717   8.629  22.643  0.00  0.00    +0.000 F 
ATOM     25  F   UNL     1       1.268   9.252  23.267  0.00  0.00    +0.000 F 
ATOM     26  F   UNL     1      -0.283  10.736  22.926  0.00  0.00    +0.000 F 
ENDBRANCH   8  23
TORSDOF 4
ENDMDL
MODEL 3
REMARK VINA RESULT:      -7.9      3.375      5.070
REMARK  Name = 
REMARK  5 active torsions:
REMARK  status: ('A' for Active; 'I' for Inactive)
REMARK    1  A    between atoms: C_1  and  N_2
REMARK    2  A    between atoms: C_6  and  C_7
REMARK    3  A    between atoms: C_7  and  C_8
REMARK    4  A    between atoms: C_9  and  N_10
REMARK    5  A    between atoms: C_17  and  C_18
REMARK                            x       y       z     vdW  Elec       q    Type
REMARK                         _______ _______ _______ _____ _____    ______ ____
ROOT
ATOM      1  N   UNL     1       2.454   6.075  19.530  0.00  0.00    +0.000 N 
ATOM      2  C   UNL     1       1.743   6.783  20.585  0.00  0.00    +0.000 C 
ATOM      3  C   UNL     1       1.548   8.149  20.005  0.00  0.00    +0.000 A 
ATOM      4  C   UNL     1       2.031   8.170  18.699  0.00  0.00    +0.000 A 
ATOM      5  C   UNL     1       1.931   9.275  17.873  0.00  0.00    +0.000 A 
ATOM      6  C   UNL     1       1.338  10.417  18.403  0.00  0.00    +0.000 A 
ATOM      7  C   UNL     1       0.888  10.432  19.738  0.00  0.00    +0.000 A 
ATOM      8  C   UNL     1       0.993   9.294  20.567  0.00  0.00    +0.000 A 
ATOM      9  C   UNL     1       2.646   6.875  18.406  0.00  0.00    +0.000 C 
ATOM     10  O   UNL     1       3.181   6.631  17.340  0.00  0.00    +0.000 OA
ENDROOT
BRANCH   1  12
ATOM     11  C   UNL     1       4.171   4.335  19.509  0.00  0.00    +0.000 C 
ATOM     12  C   UNL     1       2.920   4.795  19.704  0.00  0.00    +0.000 C 
ATOM     13  C   UNL     1       2.062   3.704  20.303  0.00  0.00    +0.000 C 
ATOM     14  C   UNL     1       3.015   2.548  20.354  0.00  0.00    +0.000 C 
ATOM     15  C   UNL     1       4.213   2.932  19.892  0.00  0.00    +0.000 C 
BRANCH  11  16
ATOM     16  C   UNL     1       5.434   5.098  19.220  0.00  0.00    +0.000 C 
BRANCH  16  22
ATOM     17  C   UNL     1       7.501   6.936  17.720  0.00  0.00    +0.000 C 
ATOM     18  N   UNL     1       6.823   5.786  17.183  0.00  0.00    +0.000 N 
ATOM     19  C   UNL     1       6.942   5.328  15.907  0.00  0.00    +0.000 A 
ATOM     20  N   UNL     1       6.229   4.237  15.763  0.00  0.00    +0.000 NA
ATOM     21  N   UNL     1       5.599   3.998  16.959  0.00  0.00    +0.000 NA
ATOM     22  C   UNL     1       5.945   4.944  17.816  0.00  0.00    +0.000 A 
ENDBRANCH  16  22
ENDBRANCH  11  16
ENDBRANCH   1  12
BRANCH   8  23
ATOM     23  C   UNL     1       0.540   9.363  22.001  0.00  0.00    +0.000 C 
ATOM     24  F   UNL     1       1.509   9.042  22.900  0.00  0.00    +0.000 F 
ATOM     25  F   UNL     1       0.109  10.608  22.346  0.00  0.00    +0.000 F 
ATOM     26  F   UNL     1      -0.497   8.522  22.258  0.00  0.00    +0.000 F 
ENDBRANCH   8  23
TORSDOF 4
ENDMDL
MODEL 4
REMARK VINA RESULT:      -7.8      3.826      5.009
REMARK  Name = 
REMARK  5 active torsions:
REMARK  status: ('A' for Active; 'I' for Inactive)
REMARK    1  A    between atoms: C_1  and  N_2
REMARK    2  A    between atoms: C_6  and  C_7
REMARK    3  A    between atoms: C_7  and  C_8
REMARK    4  A    between atoms: C_9  and  N_10
REMARK    5  A    between atoms: C_17  and  C_18
REMARK                            x       y       z     vdW  Elec       q    Type
REMARK                         _______ _______ _______ _____ _____    ______ ____
ROOT
ATOM      1  N   UNL     1       2.337   6.350  18.932  0.00  0.00    +0.000 N 
ATOM      2  C   UNL     1       2.134   7.674  18.362  0.00  0.00    +0.000 C 
ATOM      3  C   UNL     1       1.588   8.460  19.513  0.00  0.00    +0.000 A 
ATOM      4  C   UNL     1       1.574   7.661  20.654  0.00  0.00    +0.000 A 
ATOM      5  C   UNL     1       1.188   8.123  21.898  0.00  0.00    +0.000 A 
ATOM      6  C   UNL     1       0.771   9.449  21.985  0.00  0.00    +0.000 A 
ATOM      7  C   UNL     1       0.731  10.259  20.834  0.00  0.00    +0.000 A 
ATOM      8  C   UNL     1       1.134   9.774  19.572  0.00  0.00    +0.000 A 
ATOM      9  C   UNL     1       2.005   6.311  20.285  0.00  0.00    +0.000 C 
ATOM     10  O   UNL     1       2.053   5.397  21.087  0.00  0.00    +0.000 OA
ENDROOT
BRANCH   1  12
ATOM     11  C   UNL     1       3.827   5.201  17.373  0.00  0.00    +0.000 C 
ATOM     12  C   UNL     1       2.741   5.286  18.165  0.00  0.00    +0.000 C 
ATOM     13  C   UNL     1       2.043   3.946  18.222  0.00  0.00    +0.000 C 
ATOM     14  C   UNL     1       2.877   3.119  17.290  0.00  0.00    +0.000 C 
ATOM     15  C   UNL     1       3.889   3.859  16.815  0.00  0.00    +0.000 C 
BRANCH  11  16
ATOM     16  C   UNL     1       4.983   6.153  17.233  0.00  0.00    +0.000 C 
BRANCH  16  22
ATOM     17  C   UNL     1       7.712   7.706  17.437  0.00  0.00    +0.000 C 
ATOM     18  N   UNL     1       7.268   6.633  18.284  0.00  0.00    +0.000 N 
ATOM     19  C   UNL     1       7.987   6.083  19.301  0.00  0.00    +0.000 A 
ATOM     20  N   UNL     1       7.272   5.162  19.899  0.00  0.00    +0.000 NA
ATOM     21  N   UNL     1       6.073   5.078  19.235  0.00  0.00    +0.000 NA
ATOM     22  C   UNL     1       6.074   5.956  18.247  0.00  0.00    +0.000 A 
ENDBRANCH  16  22
ENDBRANCH  11  16
ENDBRANCH   1  12
BRANCH   8  23
ATOM     23  C   UNL     1       1.034  10.658  18.358  0.00  0.00    +0.000 C 
ATOM     24  F   UNL     1       2.219  10.844  17.714  0.00  0.00    +0.000 F 
ATOM     25  F   UNL     1       0.178  10.159  17.425  0.00  0.00    +0.000 F 
ATOM     26  F   UNL     1       0.578  11.903  18.660  0.00  0.00    +0.000 F 
ENDBRANCH   8  23
TORSDOF 4
ENDMDL
MODEL 5
REMARK VINA RESULT:      -7.7      3.230      6.605
REMARK  Name = 
REMARK  5 active torsions:
REMARK  status: ('A' for Active; 'I' for Inactive)
REMARK    1  A    between atoms: C_1  and  N_2
REMARK    2  A    between atoms: C_6  and  C_7
REMARK    3  A    between atoms: C_7  and  C_8
REMARK    4  A    between atoms: C_9  and  N_10
REMARK    5  A    between atoms: C_17  and  C_18
REMARK                            x       y       z     vdW  Elec       q    Type
REMARK                         _______ _______ _______ _____ _____    ______ ____
ROOT
ATOM      1  N   UNL     1       3.365   6.072  18.853  0.00  0.00    +0.000 N 
ATOM      2  C   UNL     1       4.784   6.227  19.140  0.00  0.00    +0.000 C 
ATOM      3  C   UNL     1       5.439   5.416  18.066  0.00  0.00    +0.000 A 
ATOM      4  C   UNL     1       4.466   4.926  17.199  0.00  0.00    +0.000 A 
ATOM      5  C   UNL     1       4.763   4.196  16.062  0.00  0.00    +0.000 A 
ATOM      6  C   UNL     1       6.105   3.929  15.808  0.00  0.00    +0.000 A 
ATOM      7  C   UNL     1       7.101   4.373  16.699  0.00  0.00    +0.000 A 
ATOM      8  C   UNL     1       6.782   5.122  17.852  0.00  0.00    +0.000 A 
ATOM      9  C   UNL     1       3.148   5.299  17.715  0.00  0.00    +0.000 C 
ATOM     10  O   UNL     1       2.112   4.967  17.167  0.00  0.00    +0.000 OA
ENDROOT
BRANCH   1  12
ATOM     11  C   UNL     1       1.726   5.956  20.662  0.00  0.00    +0.000 C 
ATOM     12  C   UNL     1       2.399   6.588  19.681  0.00  0.00    +0.000 C 
ATOM     13  C   UNL     1       2.045   8.057  19.682  0.00  0.00    +0.000 C 
ATOM     14  C   UNL     1       1.024   8.132  20.777  0.00  0.00    +0.000 C 
ATOM     15  C   UNL     1       0.856   6.919  21.321  0.00  0.00    +0.000 C 
BRANCH  11  16
ATOM     16  C   UNL     1       1.949   4.587  21.245  0.00  0.00    +0.000 C 
BRANCH  16  22
ATOM     17  C   UNL     1       4.107   2.565  20.173  0.00  0.00    +0.000 C 
ATOM     18  N   UNL     1       2.719   2.616  19.804  0.00  0.00    +0.000 N 
ATOM     19  C   UNL     1       2.117   1.809  18.888  0.00  0.00    +0.000 A 
ATOM     20  N   UNL     1       0.838   2.088  18.827  0.00  0.00    +0.000 NA
ATOM     21  N   UNL     1       0.603   3.126  19.694  0.00  0.00    +0.000 NA
ATOM     22  C   UNL     1       1.743   3.459  20.275  0.00  0.00    +0.000 A 
ENDBRANCH  16  22
ENDBRANCH  11  16
ENDBRANCH   1  12
BRANCH   8  23
ATOM     23  C   UNL     1       7.871   5.542  18.802  0.00  0.00    +0.000 C 
ATOM     24  F   UNL     1       7.472   5.609  20.101  0.00  0.00    +0.000 F 
ATOM     25  F   UNL     1       8.930   4.687  18.782  0.00  0.00    +0.000 F 
ATOM     26  F   UNL     1       8.374   6.770  18.505  0.00  0.00    +0.000 F 
ENDBRANCH   8  23
TORSDOF 4
ENDMDL
MODEL 6
REMARK VINA RESULT:      -7.7      3.797      4.867
REMARK  Name = 
REMARK  5 active torsions:
REMARK  status: ('A' for Active; 'I' for Inactive)
REMARK    1  A    between atoms: C_1  and  N_2
REMARK    2  A    between atoms: C_6  and  C_7
REMARK    3  A    between atoms: C_7  and  C_8
REMARK    4  A    between atoms: C_9  and  N_10
REMARK    5  A    between atoms: C_17  and  C_18
REMARK                            x       y       z     vdW  Elec       q    Type
REMARK                         _______ _______ _______ _____ _____    ______ ____
ROOT
ATOM      1  N   UNL     1       2.277   6.214  19.078  0.00  0.00    +0.000 N 
ATOM      2  C   UNL     1       2.128   7.520  18.452  0.00  0.00    +0.000 C 
ATOM      3  C   UNL     1       1.585   8.368  19.559  0.00  0.00    +0.000 A 
ATOM      4  C   UNL     1       1.524   7.616  20.730  0.00  0.00    +0.000 A 
ATOM      5  C   UNL     1       1.129   8.141  21.947  0.00  0.00    +0.000 A 
ATOM      6  C   UNL     1       0.753   9.481  21.973  0.00  0.00    +0.000 A 
ATOM      7  C   UNL     1       0.761  10.245  20.790  0.00  0.00    +0.000 A 
ATOM      8  C   UNL     1       1.172   9.697  19.556  0.00  0.00    +0.000 A 
ATOM      9  C   UNL     1       1.919   6.240  20.424  0.00  0.00    +0.000 C 
ATOM     10  O   UNL     1       1.921   5.358  21.263  0.00  0.00    +0.000 OA
ENDROOT
BRANCH   1  12
ATOM     11  C   UNL     1       3.899   4.594  18.233  0.00  0.00    +0.000 C 
ATOM     12  C   UNL     1       2.661   5.107  18.361  0.00  0.00    +0.000 C 
ATOM     13  C   UNL     1       1.657   4.195  17.696  0.00  0.00    +0.000 C 
ATOM     14  C   UNL     1       2.537   3.124  17.125  0.00  0.00    +0.000 C 
ATOM     15  C   UNL     1       3.815   3.375  17.442  0.00  0.00    +0.000 C 
BRANCH  11  16
ATOM     16  C   UNL     1       5.166   4.962  18.956  0.00  0.00    +0.000 C 
BRANCH  16  22
ATOM     17  C   UNL     1       8.164   5.693  19.566  0.00  0.00    +0.000 C 
ATOM     18  N   UNL     1       7.334   6.257  18.537  0.00  0.00    +0.000 N 
ATOM     19  C   UNL     1       7.709   7.242  17.675  0.00  0.00    +0.000 A 
ATOM     20  N   UNL     1       6.732   7.488  16.836  0.00  0.00    +0.000 NA
ATOM     21  N   UNL     1       5.681   6.674  17.180  0.00  0.00    +0.000 NA
ATOM     22  C   UNL     1       6.037   5.940  18.220  0.00  0.00    +0.000 A 
ENDBRANCH  16  22
ENDBRANCH  11  16
ENDBRANCH   1  12
BRANCH   8  23
ATOM     23  C   UNL     1       1.125  10.534  18.306  0.00  0.00    +0.000 C 
ATOM     24  F   UNL     1       0.745  11.823  18.522  0.00  0.00    +0.000 F 
ATOM     25  F   UNL     1       2.333  10.601  17.684  0.00  0.00    +0.000 F 
ATOM     26  F   UNL     1       0.254  10.041  17.385  0.00  0.00    +0.000 F 
ENDBRANCH   8  23
TORSDOF 4
ENDMDL
MODEL 7
REMARK VINA RESULT:      -7.7      3.625      5.426
REMARK  Name = 
REMARK  5 active torsions:
REMARK  status: ('A' for Active; 'I' for Inactive)
REMARK    1  A    between atoms: C_1  and  N_2
REMARK    2  A    between atoms: C_6  and  C_7
REMARK    3  A    between atoms: C_7  and  C_8
REMARK    4  A    between atoms: C_9  and  N_10
REMARK    5  A    between atoms: C_17  and  C_18
REMARK                            x       y       z     vdW  Elec       q    Type
REMARK                         _______ _______ _______ _____ _____    ______ ____
ROOT
ATOM      1  N   UNL     1       1.950   6.487  19.838  0.00  0.00    +0.000 N 
ATOM      2  C   UNL     1       1.246   7.168  20.914  0.00  0.00    +0.000 C 
ATOM      3  C   UNL     1       1.157   8.579  20.422  0.00  0.00    +0.000 A 
ATOM      4  C   UNL     1       1.689   8.655  19.137  0.00  0.00    +0.000 A 
ATOM      5  C   UNL     1       1.687   9.815  18.384  0.00  0.00    +0.000 A 
ATOM      6  C   UNL     1       1.147  10.956  18.970  0.00  0.00    +0.000 A 
ATOM      7  C   UNL     1       0.649  10.912  20.287  0.00  0.00    +0.000 A 
ATOM      8  C   UNL     1       0.652   9.719  21.040  0.00  0.00    +0.000 A 
ATOM      9  C   UNL     1       2.233   7.344  18.777  0.00  0.00    +0.000 C 
ATOM     10  O   UNL     1       2.792   7.137  17.716  0.00  0.00    +0.000 OA
ENDROOT
BRANCH   1  12
ATOM     11  C   UNL     1       3.546   4.640  19.712  0.00  0.00    +0.000 C 
ATOM     12  C   UNL     1       2.329   5.171  19.941  0.00  0.00    +0.000 C 
ATOM     13  C   UNL     1       1.402   4.110  20.488  0.00  0.00    +0.000 C 
ATOM     14  C   UNL     1       2.276   2.892  20.470  0.00  0.00    +0.000 C 
ATOM     15  C   UNL     1       3.495   3.218  20.020  0.00  0.00    +0.000 C 
BRANCH  11  16
ATOM     16  C   UNL     1       4.857   5.331  19.455  0.00  0.00    +0.000 C 
BRANCH  16  22
ATOM     17  C   UNL     1       7.921   5.558  18.778  0.00  0.00    +0.000 C 
ATOM     18  N   UNL     1       6.887   5.041  17.923  0.00  0.00    +0.000 N 
ATOM     19  C   UNL     1       7.069   4.597  16.649  0.00  0.00    +0.000 A 
ATOM     20  N   UNL     1       5.932   4.150  16.172  0.00  0.00    +0.000 NA
ATOM     21  N   UNL     1       4.978   4.341  17.140  0.00  0.00    +0.000 NA
ATOM     22  C   UNL     1       5.550   4.895  18.195  0.00  0.00    +0.000 A 
ENDBRANCH  16  22
ENDBRANCH  11  16
ENDBRANCH   1  12
BRANCH   8  23
ATOM     23  C   UNL     1       0.151   9.723  22.460  0.00  0.00    +0.000 C 
ATOM     24  F   UNL     1      -0.843   8.823  22.695  0.00  0.00    +0.000 F 
ATOM     25  F   UNL     1       1.135   9.433  23.355  0.00  0.00    +0.000 F 
ATOM     26  F   UNL     1      -0.349  10.932  22.829  0.00  0.00    +0.000 F 
ENDBRANCH   8  23
TORSDOF 4
ENDMDL
MODEL 8
REMARK VINA RESULT:      -7.7      4.301      6.532
REMARK  Name = 
REMARK  5 active torsions:
REMARK  status: ('A' for Active; 'I' for Inactive)
REMARK    1  A    between atoms: C_1  and  N_2
REMARK    2  A    between atoms: C_6  and  C_7
REMARK    3  A    between atoms: C_7  and  C_8
REMARK    4  A    between atoms: C_9  and  N_10
REMARK    5  A    between atoms: C_17  and  C_18
REMARK                            x       y       z     vdW  Elec       q    Type
REMARK                         _______ _______ _______ _____ _____    ______ ____
ROOT
ATOM      1  N   UNL     1       2.035   8.230  18.897  0.00  0.00    +0.000 N 
ATOM      2  C   UNL     1       1.393   8.202  20.203  0.00  0.00    +0.000 C 
ATOM      3  C   UNL     1       0.742   9.548  20.290  0.00  0.00    +0.000 A 
ATOM      4  C   UNL     1       0.932  10.231  19.091  0.00  0.00    +0.000 A 
ATOM      5  C   UNL     1       0.389  11.477  18.836  0.00  0.00    +0.000 A 
ATOM      6  C   UNL     1      -0.358  12.068  19.850  0.00  0.00    +0.000 A 
ATOM      7  C   UNL     1      -0.521  11.415  21.088  0.00  0.00    +0.000 A 
ATOM      8  C   UNL     1       0.036  10.141  21.331  0.00  0.00    +0.000 A 
ATOM      9  C   UNL     1       1.786   9.422  18.221  0.00  0.00    +0.000 C 
ATOM     10  O   UNL     1       2.142   9.798  17.119  0.00  0.00    +0.000 OA
ENDROOT
BRANCH   1  12
ATOM     11  C   UNL     1       2.634   5.879  18.600  0.00  0.00    +0.000 C 
ATOM     12  C   UNL     1       2.839   7.203  18.464  0.00  0.00    +0.000 C 
ATOM     13  C   UNL     1       4.061   7.448  17.611  0.00  0.00    +0.000 C 
ATOM     14  C   UNL     1       4.540   6.052  17.343  0.00  0.00    +0.000 C 
ATOM     15  C   UNL     1       3.711   5.173  17.921  0.00  0.00    +0.000 C 
BRANCH  11  16
ATOM     16  C   UNL     1       1.417   5.146  19.094  0.00  0.00    +0.000 C 
BRANCH  16  22
ATOM     17  C   UNL     1       1.094   2.019  18.962  0.00  0.00    +0.000 C 
ATOM     18  N   UNL     1       1.509   2.793  20.100  0.00  0.00    +0.000 N 
ATOM     19  C   UNL     1       1.794   2.291  21.332  0.00  0.00    +0.000 A 
ATOM     20  N   UNL     1       2.187   3.260  22.123  0.00  0.00    +0.000 NA
ATOM     21  N   UNL     1       2.119   4.428  21.405  0.00  0.00    +0.000 NA
ATOM     22  C   UNL     1       1.693   4.151  20.185  0.00  0.00    +0.000 A 
ENDBRANCH  16  22
ENDBRANCH  11  16
ENDBRANCH   1  12
BRANCH   8  23
ATOM     23  C   UNL     1      -0.124   9.495  22.682  0.00  0.00    +0.000 C 
ATOM     24  F   UNL     1      -0.796  10.262  23.582  0.00  0.00    +0.000 F 
ATOM     25  F   UNL     1      -0.804   8.318  22.614  0.00  0.00    +0.000 F 
ATOM     26  F   UNL     1       1.072   9.206  23.262  0.00  0.00    +0.000 F 
ENDBRANCH   8  23
TORSDOF 4
ENDMDL
MODEL 9
REMARK VINA RESULT:      -7.5      4.256      6.616
REMARK  Name = 
REMARK  5 active torsions:
REMARK  status: ('A' for Active; 'I' for Inactive)
REMARK    1  A    between atoms: C_1  and  N_2
REMARK    2  A    between atoms: C_6  and  C_7
REMARK    3  A    between atoms: C_7  and  C_8
REMARK    4  A    between atoms: C_9  and  N_10
REMARK    5  A    between atoms: C_17  and  C_18
REMARK                            x       y       z     vdW  Elec       q    Type
REMARK                         _______ _______ _______ _____ _____    ______ ____
ROOT
ATOM      1  N   UNL     1       2.012   8.252  19.120  0.00  0.00    +0.000 N 
ATOM      2  C   UNL     1       1.343   8.269  20.413  0.00  0.00    +0.000 C 
ATOM      3  C   UNL     1       0.565   9.547  20.377  0.00  0.00    +0.000 A 
ATOM      4  C   UNL     1       0.718  10.146  19.129  0.00  0.00    +0.000 A 
ATOM      5  C   UNL     1       0.065  11.308  18.762  0.00  0.00    +0.000 A 
ATOM      6  C   UNL     1      -0.759  11.905  19.712  0.00  0.00    +0.000 A 
ATOM      7  C   UNL     1      -0.889  11.341  20.997  0.00  0.00    +0.000 A 
ATOM      8  C   UNL     1      -0.219  10.151  21.354  0.00  0.00    +0.000 A 
ATOM      9  C   UNL     1       1.667   9.356  18.343  0.00  0.00    +0.000 C 
ATOM     10  O   UNL     1       2.012   9.674  17.220  0.00  0.00    +0.000 OA
ENDROOT
BRANCH   1  12
ATOM     11  C   UNL     1       3.026   6.036  19.300  0.00  0.00    +0.000 C 
ATOM     12  C   UNL     1       2.920   7.277  18.787  0.00  0.00    +0.000 C 
ATOM     13  C   UNL     1       3.886   7.440  17.636  0.00  0.00    +0.000 C 
ATOM     14  C   UNL     1       4.590   6.117  17.629  0.00  0.00    +0.000 C 
ATOM     15  C   UNL     1       4.084   5.332  18.590  0.00  0.00    +0.000 C 
BRANCH  11  16
ATOM     16  C   UNL     1       2.103   5.307  20.237  0.00  0.00    +0.000 C 
BRANCH  16  22
ATOM     17  C   UNL     1       1.764   2.583  21.774  0.00  0.00    +0.000 C 
ATOM     18  N   UNL     1       1.465   2.832  20.390  0.00  0.00    +0.000 N 
ATOM     19  C   UNL     1       1.018   1.903  19.501  0.00  0.00    +0.000 A 
ATOM     20  N   UNL     1       0.800   2.472  18.341  0.00  0.00    +0.000 NA
ATOM     21  N   UNL     1       1.149   3.795  18.461  0.00  0.00    +0.000 NA
ATOM     22  C   UNL     1       1.568   4.011  19.696  0.00  0.00    +0.000 A 
ENDBRANCH  16  22
ENDBRANCH  11  16
ENDBRANCH   1  12
BRANCH   8  23
ATOM     23  C   UNL     1      -0.349   9.605  22.751  0.00  0.00    +0.000 C 
ATOM     24  F   UNL     1      -1.083  10.392  23.584  0.00  0.00    +0.000 F 
ATOM     25  F   UNL     1      -0.945   8.381  22.773  0.00  0.00    +0.000 F 
ATOM     26  F   UNL     1       0.857   9.446  23.359  0.00  0.00    +0.000 F 
ENDBRANCH   8  23
TORSDOF 4
ENDMDL
