MODEL 1
REMARK VINA RESULT:      -8.3      0.000      0.000
REMARK  Name = 
REMARK  7 active torsions:
REMARK  status: ('A' for Active; 'I' for Inactive)
REMARK    1  A    between atoms: C_2  and  C_7
REMARK    2  A    between atoms: N_3  and  C_4
REMARK    3  A    between atoms: C_10  and  N_11
REMARK    4  A    between atoms: N_11  and  C_12
REMARK    5  A    between atoms: C_12  and  C_13
REMARK    6  A    between atoms: C_15  and  C_16
REMARK    7  A    between atoms: C_19  and  C_20
REMARK                            x       y       z     vdW  Elec       q    Type
REMARK                         _______ _______ _______ _____ _____    ______ ____
ROOT
ATOM      1  C   UNL     1       3.350   4.772  19.774  0.00  0.00    +0.000 C 
ENDROOT
BRANCH   1   2
ATOM      2  C   UNL     1       2.707   6.118  19.763  0.00  0.00    +0.000 A 
ATOM      3  N   UNL     1       1.988   6.721  20.684  0.00  0.00    +0.000 NA
ATOM      4  C   UNL     1       1.679   7.920  20.076  0.00  0.00    +0.000 A 
ATOM      5  N   UNL     1       2.202   8.060  18.846  0.00  0.00    +0.000 NA
ATOM      6  O   UNL     1       2.884   6.867  18.638  0.00  0.00    +0.000 OA
BRANCH   4   7
ATOM      7  C   UNL     1       0.852   8.928  20.729  0.00  0.00    +0.000 A 
ATOM      8  C   UNL     1       0.281   8.663  21.981  0.00  0.00    +0.000 A 
ATOM      9  C   UNL     1      -0.514   9.617  22.619  0.00  0.00    +0.000 A 
ATOM     10  C   UNL     1      -0.757  10.859  22.016  0.00  0.00    +0.000 A 
ATOM     11  C   UNL     1      -0.188  11.126  20.761  0.00  0.00    +0.000 A 
ATOM     12  C   UNL     1       0.607  10.170  20.127  0.00  0.00    +0.000 A 
BRANCH  10  13
ATOM     13  C   UNL     1      -1.612  11.901  22.695  0.00  0.00    +0.000 C 
ATOM     14  F   UNL     1      -2.426  11.393  23.662  0.00  0.00    +0.000 F 
ATOM     15  F   UNL     1      -0.870  12.869  23.301  0.00  0.00    +0.000 F 
ATOM     16  F   UNL     1      -2.431  12.550  21.822  0.00  0.00    +0.000 F 
ENDBRANCH  10  13
ENDBRANCH   4   7
ENDBRANCH   1   2
BRANCH   1  17
ATOM     17  N   UNL     1       4.789   4.767  19.514  0.00  0.00    +0.000 N 
ATOM     18  H   UNL     1       5.307   5.443  20.070  0.00  0.00    +0.000 HD
BRANCH  17  22
ATOM     19  C   UNL     1       6.073   4.375  15.517  0.00  0.00    +0.000 A 
ATOM     20  C   UNL     1       6.922   4.953  16.463  0.00  0.00    +0.000 A 
ATOM     21  C   UNL     1       6.519   5.072  17.795  0.00  0.00    +0.000 A 
ATOM     22  C   UNL     1       5.282   4.579  18.226  0.00  0.00    +0.000 A 
ATOM     23  C   UNL     1       4.445   3.982  17.267  0.00  0.00    +0.000 A 
ATOM     24  C   UNL     1       4.832   3.878  15.922  0.00  0.00    +0.000 A 
BRANCH  19  26
ATOM     25  O   UNL     1       7.297   5.185  13.683  0.00  0.00    +0.000 OA
ATOM     26  C   UNL     1       6.544   4.314  14.109  0.00  0.00    +0.000 C 
ATOM     27  N   UNL     1       6.042   3.282  13.337  0.00  0.00    +0.000 N 
ATOM     28  H   UNL     1       5.290   2.714  13.705  0.00  0.00    +0.000 HD
BRANCH  27  29
ATOM     29  C   UNL     1       6.343   3.181  11.943  0.00  0.00    +0.000 C 
ATOM     30  C   UNL     1       6.042   1.924  11.172  0.00  0.00    +0.000 C 
ATOM     31  C   UNL     1       7.465   2.300  11.468  0.00  0.00    +0.000 C 
ENDBRANCH  27  29
ENDBRANCH  19  26
ENDBRANCH  17  22
ENDBRANCH   1  17
TORSDOF 7
ENDMDL
MODEL 2
REMARK VINA RESULT:      -8.3      0.472      1.244
REMARK  Name = 
REMARK  7 active torsions:
REMARK  status: ('A' for Active; 'I' for Inactive)
REMARK    1  A    between atoms: C_2  and  C_7
REMARK    2  A    between atoms: N_3  and  C_4
REMARK    3  A    between atoms: C_10  and  N_11
REMARK    4  A    between atoms: N_11  and  C_12
REMARK    5  A    between atoms: C_12  and  C_13
REMARK    6  A    between atoms: C_15  and  C_16
REMARK    7  A    between atoms: C_19  and  C_20
REMARK                            x       y       z     vdW  Elec       q    Type
REMARK                         _______ _______ _______ _____ _____    ______ ____
ROOT
ATOM      1  C   UNL     1       2.986   4.957  19.901  0.00  0.00    +0.000 C 
ENDROOT
BRANCH   1   2
ATOM      2  C   UNL     1       2.390   6.324  19.899  0.00  0.00    +0.000 A 
ATOM      3  N   UNL     1       1.673   6.937  20.815  0.00  0.00    +0.000 NA
ATOM      4  C   UNL     1       1.419   8.155  20.221  0.00  0.00    +0.000 A 
ATOM      5  N   UNL     1       1.975   8.298  19.006  0.00  0.00    +0.000 NA
ATOM      6  O   UNL     1       2.620   7.085  18.793  0.00  0.00    +0.000 OA
BRANCH   4   7
ATOM      7  C   UNL     1       0.613   9.181  20.874  0.00  0.00    +0.000 A 
ATOM      8  C   UNL     1       0.198  10.310  20.154  0.00  0.00    +0.000 A 
ATOM      9  C   UNL     1      -0.573  11.301  20.764  0.00  0.00    +0.000 A 
ATOM     10  C   UNL     1      -0.946  11.185  22.111  0.00  0.00    +0.000 A 
ATOM     11  C   UNL     1      -0.530  10.056  22.834  0.00  0.00    +0.000 A 
ATOM     12  C   UNL     1       0.241   9.067  22.220  0.00  0.00    +0.000 A 
BRANCH  10  13
ATOM     13  C   UNL     1      -1.781  12.247  22.783  0.00  0.00    +0.000 C 
ATOM     14  F   UNL     1      -2.406  13.084  21.908  0.00  0.00    +0.000 F 
ATOM     15  F   UNL     1      -2.765  11.719  23.562  0.00  0.00    +0.000 F 
ATOM     16  F   UNL     1      -1.044  13.047  23.602  0.00  0.00    +0.000 F 
ENDBRANCH  10  13
ENDBRANCH   4   7
ENDBRANCH   1   2
BRANCH   1  17
ATOM     17  N   UNL     1       4.440   4.910  19.757  0.00  0.00    +0.000 N 
ATOM     18  H   UNL     1       4.932   5.560  20.367  0.00  0.00    +0.000 HD
BRANCH  17  22
ATOM     19  C   UNL     1       6.023   4.533  15.868  0.00  0.00    +0.000 A 
ATOM     20  C   UNL     1       6.790   5.129  16.872  0.00  0.00    +0.000 A 
ATOM     21  C   UNL     1       6.288   5.243  18.171  0.00  0.00    +0.000 A 
ATOM     22  C   UNL     1       5.030   4.728  18.510  0.00  0.00    +0.000 A 
ATOM     23  C   UNL     1       4.278   4.114  17.495  0.00  0.00    +0.000 A 
ATOM     24  C   UNL     1       4.766   4.014  16.182  0.00  0.00    +0.000 A 
BRANCH  19  26
ATOM     25  O   UNL     1       7.497   5.254  14.186  0.00  0.00    +0.000 OA
ATOM     26  C   UNL     1       6.598   4.478  14.498  0.00  0.00    +0.000 C 
ATOM     27  N   UNL     1       6.026   3.569  13.628  0.00  0.00    +0.000 N 
ATOM     28  H   UNL     1       5.175   3.095  13.902  0.00  0.00    +0.000 HD
BRANCH  27  29
ATOM     29  C   UNL     1       6.426   3.496  12.257  0.00  0.00    +0.000 C 
ATOM     30  C   UNL     1       5.543   2.854  11.222  0.00  0.00    +0.000 C 
ATOM     31  C   UNL     1       6.815   2.179  11.646  0.00  0.00    +0.000 C 
ENDBRANCH  27  29
ENDBRANCH  19  26
ENDBRANCH  17  22
ENDBRANCH   1  17
TORSDOF 7
ENDMDL
MODEL 3
REMARK VINA RESULT:      -8.0      7.370      9.673
REMARK  Name = 
REMARK  7 active torsions:
REMARK  status: ('A' for Active; 'I' for Inactive)
REMARK    1  A    between atoms: C_2  and  C_7
REMARK    2  A    between atoms: N_3  and  C_4
REMARK    3  A    between atoms: C_10  and  N_11
REMARK    4  A    between atoms: N_11  and  C_12
REMARK    5  A    between atoms: C_12  and  C_13
REMARK    6  A    between atoms: C_15  and  C_16
REMARK    7  A    between atoms: C_19  and  C_20
REMARK                            x       y       z     vdW  Elec       q    Type
REMARK                         _______ _______ _______ _____ _____    ______ ____
ROOT
ATOM      1  C   UNL     1       8.018   8.562  17.451  0.00  0.00    +0.000 C 
ENDROOT
BRANCH   1   2
ATOM      2  C   UNL     1       7.179   7.329  17.441  0.00  0.00    +0.000 A 
ATOM      3  N   UNL     1       6.046   7.070  18.055  0.00  0.00    +0.000 NA
ATOM      4  C   UNL     1       5.788   5.775  17.660  0.00  0.00    +0.000 A 
ATOM      5  N   UNL     1       6.706   5.265  16.822  0.00  0.00    +0.000 NA
ATOM      6  O   UNL     1       7.629   6.294  16.676  0.00  0.00    +0.000 OA
BRANCH   4   7
ATOM      7  C   UNL     1       4.616   5.042  18.127  0.00  0.00    +0.000 A 
ATOM      8  C   UNL     1       4.018   5.381  19.349  0.00  0.00    +0.000 A 
ATOM      9  C   UNL     1       2.897   4.689  19.811  0.00  0.00    +0.000 A 
ATOM     10  C   UNL     1       2.349   3.640  19.060  0.00  0.00    +0.000 A 
ATOM     11  C   UNL     1       2.948   3.297  17.837  0.00  0.00    +0.000 A 
ATOM     12  C   UNL     1       4.068   3.992  17.378  0.00  0.00    +0.000 A 
BRANCH  10  13
ATOM     13  C   UNL     1       1.136   2.885  19.545  0.00  0.00    +0.000 C 
ATOM     14  F   UNL     1       0.337   3.612  20.375  0.00  0.00    +0.000 F 
ATOM     15  F   UNL     1       0.336   2.473  18.523  0.00  0.00    +0.000 F 
ATOM     16  F   UNL     1       1.467   1.759  20.237  0.00  0.00    +0.000 F 
ENDBRANCH  10  13
ENDBRANCH   4   7
ENDBRANCH   1   2
BRANCH   1  17
ATOM     17  N   UNL     1       8.585   8.920  18.750  0.00  0.00    +0.000 N 
ATOM     18  H   UNL     1       8.000   8.654  19.539  0.00  0.00    +0.000 HD
BRANCH  17  22
ATOM     19  C   UNL     1      10.493  12.664  19.103  0.00  0.00    +0.000 A 
ATOM     20  C   UNL     1       9.950  12.054  20.237  0.00  0.00    +0.000 A 
ATOM     21  C   UNL     1       9.333  10.804  20.140  0.00  0.00    +0.000 A 
ATOM     22  C   UNL     1       9.280  10.113  18.923  0.00  0.00    +0.000 A 
ATOM     23  C   UNL     1       9.847  10.730  17.795  0.00  0.00    +0.000 A 
ATOM     24  C   UNL     1      10.450  11.995  17.878  0.00  0.00    +0.000 A 
BRANCH  19  26
ATOM     25  O   UNL     1      12.081  14.149  19.991  0.00  0.00    +0.000 OA
ATOM     26  C   UNL     1      11.101  14.010  19.265  0.00  0.00    +0.000 C 
ATOM     27  N   UNL     1      10.468  15.053  18.614  0.00  0.00    +0.000 N 
ATOM     28  H   UNL     1       9.567  14.889  18.185  0.00  0.00    +0.000 HD
BRANCH  27  29
ATOM     29  C   UNL     1      10.901  16.406  18.778  0.00  0.00    +0.000 C 
ATOM     30  C   UNL     1      10.478  17.479  17.813  0.00  0.00    +0.000 C 
ATOM     31  C   UNL     1      11.902  17.005  17.831  0.00  0.00    +0.000 C 
ENDBRANCH  27  29
ENDBRANCH  19  26
ENDBRANCH  17  22
ENDBRANCH   1  17
TORSDOF 7
ENDMDL
MODEL 4
REMARK VINA RESULT:      -7.9      2.032      2.977
REMARK  Name = 
REMARK  7 active torsions:
REMARK  status: ('A' for Active; 'I' for Inactive)
REMARK    1  A    between atoms: C_2  and  C_7
REMARK    2  A    between atoms: N_3  and  C_4
REMARK    3  A    between atoms: C_10  and  N_11
REMARK    4  A    between atoms: N_11  and  C_12
REMARK    5  A    between atoms: C_12  and  C_13
REMARK    6  A    between atoms: C_15  and  C_16
REMARK    7  A    between atoms: C_19  and  C_20
REMARK                            x       y       z     vdW  Elec       q    Type
REMARK                         _______ _______ _______ _____ _____    ______ ____
ROOT
ATOM      1  C   UNL     1       5.374   4.253  19.191  0.00  0.00    +0.000 C 
ENDROOT
BRANCH   1   2
ATOM      2  C   UNL     1       4.171   5.097  19.443  0.00  0.00    +0.000 A 
ATOM      3  N   UNL     1       3.894   6.318  19.041  0.00  0.00    +0.000 NA
ATOM      4  C   UNL     1       2.656   6.538  19.606  0.00  0.00    +0.000 A 
ATOM      5  N   UNL     1       2.179   5.494  20.305  0.00  0.00    +0.000 NA
ATOM      6  O   UNL     1       3.183   4.538  20.196  0.00  0.00    +0.000 OA
BRANCH   4   7
ATOM      7  C   UNL     1       1.947   7.803  19.449  0.00  0.00    +0.000 A 
ATOM      8  C   UNL     1       1.316   8.396  20.552  0.00  0.00    +0.000 A 
ATOM      9  C   UNL     1       0.633   9.606  20.418  0.00  0.00    +0.000 A 
ATOM     10  C   UNL     1       0.565  10.251  19.175  0.00  0.00    +0.000 A 
ATOM     11  C   UNL     1       1.194   9.659  18.069  0.00  0.00    +0.000 A 
ATOM     12  C   UNL     1       1.877   8.449  18.207  0.00  0.00    +0.000 A 
BRANCH  10  13
ATOM     13  C   UNL     1      -0.167  11.561  19.015  0.00  0.00    +0.000 C 
ATOM     14  F   UNL     1       0.660  12.638  18.910  0.00  0.00    +0.000 F 
ATOM     15  F   UNL     1      -0.955  11.585  17.904  0.00  0.00    +0.000 F 
ATOM     16  F   UNL     1      -0.994  11.826  20.064  0.00  0.00    +0.000 F 
ENDBRANCH  10  13
ENDBRANCH   4   7
ENDBRANCH   1   2
BRANCH   1  17
ATOM     17  N   UNL     1       6.324   4.795  18.220  0.00  0.00    +0.000 N 
ATOM     18  H   UNL     1       6.690   5.710  18.474  0.00  0.00    +0.000 HD
BRANCH  17  22
ATOM     19  C   UNL     1       5.978   4.032  14.088  0.00  0.00    +0.000 A 
ATOM     20  C   UNL     1       4.920   3.711  14.942  0.00  0.00    +0.000 A 
ATOM     21  C   UNL     1       5.011   3.977  16.311  0.00  0.00    +0.000 A 
ATOM     22  C   UNL     1       6.137   4.606  16.854  0.00  0.00    +0.000 A 
ATOM     23  C   UNL     1       7.186   4.941  15.981  0.00  0.00    +0.000 A 
ATOM     24  C   UNL     1       7.112   4.658  14.608  0.00  0.00    +0.000 A 
BRANCH  19  26
ATOM     25  O   UNL     1       6.839   3.552  11.956  0.00  0.00    +0.000 OA
ATOM     26  C   UNL     1       5.835   3.688  12.649  0.00  0.00    +0.000 C 
ATOM     27  N   UNL     1       4.544   3.600  12.164  0.00  0.00    +0.000 N 
ATOM     28  H   UNL     1       3.777   3.902  12.750  0.00  0.00    +0.000 HD
BRANCH  27  29
ATOM     29  C   UNL     1       4.283   3.377  10.776  0.00  0.00    +0.000 C 
ATOM     30  C   UNL     1       3.221   4.156  10.049  0.00  0.00    +0.000 C 
ATOM     31  C   UNL     1       3.016   2.697  10.338  0.00  0.00    +0.000 C 
ENDBRANCH  27  29
ENDBRANCH  19  26
ENDBRANCH  17  22
ENDBRANCH   1  17
TORSDOF 7
ENDMDL
MODEL 5
REMARK VINA RESULT:      -7.9      0.937      1.411
REMARK  Name = 
REMARK  7 active torsions:
REMARK  status: ('A' for Active; 'I' for Inactive)
REMARK    1  A    between atoms: C_2  and  C_7
REMARK    2  A    between atoms: N_3  and  C_4
REMARK    3  A    between atoms: C_10  and  N_11
REMARK    4  A    between atoms: N_11  and  C_12
REMARK    5  A    between atoms: C_12  and  C_13
REMARK    6  A    between atoms: C_15  and  C_16
REMARK    7  A    between atoms: C_19  and  C_20
REMARK                            x       y       z     vdW  Elec       q    Type
REMARK                         _______ _______ _______ _____ _____    ______ ____
ROOT
ATOM      1  C   UNL     1       3.138   5.676  19.214  0.00  0.00    +0.000 C 
ENDROOT
BRANCH   1   2
ATOM      2  C   UNL     1       2.405   6.971  19.324  0.00  0.00    +0.000 A 
ATOM      3  N   UNL     1       1.787   7.509  20.352  0.00  0.00    +0.000 NA
ATOM      4  C   UNL     1       1.307   8.687  19.820  0.00  0.00    +0.000 A 
ATOM      5  N   UNL     1       1.633   8.879  18.531  0.00  0.00    +0.000 NA
ATOM      6  O   UNL     1       2.362   7.742  18.201  0.00  0.00    +0.000 OA
BRANCH   4   7
ATOM      7  C   UNL     1       0.514   9.624  20.607  0.00  0.00    +0.000 A 
ATOM      8  C   UNL     1       0.212  10.893  20.092  0.00  0.00    +0.000 A 
ATOM      9  C   UNL     1      -0.546  11.802  20.834  0.00  0.00    +0.000 A 
ATOM     10  C   UNL     1      -1.018  11.462  22.109  0.00  0.00    +0.000 A 
ATOM     11  C   UNL     1      -0.715  10.193  22.627  0.00  0.00    +0.000 A 
ATOM     12  C   UNL     1       0.042   9.286  21.883  0.00  0.00    +0.000 A 
BRANCH  10  13
ATOM     13  C   UNL     1      -1.840  12.433  22.921  0.00  0.00    +0.000 C 
ATOM     14  F   UNL     1      -2.523  11.847  23.943  0.00  0.00    +0.000 F 
ATOM     15  F   UNL     1      -1.080  13.409  23.490  0.00  0.00    +0.000 F 
ATOM     16  F   UNL     1      -2.774  13.078  22.169  0.00  0.00    +0.000 F 
ENDBRANCH  10  13
ENDBRANCH   4   7
ENDBRANCH   1   2
BRANCH   1  17
ATOM     17  N   UNL     1       4.524   5.782  18.759  0.00  0.00    +0.000 N 
ATOM     18  H   UNL     1       5.000   6.619  19.090  0.00  0.00    +0.000 HD
BRANCH  17  22
ATOM     19  C   UNL     1       5.874   4.713  14.911  0.00  0.00    +0.000 A 
ATOM     20  C   UNL     1       5.725   3.728  15.890  0.00  0.00    +0.000 A 
ATOM     21  C   UNL     1       5.259   4.063  17.164  0.00  0.00    +0.000 A 
ATOM     22  C   UNL     1       4.890   5.376  17.480  0.00  0.00    +0.000 A 
ATOM     23  C   UNL     1       5.027   6.353  16.479  0.00  0.00    +0.000 A 
ATOM     24  C   UNL     1       5.514   6.030  15.203  0.00  0.00    +0.000 A 
BRANCH  19  26
ATOM     25  O   UNL     1       7.335   4.931  13.084  0.00  0.00    +0.000 OA
ATOM     26  C   UNL     1       6.411   4.299  13.588  0.00  0.00    +0.000 C 
ATOM     27  N   UNL     1       5.777   3.235  12.973  0.00  0.00    +0.000 N 
ATOM     28  H   UNL     1       4.913   2.885  13.366  0.00  0.00    +0.000 HD
BRANCH  27  29
ATOM     29  C   UNL     1       6.138   2.813  11.656  0.00  0.00    +0.000 C 
ATOM     30  C   UNL     1       5.902   1.399  11.200  0.00  0.00    +0.000 C 
ATOM     31  C   UNL     1       7.301   1.884  11.446  0.00  0.00    +0.000 C 
ENDBRANCH  27  29
ENDBRANCH  19  26
ENDBRANCH  17  22
ENDBRANCH   1  17
TORSDOF 7
ENDMDL
MODEL 6
REMARK VINA RESULT:      -7.7      5.579     11.535
REMARK  Name = 
REMARK  7 active torsions:
REMARK  status: ('A' for Active; 'I' for Inactive)
REMARK    1  A    between atoms: C_2  and  C_7
REMARK    2  A    between atoms: N_3  and  C_4
REMARK    3  A    between atoms: C_10  and  N_11
REMARK    4  A    between atoms: N_11  and  C_12
REMARK    5  A    between atoms: C_12  and  C_13
REMARK    6  A    between atoms: C_15  and  C_16
REMARK    7  A    between atoms: C_19  and  C_20
REMARK                            x       y       z     vdW  Elec       q    Type
REMARK                         _______ _______ _______ _____ _____    ______ ____
ROOT
ATOM      1  C   UNL     1       0.915  11.582  18.881  0.00  0.00    +0.000 C 
ENDROOT
BRANCH   1   2
ATOM      2  C   UNL     1       1.413  10.196  18.645  0.00  0.00    +0.000 A 
ATOM      3  N   UNL     1       1.311   9.120  19.394  0.00  0.00    +0.000 NA
ATOM      4  C   UNL     1       1.974   8.175  18.641  0.00  0.00    +0.000 A 
ATOM      5  N   UNL     1       2.441   8.638  17.469  0.00  0.00    +0.000 NA
ATOM      6  O   UNL     1       2.069   9.977  17.471  0.00  0.00    +0.000 OA
BRANCH   4   7
ATOM      7  C   UNL     1       2.142   6.800  19.098  0.00  0.00    +0.000 A 
ATOM      8  C   UNL     1       2.602   5.817  18.211  0.00  0.00    +0.000 A 
ATOM      9  C   UNL     1       2.768   4.496  18.633  0.00  0.00    +0.000 A 
ATOM     10  C   UNL     1       2.475   4.129  19.954  0.00  0.00    +0.000 A 
ATOM     11  C   UNL     1       2.012   5.111  20.844  0.00  0.00    +0.000 A 
ATOM     12  C   UNL     1       1.848   6.431  20.418  0.00  0.00    +0.000 A 
BRANCH  10  13
ATOM     13  C   UNL     1       2.651   2.706  20.425  0.00  0.00    +0.000 C 
ATOM     14  F   UNL     1       3.953   2.308  20.479  0.00  0.00    +0.000 F 
ATOM     15  F   UNL     1       2.147   2.505  21.674  0.00  0.00    +0.000 F 
ATOM     16  F   UNL     1       2.020   1.810  19.619  0.00  0.00    +0.000 F 
ENDBRANCH  10  13
ENDBRANCH   4   7
ENDBRANCH   1   2
BRANCH   1  17
ATOM     17  N   UNL     1      -0.258  11.965  18.097  0.00  0.00    +0.000 N 
ATOM     18  H   UNL     1      -0.082  12.721  17.440  0.00  0.00    +0.000 HD
BRANCH  17  22
ATOM     19  C   UNL     1      -4.091  12.306  19.821  0.00  0.00    +0.000 A 
ATOM     20  C   UNL     1      -3.944  11.682  18.580  0.00  0.00    +0.000 A 
ATOM     21  C   UNL     1      -2.678  11.543  18.005  0.00  0.00    +0.000 A 
ATOM     22  C   UNL     1      -1.527  11.981  18.670  0.00  0.00    +0.000 A 
ATOM     23  C   UNL     1      -1.688  12.590  19.927  0.00  0.00    +0.000 A 
ATOM     24  C   UNL     1      -2.957  12.753  20.502  0.00  0.00    +0.000 A 
BRANCH  19  26
ATOM     25  O   UNL     1      -6.407  12.621  19.587  0.00  0.00    +0.000 OA
ATOM     26  C   UNL     1      -5.468  12.458  20.360  0.00  0.00    +0.000 C 
ATOM     27  N   UNL     1      -5.591  12.463  21.737  0.00  0.00    +0.000 N 
ATOM     28  H   UNL     1      -4.755  12.507  22.305  0.00  0.00    +0.000 HD
BRANCH  27  29
ATOM     29  C   UNL     1      -6.850  12.705  22.372  0.00  0.00    +0.000 C 
ATOM     30  C   UNL     1      -7.013  13.809  23.380  0.00  0.00    +0.000 C 
ATOM     31  C   UNL     1      -7.045  12.376  23.826  0.00  0.00    +0.000 C 
ENDBRANCH  27  29
ENDBRANCH  19  26
ENDBRANCH  17  22
ENDBRANCH   1  17
TORSDOF 7
ENDMDL
MODEL 7
REMARK VINA RESULT:      -7.7      5.737     11.741
REMARK  Name = 
REMARK  7 active torsions:
REMARK  status: ('A' for Active; 'I' for Inactive)
REMARK    1  A    between atoms: C_2  and  C_7
REMARK    2  A    between atoms: N_3  and  C_4
REMARK    3  A    between atoms: C_10  and  N_11
REMARK    4  A    between atoms: N_11  and  C_12
REMARK    5  A    between atoms: C_12  and  C_13
REMARK    6  A    between atoms: C_15  and  C_16
REMARK    7  A    between atoms: C_19  and  C_20
REMARK                            x       y       z     vdW  Elec       q    Type
REMARK                         _______ _______ _______ _____ _____    ______ ____
ROOT
ATOM      1  C   UNL     1       0.776   8.435  21.324  0.00  0.00    +0.000 C 
ENDROOT
BRANCH   1   2
ATOM      2  C   UNL     1       1.538   8.188  20.066  0.00  0.00    +0.000 A 
ATOM      3  N   UNL     1       2.212   7.128  19.680  0.00  0.00    +0.000 NA
ATOM      4  C   UNL     1       2.689   7.518  18.446  0.00  0.00    +0.000 A 
ATOM      5  N   UNL     1       2.307   8.752  18.077  0.00  0.00    +0.000 NA
ATOM      6  O   UNL     1       1.543   9.196  19.150  0.00  0.00    +0.000 OA
BRANCH   4   7
ATOM      7  C   UNL     1       3.536   6.652  17.634  0.00  0.00    +0.000 A 
ATOM      8  C   UNL     1       3.380   5.260  17.697  0.00  0.00    +0.000 A 
ATOM      9  C   UNL     1       4.183   4.416  16.927  0.00  0.00    +0.000 A 
ATOM     10  C   UNL     1       5.163   4.947  16.076  0.00  0.00    +0.000 A 
ATOM     11  C   UNL     1       5.322   6.340  16.014  0.00  0.00    +0.000 A 
ATOM     12  C   UNL     1       4.517   7.181  16.785  0.00  0.00    +0.000 A 
BRANCH  10  13
ATOM     13  C   UNL     1       6.036   4.048  15.236  0.00  0.00    +0.000 C 
ATOM     14  F   UNL     1       5.739   4.087  13.907  0.00  0.00    +0.000 F 
ATOM     15  F   UNL     1       7.356   4.367  15.333  0.00  0.00    +0.000 F 
ATOM     16  F   UNL     1       5.939   2.740  15.601  0.00  0.00    +0.000 F 
ENDBRANCH  10  13
ENDBRANCH   4   7
ENDBRANCH   1   2
BRANCH   1  17
ATOM     17  N   UNL     1       0.935   9.772  21.896  0.00  0.00    +0.000 N 
ATOM     18  H   UNL     1       1.584   9.806  22.679  0.00  0.00    +0.000 HD
BRANCH  17  22
ATOM     19  C   UNL     1      -2.490  12.226  22.035  0.00  0.00    +0.000 A 
ATOM     20  C   UNL     1      -2.082  11.542  23.182  0.00  0.00    +0.000 A 
ATOM     21  C   UNL     1      -0.938  10.741  23.158  0.00  0.00    +0.000 A 
ATOM     22  C   UNL     1      -0.149  10.637  22.006  0.00  0.00    +0.000 A 
ATOM     23  C   UNL     1      -0.561  11.346  20.865  0.00  0.00    +0.000 A 
ATOM     24  C   UNL     1      -1.721  12.136  20.873  0.00  0.00    +0.000 A 
BRANCH  19  26
ATOM     25  O   UNL     1      -3.717  14.129  22.663  0.00  0.00    +0.000 OA
ATOM     26  C   UNL     1      -3.738  13.030  22.115  0.00  0.00    +0.000 C 
ATOM     27  N   UNL     1      -4.881  12.444  21.603  0.00  0.00    +0.000 N 
ATOM     28  H   UNL     1      -4.854  11.469  21.334  0.00  0.00    +0.000 HD
BRANCH  27  29
ATOM     29  C   UNL     1      -6.157  13.078  21.716  0.00  0.00    +0.000 C 
ATOM     30  C   UNL     1      -7.281  12.432  22.479  0.00  0.00    +0.000 C 
ATOM     31  C   UNL     1      -7.348  12.528  20.982  0.00  0.00    +0.000 C 
ENDBRANCH  27  29
ENDBRANCH  19  26
ENDBRANCH  17  22
ENDBRANCH   1  17
TORSDOF 7
ENDMDL
MODEL 8
REMARK VINA RESULT:      -7.6      5.832     10.330
REMARK  Name = 
REMARK  7 active torsions:
REMARK  status: ('A' for Active; 'I' for Inactive)
REMARK    1  A    between atoms: C_2  and  C_7
REMARK    2  A    between atoms: N_3  and  C_4
REMARK    3  A    between atoms: C_10  and  N_11
REMARK    4  A    between atoms: N_11  and  C_12
REMARK    5  A    between atoms: C_12  and  C_13
REMARK    6  A    between atoms: C_15  and  C_16
REMARK    7  A    between atoms: C_19  and  C_20
REMARK                            x       y       z     vdW  Elec       q    Type
REMARK                         _______ _______ _______ _____ _____    ______ ____
ROOT
ATOM      1  C   UNL     1       0.822   8.716  21.189  0.00  0.00    +0.000 C 
ENDROOT
BRANCH   1   2
ATOM      2  C   UNL     1       1.540   7.610  20.492  0.00  0.00    +0.000 A 
ATOM      3  N   UNL     1       2.271   7.631  19.400  0.00  0.00    +0.000 NA
ATOM      4  C   UNL     1       2.642   6.310  19.270  0.00  0.00    +0.000 A 
ATOM      5  N   UNL     1       2.181   5.514  20.250  0.00  0.00    +0.000 NA
ATOM      6  O   UNL     1       1.452   6.375  21.061  0.00  0.00    +0.000 OA
BRANCH   4   7
ATOM      7  C   UNL     1       3.459   5.841  18.156  0.00  0.00    +0.000 A 
ATOM      8  C   UNL     1       3.506   4.474  17.848  0.00  0.00    +0.000 A 
ATOM      9  C   UNL     1       4.284   4.009  16.785  0.00  0.00    +0.000 A 
ATOM     10  C   UNL     1       5.034   4.902  16.008  0.00  0.00    +0.000 A 
ATOM     11  C   UNL     1       4.990   6.271  16.317  0.00  0.00    +0.000 A 
ATOM     12  C   UNL     1       4.211   6.733  17.379  0.00  0.00    +0.000 A 
BRANCH  10  13
ATOM     13  C   UNL     1       5.878   4.415  14.856  0.00  0.00    +0.000 C 
ATOM     14  F   UNL     1       6.952   5.210  14.592  0.00  0.00    +0.000 F 
ATOM     15  F   UNL     1       6.379   3.167  15.069  0.00  0.00    +0.000 F 
ATOM     16  F   UNL     1       5.174   4.341  13.692  0.00  0.00    +0.000 F 
ENDBRANCH  10  13
ENDBRANCH   4   7
ENDBRANCH   1   2
BRANCH   1  17
ATOM     17  N   UNL     1       0.219   9.719  20.311  0.00  0.00    +0.000 N 
ATOM     18  H   UNL     1      -0.300   9.320  19.532  0.00  0.00    +0.000 HD
BRANCH  17  22
ATOM     19  C   UNL     1       2.041  13.358  19.207  0.00  0.00    +0.000 A 
ATOM     20  C   UNL     1       1.510  13.211  20.491  0.00  0.00    +0.000 A 
ATOM     21  C   UNL     1       0.922  12.004  20.879  0.00  0.00    +0.000 A 
ATOM     22  C   UNL     1       0.887  10.903  20.014  0.00  0.00    +0.000 A 
ATOM     23  C   UNL     1       1.442  11.059  18.733  0.00  0.00    +0.000 A 
ATOM     24  C   UNL     1       2.015  12.274  18.327  0.00  0.00    +0.000 A 
BRANCH  19  26
ATOM     25  O   UNL     1       3.829  14.856  18.935  0.00  0.00    +0.000 OA
ATOM     26  C   UNL     1       2.618  14.678  18.843  0.00  0.00    +0.000 C 
ATOM     27  N   UNL     1       1.719  15.660  18.470  0.00  0.00    +0.000 N 
ATOM     28  H   UNL     1       0.729  15.492  18.593  0.00  0.00    +0.000 HD
BRANCH  27  29
ATOM     29  C   UNL     1       2.146  16.997  18.197  0.00  0.00    +0.000 C 
ATOM     30  C   UNL     1       1.275  17.949  17.424  0.00  0.00    +0.000 C 
ATOM     31  C   UNL     1       2.528  17.404  16.802  0.00  0.00    +0.000 C 
ENDBRANCH  27  29
ENDBRANCH  19  26
ENDBRANCH  17  22
ENDBRANCH   1  17
TORSDOF 7
ENDMDL
MODEL 9
REMARK VINA RESULT:      -7.6      7.356      9.554
REMARK  Name = 
REMARK  7 active torsions:
REMARK  status: ('A' for Active; 'I' for Inactive)
REMARK    1  A    between atoms: C_2  and  C_7
REMARK    2  A    between atoms: N_3  and  C_4
REMARK    3  A    between atoms: C_10  and  N_11
REMARK    4  A    between atoms: N_11  and  C_12
REMARK    5  A    between atoms: C_12  and  C_13
REMARK    6  A    between atoms: C_15  and  C_16
REMARK    7  A    between atoms: C_19  and  C_20
REMARK                            x       y       z     vdW  Elec       q    Type
REMARK                         _______ _______ _______ _____ _____    ______ ____
ROOT
ATOM      1  C   UNL     1       8.395   8.146  17.578  0.00  0.00    +0.000 C 
ENDROOT
BRANCH   1   2
ATOM      2  C   UNL     1       7.150   7.338  17.435  0.00  0.00    +0.000 A 
ATOM      3  N   UNL     1       6.481   6.646  18.332  0.00  0.00    +0.000 NA
ATOM      4  C   UNL     1       5.445   6.125  17.586  0.00  0.00    +0.000 A 
ATOM      5  N   UNL     1       5.459   6.496  16.295  0.00  0.00    +0.000 NA
ATOM      6  O   UNL     1       6.588   7.301  16.194  0.00  0.00    +0.000 OA
BRANCH   4   7
ATOM      7  C   UNL     1       4.438   5.246  18.169  0.00  0.00    +0.000 A 
ATOM      8  C   UNL     1       4.057   5.408  19.509  0.00  0.00    +0.000 A 
ATOM      9  C   UNL     1       3.095   4.575  20.083  0.00  0.00    +0.000 A 
ATOM     10  C   UNL     1       2.492   3.559  19.328  0.00  0.00    +0.000 A 
ATOM     11  C   UNL     1       2.873   3.394  17.988  0.00  0.00    +0.000 A 
ATOM     12  C   UNL     1       3.835   4.229  17.417  0.00  0.00    +0.000 A 
BRANCH  10  13
ATOM     13  C   UNL     1       1.449   2.652  19.934  0.00  0.00    +0.000 C 
ATOM     14  F   UNL     1       1.754   2.236  21.195  0.00  0.00    +0.000 F 
ATOM     15  F   UNL     1       0.229   3.250  20.023  0.00  0.00    +0.000 F 
ATOM     16  F   UNL     1       1.258   1.519  19.204  0.00  0.00    +0.000 F 
ENDBRANCH  10  13
ENDBRANCH   4   7
ENDBRANCH   1   2
BRANCH   1  17
ATOM     17  N   UNL     1       8.560   8.814  18.869  0.00  0.00    +0.000 N 
ATOM     18  H   UNL     1       7.823   8.598  19.537  0.00  0.00    +0.000 HD
BRANCH  17  22
ATOM     19  C   UNL     1      10.293  12.646  19.165  0.00  0.00    +0.000 A 
ATOM     20  C   UNL     1       9.789  12.207  17.939  0.00  0.00    +0.000 A 
ATOM     21  C   UNL     1       9.193  10.948  17.829  0.00  0.00    +0.000 A 
ATOM     22  C   UNL     1       9.046  10.115  18.944  0.00  0.00    +0.000 A 
ATOM     23  C   UNL     1       9.540  10.577  20.176  0.00  0.00    +0.000 A 
ATOM     24  C   UNL     1      10.160  11.831  20.291  0.00  0.00    +0.000 A 
BRANCH  19  26
ATOM     25  O   UNL     1      11.879  14.172  19.987  0.00  0.00    +0.000 OA
ATOM     26  C   UNL     1      10.950  13.978  19.208  0.00  0.00    +0.000 C 
ATOM     27  N   UNL     1      10.417  14.953  18.384  0.00  0.00    +0.000 N 
ATOM     28  H   UNL     1       9.543  14.769  17.909  0.00  0.00    +0.000 HD
BRANCH  27  29
ATOM     29  C   UNL     1      10.899  16.298  18.414  0.00  0.00    +0.000 C 
ATOM     30  C   UNL     1      10.644  17.241  17.270  0.00  0.00    +0.000 C 
ATOM     31  C   UNL     1      12.030  16.722  17.519  0.00  0.00    +0.000 C 
ENDBRANCH  27  29
ENDBRANCH  19  26
ENDBRANCH  17  22
ENDBRANCH   1  17
TORSDOF 7
ENDMDL
