MODEL 1
REMARK VINA RESULT:      -8.8      0.000      0.000
REMARK  Name = 
REMARK  5 active torsions:
REMARK  status: ('A' for Active; 'I' for Inactive)
REMARK    1  A    between atoms: C_2  and  C_22
REMARK    2  A    between atoms: N_3  and  C_4
REMARK    3  A    between atoms: C_9  and  S_10
REMARK    4  A    between atoms: S_10  and  N_13
REMARK    5  A    between atoms: N_13  and  C_14
REMARK                            x       y       z     vdW  Elec       q    Type
REMARK                         _______ _______ _______ _____ _____    ______ ____
ROOT
ATOM      1  C   UNL     1       1.514   8.645  20.123  0.00  0.00    +0.000 A 
ATOM      2  C   UNL     1       1.360   8.313  21.465  0.00  0.00    +0.000 A 
ATOM      3  C   UNL     1       0.555   9.085  22.305  0.00  0.00    +0.000 A 
ATOM      4  C   UNL     1      -0.139  10.199  21.814  0.00  0.00    +0.000 A 
ATOM      5 CL   UNL     1      -1.085  11.044  22.976  0.00  0.00    +0.000 Cl
ATOM      6  C   UNL     1      -0.023  10.528  20.457  0.00  0.00    +0.000 A 
ATOM      7  C   UNL     1       0.853   9.779  19.634  0.00  0.00    +0.000 A 
ENDROOT
BRANCH   1  10
ATOM      8  O   UNL     1       1.888   5.753  20.136  0.00  0.00    +0.000 OA
ATOM      9  C   UNL     1       2.422   6.485  19.307  0.00  0.00    +0.000 C 
ATOM     10  N   UNL     1       2.287   7.864  19.228  0.00  0.00    +0.000 N 
ATOM     11  H   UNL     1       2.620   8.321  18.386  0.00  0.00    +0.000 HD
BRANCH   9  12
ATOM     12  C   UNL     1       3.211   5.824  18.240  0.00  0.00    +0.000 A 
ATOM     13  C   UNL     1       3.068   4.431  18.099  0.00  0.00    +0.000 A 
ATOM     14  C   UNL     1       3.809   3.706  17.161  0.00  0.00    +0.000 A 
ATOM     15  C   UNL     1       4.707   4.441  16.389  0.00  0.00    +0.000 A 
ATOM     16  N   UNL     1       5.598   4.071  15.413  0.00  0.00    +0.000 N 
ATOM     17  C   UNL     1       6.255   5.195  14.998  0.00  0.00    +0.000 A 
ATOM     18  N   UNL     1       5.839   6.265  15.636  0.00  0.00    +0.000 NA
ATOM     19  C   UNL     1       4.878   5.817  16.509  0.00  0.00    +0.000 A 
ATOM     20  C   UNL     1       4.119   6.535  17.446  0.00  0.00    +0.000 A 
ATOM     21  H   UNL     1       5.750   3.134  15.070  0.00  0.00    +0.000 HD
ENDBRANCH   9  12
ENDBRANCH   1  10
BRANCH   6  22
ATOM     22  S   UNL     1      -0.839  11.922  19.693  0.00  0.00    +0.000 S 
ATOM     23  O   UNL     1      -0.888  13.018  20.620  0.00  0.00    +0.000 OA
ATOM     24  O   UNL     1      -0.233  12.101  18.386  0.00  0.00    +0.000 OA
BRANCH  22  25
ATOM     25  N   UNL     1      -2.455  11.411  19.470  0.00  0.00    +0.000 N 
ATOM     26  H   UNL     1      -3.070  12.051  19.984  0.00  0.00    +0.000 HD
BRANCH  25  27
ATOM     27  C   UNL     1      -2.891  11.071  18.139  0.00  0.00    +0.000 A 
ATOM     28  C   UNL     1      -2.060  10.250  17.378  0.00  0.00    +0.000 A 
ATOM     29  C   UNL     1      -2.405   9.897  16.064  0.00  0.00    +0.000 A 
ATOM     30  C   UNL     1      -3.605  10.340  15.512  0.00  0.00    +0.000 A 
ATOM     31  C   UNL     1      -4.447  11.162  16.262  0.00  0.00    +0.000 A 
ATOM     32  C   UNL     1      -4.082  11.550  17.559  0.00  0.00    +0.000 A 
ATOM     33 CL   UNL     1      -5.128  12.647  18.386  0.00  0.00    +0.000 Cl
ENDBRANCH  25  27
ENDBRANCH  22  25
ENDBRANCH   6  22
TORSDOF 5
ENDMDL
MODEL 2
REMARK VINA RESULT:      -8.8      2.061      2.725
REMARK  Name = 
REMARK  5 active torsions:
REMARK  status: ('A' for Active; 'I' for Inactive)
REMARK    1  A    between atoms: C_2  and  C_22
REMARK    2  A    between atoms: N_3  and  C_4
REMARK    3  A    between atoms: C_9  and  S_10
REMARK    4  A    between atoms: S_10  and  N_13
REMARK    5  A    between atoms: N_13  and  C_14
REMARK                            x       y       z     vdW  Elec       q    Type
REMARK                         _______ _______ _______ _____ _____    ______ ____
ROOT
ATOM      1  C   UNL     1       0.777   9.064  21.630  0.00  0.00    +0.000 A 
ATOM      2  C   UNL     1      -0.158   8.993  22.655  0.00  0.00    +0.000 A 
ATOM      3  C   UNL     1      -0.848  10.132  23.076  0.00  0.00    +0.000 A 
ATOM      4  C   UNL     1      -0.633  11.372  22.459  0.00  0.00    +0.000 A 
ATOM      5 CL   UNL     1      -1.558  12.676  23.094  0.00  0.00    +0.000 Cl
ATOM      6  C   UNL     1       0.281  11.455  21.401  0.00  0.00    +0.000 A 
ATOM      7  C   UNL     1       1.024  10.307  21.034  0.00  0.00    +0.000 A 
ENDROOT
BRANCH   1  10
ATOM      8  O   UNL     1       1.667   8.538  18.903  0.00  0.00    +0.000 OA
ATOM      9  C   UNL     1       1.849   7.744  19.822  0.00  0.00    +0.000 C 
ATOM     10  N   UNL     1       1.466   7.925  21.145  0.00  0.00    +0.000 N 
ATOM     11  H   UNL     1       1.847   7.286  21.834  0.00  0.00    +0.000 HD
BRANCH   9  12
ATOM     12  C   UNL     1       2.629   6.523  19.508  0.00  0.00    +0.000 A 
ATOM     13  C   UNL     1       3.433   6.548  18.353  0.00  0.00    +0.000 A 
ATOM     14  C   UNL     1       4.162   5.429  17.939  0.00  0.00    +0.000 A 
ATOM     15  C   UNL     1       4.031   4.286  18.726  0.00  0.00    +0.000 A 
ATOM     16  N   UNL     1       4.563   3.027  18.613  0.00  0.00    +0.000 N 
ATOM     17  C   UNL     1       4.085   2.276  19.650  0.00  0.00    +0.000 A 
ATOM     18  N   UNL     1       3.288   2.973  20.428  0.00  0.00    +0.000 NA
ATOM     19  C   UNL     1       3.239   4.226  19.868  0.00  0.00    +0.000 A 
ATOM     20  C   UNL     1       2.521   5.360  20.280  0.00  0.00    +0.000 A 
ATOM     21  H   UNL     1       5.187   2.707  17.887  0.00  0.00    +0.000 HD
ENDBRANCH   9  12
ENDBRANCH   1  10
BRANCH   6  22
ATOM     22  S   UNL     1       0.664  12.967  20.528  0.00  0.00    +0.000 S 
ATOM     23  O   UNL     1       0.880  14.027  21.473  0.00  0.00    +0.000 OA
ATOM     24  O   UNL     1       1.688  12.642  19.552  0.00  0.00    +0.000 OA
BRANCH  22  25
ATOM     25  N   UNL     1      -0.773  13.360  19.689  0.00  0.00    +0.000 N 
ATOM     26  H   UNL     1      -0.587  14.174  19.093  0.00  0.00    +0.000 HD
BRANCH  25  27
ATOM     27  C   UNL     1      -1.517  12.295  19.065  0.00  0.00    +0.000 A 
ATOM     28  C   UNL     1      -0.838  11.473  18.167  0.00  0.00    +0.000 A 
ATOM     29  C   UNL     1      -1.503  10.431  17.501  0.00  0.00    +0.000 A 
ATOM     30  C   UNL     1      -2.851  10.186  17.753  0.00  0.00    +0.000 A 
ATOM     31  C   UNL     1      -3.544  11.001  18.649  0.00  0.00    +0.000 A 
ATOM     32  C   UNL     1      -2.891  12.069  19.282  0.00  0.00    +0.000 A 
ATOM     33 CL   UNL     1      -3.839  13.092  20.300  0.00  0.00    +0.000 Cl
ENDBRANCH  25  27
ENDBRANCH  22  25
ENDBRANCH   6  22
TORSDOF 5
ENDMDL
MODEL 3
REMARK VINA RESULT:      -8.7      2.239      3.976
REMARK  Name = 
REMARK  5 active torsions:
REMARK  status: ('A' for Active; 'I' for Inactive)
REMARK    1  A    between atoms: C_2  and  C_22
REMARK    2  A    between atoms: N_3  and  C_4
REMARK    3  A    between atoms: C_9  and  S_10
REMARK    4  A    between atoms: S_10  and  N_13
REMARK    5  A    between atoms: N_13  and  C_14
REMARK                            x       y       z     vdW  Elec       q    Type
REMARK                         _______ _______ _______ _____ _____    ______ ____
ROOT
ATOM      1  C   UNL     1       0.961   9.476  18.002  0.00  0.00    +0.000 A 
ATOM      2  C   UNL     1      -0.406   9.292  17.825  0.00  0.00    +0.000 A 
ATOM      3  C   UNL     1      -1.316  10.284  18.197  0.00  0.00    +0.000 A 
ATOM      4  C   UNL     1      -0.875  11.501  18.736  0.00  0.00    +0.000 A 
ATOM      5 CL   UNL     1      -2.119  12.615  19.145  0.00  0.00    +0.000 Cl
ATOM      6  C   UNL     1       0.500  11.716  18.891  0.00  0.00    +0.000 A 
ATOM      7  C   UNL     1       1.406  10.674  18.575  0.00  0.00    +0.000 A 
ENDROOT
BRANCH   1  10
ATOM      8  O   UNL     1       2.209   7.403  19.630  0.00  0.00    +0.000 OA
ATOM      9  C   UNL     1       2.475   7.560  18.441  0.00  0.00    +0.000 C 
ATOM     10  N   UNL     1       1.919   8.513  17.599  0.00  0.00    +0.000 N 
ATOM     11  H   UNL     1       2.078   8.409  16.603  0.00  0.00    +0.000 HD
BRANCH   9  12
ATOM     12  C   UNL     1       3.408   6.584  17.829  0.00  0.00    +0.000 A 
ATOM     13  C   UNL     1       3.084   5.220  17.944  0.00  0.00    +0.000 A 
ATOM     14  C   UNL     1       3.926   4.219  17.451  0.00  0.00    +0.000 A 
ATOM     15  C   UNL     1       5.110   4.650  16.856  0.00  0.00    +0.000 A 
ATOM     16  N   UNL     1       6.162   3.968  16.300  0.00  0.00    +0.000 N 
ATOM     17  C   UNL     1       7.083   4.887  15.881  0.00  0.00    +0.000 A 
ATOM     18  N   UNL     1       6.688   6.117  16.124  0.00  0.00    +0.000 NA
ATOM     19  C   UNL     1       5.464   5.991  16.734  0.00  0.00    +0.000 A 
ATOM     20  C   UNL     1       4.604   6.987  17.222  0.00  0.00    +0.000 A 
ATOM     21  H   UNL     1       6.247   2.966  16.223  0.00  0.00    +0.000 HD
ENDBRANCH   9  12
ENDBRANCH   1  10
BRANCH   6  22
ATOM     22  S   UNL     1       1.208  13.210  19.571  0.00  0.00    +0.000 S 
ATOM     23  O   UNL     1       2.582  13.317  19.169  0.00  0.00    +0.000 OA
ATOM     24  O   UNL     1       0.278  14.286  19.280  0.00  0.00    +0.000 OA
BRANCH  22  25
ATOM     25  N   UNL     1       1.221  12.954  21.261  0.00  0.00    +0.000 N 
ATOM     26  H   UNL     1       1.893  13.604  21.681  0.00  0.00    +0.000 HD
BRANCH  25  27
ATOM     27  C   UNL     1      -0.040  12.840  21.949  0.00  0.00    +0.000 A 
ATOM     28  C   UNL     1      -0.697  14.021  22.293  0.00  0.00    +0.000 A 
ATOM     29  C   UNL     1      -1.917  13.990  22.987  0.00  0.00    +0.000 A 
ATOM     30  C   UNL     1      -2.504  12.771  23.316  0.00  0.00    +0.000 A 
ATOM     31  C   UNL     1      -1.859  11.581  22.979  0.00  0.00    +0.000 A 
ATOM     32  C   UNL     1      -0.619  11.611  22.323  0.00  0.00    +0.000 A 
ATOM     33 CL   UNL     1       0.163  10.101  22.028  0.00  0.00    +0.000 Cl
ENDBRANCH  25  27
ENDBRANCH  22  25
ENDBRANCH   6  22
TORSDOF 5
ENDMDL
MODEL 4
REMARK VINA RESULT:      -8.7      2.471      3.509
REMARK  Name = 
REMARK  5 active torsions:
REMARK  status: ('A' for Active; 'I' for Inactive)
REMARK    1  A    between atoms: C_2  and  C_22
REMARK    2  A    between atoms: N_3  and  C_4
REMARK    3  A    between atoms: C_9  and  S_10
REMARK    4  A    between atoms: S_10  and  N_13
REMARK    5  A    between atoms: N_13  and  C_14
REMARK                            x       y       z     vdW  Elec       q    Type
REMARK                         _______ _______ _______ _____ _____    ______ ____
ROOT
ATOM      1  C   UNL     1       1.400   8.961  19.252  0.00  0.00    +0.000 A 
ATOM      2  C   UNL     1       1.411   9.084  20.637  0.00  0.00    +0.000 A 
ATOM      3  C   UNL     1       0.519   9.941  21.286  0.00  0.00    +0.000 A 
ATOM      4  C   UNL     1      -0.426  10.681  20.562  0.00  0.00    +0.000 A 
ATOM      5 CL   UNL     1      -1.448  11.691  21.507  0.00  0.00    +0.000 Cl
ATOM      6  C   UNL     1      -0.473  10.543  19.168  0.00  0.00    +0.000 A 
ATOM      7  C   UNL     1       0.483   9.725  18.519  0.00  0.00    +0.000 A 
ENDROOT
BRANCH   1  10
ATOM      8  O   UNL     1       2.003   6.183  19.906  0.00  0.00    +0.000 OA
ATOM      9  C   UNL     1       2.500   6.759  18.941  0.00  0.00    +0.000 C 
ATOM     10  N   UNL     1       2.257   8.071  18.558  0.00  0.00    +0.000 N 
ATOM     11  H   UNL     1       2.576   8.358  17.640  0.00  0.00    +0.000 HD
BRANCH   9  12
ATOM     12  C   UNL     1       3.369   5.949  18.054  0.00  0.00    +0.000 A 
ATOM     13  C   UNL     1       3.079   4.576  17.942  0.00  0.00    +0.000 A 
ATOM     14  C   UNL     1       3.871   3.717  17.176  0.00  0.00    +0.000 A 
ATOM     15  C   UNL     1       4.972   4.294  16.546  0.00  0.00    +0.000 A 
ATOM     16  N   UNL     1       5.961   3.767  15.755  0.00  0.00    +0.000 N 
ATOM     17  C   UNL     1       6.814   4.780  15.419  0.00  0.00    +0.000 A 
ATOM     18  N   UNL     1       6.434   5.927  15.935  0.00  0.00    +0.000 NA
ATOM     19  C   UNL     1       5.291   5.645  16.642  0.00  0.00    +0.000 A 
ATOM     20  C   UNL     1       4.480   6.501  17.405  0.00  0.00    +0.000 A 
ATOM     21  H   UNL     1       6.050   2.800  15.479  0.00  0.00    +0.000 HD
ENDBRANCH   9  12
ENDBRANCH   1  10
BRANCH   6  22
ATOM     22  S   UNL     1      -1.615  11.427  18.115  0.00  0.00    +0.000 S 
ATOM     23  O   UNL     1      -1.829  10.682  16.906  0.00  0.00    +0.000 OA
ATOM     24  O   UNL     1      -2.743  11.809  18.945  0.00  0.00    +0.000 OA
BRANCH  22  25
ATOM     25  N   UNL     1      -0.778  12.847  17.661  0.00  0.00    +0.000 N 
ATOM     26  H   UNL     1      -1.373  13.382  17.021  0.00  0.00    +0.000 HD
BRANCH  25  27
ATOM     27  C   UNL     1      -0.125  13.618  18.689  0.00  0.00    +0.000 A 
ATOM     28  C   UNL     1      -0.919  14.460  19.467  0.00  0.00    +0.000 A 
ATOM     29  C   UNL     1      -0.351  15.261  20.470  0.00  0.00    +0.000 A 
ATOM     30  C   UNL     1       1.018  15.202  20.721  0.00  0.00    +0.000 A 
ATOM     31  C   UNL     1       1.825  14.364  19.951  0.00  0.00    +0.000 A 
ATOM     32  C   UNL     1       1.265  13.596  18.920  0.00  0.00    +0.000 A 
ATOM     33 CL   UNL     1       2.342  12.661  17.948  0.00  0.00    +0.000 Cl
ENDBRANCH  25  27
ENDBRANCH  22  25
ENDBRANCH   6  22
TORSDOF 5
ENDMDL
MODEL 5
REMARK VINA RESULT:      -8.7      2.695      3.707
REMARK  Name = 
REMARK  5 active torsions:
REMARK  status: ('A' for Active; 'I' for Inactive)
REMARK    1  A    between atoms: C_2  and  C_22
REMARK    2  A    between atoms: N_3  and  C_4
REMARK    3  A    between atoms: C_9  and  S_10
REMARK    4  A    between atoms: S_10  and  N_13
REMARK    5  A    between atoms: N_13  and  C_14
REMARK                            x       y       z     vdW  Elec       q    Type
REMARK                         _______ _______ _______ _____ _____    ______ ____
ROOT
ATOM      1  C   UNL     1       1.017   9.146  19.919  0.00  0.00    +0.000 A 
ATOM      2  C   UNL     1       1.004   9.451  21.276  0.00  0.00    +0.000 A 
ATOM      3  C   UNL     1       0.174  10.457  21.776  0.00  0.00    +0.000 A 
ATOM      4  C   UNL     1      -0.686  11.169  20.928  0.00  0.00    +0.000 A 
ATOM      5 CL   UNL     1      -1.640  12.375  21.698  0.00  0.00    +0.000 Cl
ATOM      6  C   UNL     1      -0.711  10.852  19.564  0.00  0.00    +0.000 A 
ATOM      7  C   UNL     1       0.187   9.879  19.061  0.00  0.00    +0.000 A 
ENDROOT
BRANCH   1  10
ATOM      8  O   UNL     1       2.393   9.097  17.349  0.00  0.00    +0.000 OA
ATOM      9  C   UNL     1       2.429   8.155  18.136  0.00  0.00    +0.000 C 
ATOM     10  N   UNL     1       1.811   8.105  19.378  0.00  0.00    +0.000 N 
ATOM     11  H   UNL     1       2.080   7.355  20.005  0.00  0.00    +0.000 HD
BRANCH   9  12
ATOM     12  C   UNL     1       3.284   7.003  17.762  0.00  0.00    +0.000 A 
ATOM     13  C   UNL     1       2.868   5.726  18.183  0.00  0.00    +0.000 A 
ATOM     14  C   UNL     1       3.633   4.583  17.931  0.00  0.00    +0.000 A 
ATOM     15  C   UNL     1       4.835   4.785  17.256  0.00  0.00    +0.000 A 
ATOM     16  N   UNL     1       5.830   3.923  16.870  0.00  0.00    +0.000 N 
ATOM     17  C   UNL     1       6.805   4.656  16.256  0.00  0.00    +0.000 A 
ATOM     18  N   UNL     1       6.500   5.933  16.213  0.00  0.00    +0.000 NA
ATOM     19  C   UNL     1       5.278   6.035  16.833  0.00  0.00    +0.000 A 
ATOM     20  C   UNL     1       4.496   7.174  17.081  0.00  0.00    +0.000 A 
ATOM     21  H   UNL     1       5.845   2.926  17.023  0.00  0.00    +0.000 HD
ENDBRANCH   9  12
ENDBRANCH   1  10
BRANCH   6  22
ATOM     22  S   UNL     1      -1.747  11.679  18.365  0.00  0.00    +0.000 S 
ATOM     23  O   UNL     1      -1.991  10.801  17.255  0.00  0.00    +0.000 OA
ATOM     24  O   UNL     1      -2.860  12.255  19.097  0.00  0.00    +0.000 OA
BRANCH  22  25
ATOM     25  N   UNL     1      -0.781  12.955  17.764  0.00  0.00    +0.000 N 
ATOM     26  H   UNL     1      -1.331  13.480  17.076  0.00  0.00    +0.000 HD
BRANCH  25  27
ATOM     27  C   UNL     1      -0.039  13.757  18.703  0.00  0.00    +0.000 A 
ATOM     28  C   UNL     1      -0.731  14.756  19.388  0.00  0.00    +0.000 A 
ATOM     29  C   UNL     1      -0.070  15.593  20.300  0.00  0.00    +0.000 A 
ATOM     30  C   UNL     1       1.288  15.417  20.556  0.00  0.00    +0.000 A 
ATOM     31  C   UNL     1       1.993  14.422  19.878  0.00  0.00    +0.000 A 
ATOM     32  C   UNL     1       1.343  13.613  18.935  0.00  0.00    +0.000 A 
ATOM     33 CL   UNL     1       2.304  12.471  18.067  0.00  0.00    +0.000 Cl
ENDBRANCH  25  27
ENDBRANCH  22  25
ENDBRANCH   6  22
TORSDOF 5
ENDMDL
MODEL 6
REMARK VINA RESULT:      -8.7      1.394      1.460
REMARK  Name = 
REMARK  5 active torsions:
REMARK  status: ('A' for Active; 'I' for Inactive)
REMARK    1  A    between atoms: C_2  and  C_22
REMARK    2  A    between atoms: N_3  and  C_4
REMARK    3  A    between atoms: C_9  and  S_10
REMARK    4  A    between atoms: S_10  and  N_13
REMARK    5  A    between atoms: N_13  and  C_14
REMARK                            x       y       z     vdW  Elec       q    Type
REMARK                         _______ _______ _______ _____ _____    ______ ____
ROOT
ATOM      1  C   UNL     1       1.071   8.898  20.439  0.00  0.00    +0.000 A 
ATOM      2  C   UNL     1       0.292   8.655  21.565  0.00  0.00    +0.000 A 
ATOM      3  C   UNL     1      -0.473   9.672  22.140  0.00  0.00    +0.000 A 
ATOM      4  C   UNL     1      -0.496  10.958  21.583  0.00  0.00    +0.000 A 
ATOM      5 CL   UNL     1      -1.485  12.097  22.410  0.00  0.00    +0.000 Cl
ATOM      6  C   UNL     1       0.256  11.212  20.429  0.00  0.00    +0.000 A 
ATOM      7  C   UNL     1       1.081  10.191  19.899  0.00  0.00    +0.000 A 
ENDROOT
BRANCH   1  10
ATOM      8  O   UNL     1       1.832   8.736  17.628  0.00  0.00    +0.000 OA
ATOM      9  C   UNL     1       2.141   7.875  18.448  0.00  0.00    +0.000 C 
ATOM     10  N   UNL     1       1.827   7.884  19.800  0.00  0.00    +0.000 N 
ATOM     11  H   UNL     1       2.306   7.219  20.397  0.00  0.00    +0.000 HD
BRANCH   9  12
ATOM     12  C   UNL     1       3.005   6.771  17.965  0.00  0.00    +0.000 A 
ATOM     13  C   UNL     1       2.538   5.457  18.149  0.00  0.00    +0.000 A 
ATOM     14  C   UNL     1       3.303   4.345  17.781  0.00  0.00    +0.000 A 
ATOM     15  C   UNL     1       4.557   4.616  17.237  0.00  0.00    +0.000 A 
ATOM     16  N   UNL     1       5.565   3.797  16.798  0.00  0.00    +0.000 N 
ATOM     17  C   UNL     1       6.597   4.589  16.381  0.00  0.00    +0.000 A 
ATOM     18  N   UNL     1       6.315   5.865  16.515  0.00  0.00    +0.000 NA
ATOM     19  C   UNL     1       5.051   5.904  17.049  0.00  0.00    +0.000 A 
ATOM     20  C   UNL     1       4.269   7.011  17.412  0.00  0.00    +0.000 A 
ATOM     21  H   UNL     1       5.553   2.788  16.794  0.00  0.00    +0.000 HD
ENDBRANCH   9  12
ENDBRANCH   1  10
BRANCH   6  22
ATOM     22  S   UNL     1       0.331  12.802  19.615  0.00  0.00    +0.000 S 
ATOM     23  O   UNL     1       0.585  13.828  20.587  0.00  0.00    +0.000 OA
ATOM     24  O   UNL     1       1.212  12.647  18.471  0.00  0.00    +0.000 OA
BRANCH  22  25
ATOM     25  N   UNL     1      -1.256  13.070  19.038  0.00  0.00    +0.000 N 
ATOM     26  H   UNL     1      -1.253  13.923  18.470  0.00  0.00    +0.000 HD
BRANCH  25  27
ATOM     27  C   UNL     1      -1.981  11.958  18.479  0.00  0.00    +0.000 A 
ATOM     28  C   UNL     1      -1.322  11.162  17.542  0.00  0.00    +0.000 A 
ATOM     29  C   UNL     1      -1.972  10.077  16.935  0.00  0.00    +0.000 A 
ATOM     30  C   UNL     1      -3.283   9.761  17.284  0.00  0.00    +0.000 A 
ATOM     31  C   UNL     1      -3.956  10.548  18.220  0.00  0.00    +0.000 A 
ATOM     32  C   UNL     1      -3.321  11.658  18.795  0.00  0.00    +0.000 A 
ATOM     33 CL   UNL     1      -4.252  12.640  19.868  0.00  0.00    +0.000 Cl
ENDBRANCH  25  27
ENDBRANCH  22  25
ENDBRANCH   6  22
TORSDOF 5
ENDMDL
MODEL 7
REMARK VINA RESULT:      -8.7      4.502      9.015
REMARK  Name = 
REMARK  5 active torsions:
REMARK  status: ('A' for Active; 'I' for Inactive)
REMARK    1  A    between atoms: C_2  and  C_22
REMARK    2  A    between atoms: N_3  and  C_4
REMARK    3  A    between atoms: C_9  and  S_10
REMARK    4  A    between atoms: S_10  and  N_13
REMARK    5  A    between atoms: N_13  and  C_14
REMARK                            x       y       z     vdW  Elec       q    Type
REMARK                         _______ _______ _______ _____ _____    ______ ____
ROOT
ATOM      1  C   UNL     1       3.687   7.447  17.578  0.00  0.00    +0.000 A 
ATOM      2  C   UNL     1       3.928   7.516  16.210  0.00  0.00    +0.000 A 
ATOM      3  C   UNL     1       4.864   6.676  15.604  0.00  0.00    +0.000 A 
ATOM      4  C   UNL     1       5.569   5.724  16.354  0.00  0.00    +0.000 A 
ATOM      5 CL   UNL     1       6.688   4.769  15.461  0.00  0.00    +0.000 Cl
ATOM      6  C   UNL     1       5.315   5.617  17.727  0.00  0.00    +0.000 A 
ATOM      7  C   UNL     1       4.415   6.523  18.339  0.00  0.00    +0.000 A 
ENDROOT
BRANCH   1  10
ATOM      8  O   UNL     1       2.206   6.848  20.017  0.00  0.00    +0.000 OA
ATOM      9  C   UNL     1       2.044   7.888  19.384  0.00  0.00    +0.000 C 
ATOM     10  N   UNL     1       2.715   8.250  18.223  0.00  0.00    +0.000 N 
ATOM     11  H   UNL     1       2.630   9.212  17.913  0.00  0.00    +0.000 HD
BRANCH   9  12
ATOM     12  C   UNL     1       1.112   8.886  19.962  0.00  0.00    +0.000 A 
ATOM     13  C   UNL     1       0.485   9.776  19.071  0.00  0.00    +0.000 A 
ATOM     14  C   UNL     1      -0.366  10.790  19.521  0.00  0.00    +0.000 A 
ATOM     15  C   UNL     1      -0.542  10.876  20.901  0.00  0.00    +0.000 A 
ATOM     16  N   UNL     1      -1.266  11.740  21.684  0.00  0.00    +0.000 N 
ATOM     17  C   UNL     1      -1.068  11.387  22.989  0.00  0.00    +0.000 A 
ATOM     18  N   UNL     1      -0.271  10.348  23.097  0.00  0.00    +0.000 NA
ATOM     19  C   UNL     1       0.069  10.016  21.808  0.00  0.00    +0.000 A 
ATOM     20  C   UNL     1       0.912   8.995  21.344  0.00  0.00    +0.000 A 
ATOM     21  H   UNL     1      -1.834  12.506  21.356  0.00  0.00    +0.000 HD
ENDBRANCH   9  12
ENDBRANCH   1  10
BRANCH   6  22
ATOM     22  S   UNL     1       6.142   4.460  18.810  0.00  0.00    +0.000 S 
ATOM     23  O   UNL     1       7.419   4.109  18.253  0.00  0.00    +0.000 OA
ATOM     24  O   UNL     1       6.059   5.006  20.152  0.00  0.00    +0.000 OA
BRANCH  22  25
ATOM     25  N   UNL     1       5.186   3.045  18.745  0.00  0.00    +0.000 N 
ATOM     26  H   UNL     1       5.773   2.246  19.004  0.00  0.00    +0.000 HD
BRANCH  25  27
ATOM     27  C   UNL     1       3.877   3.071  19.348  0.00  0.00    +0.000 A 
ATOM     28  C   UNL     1       3.790   2.802  20.714  0.00  0.00    +0.000 A 
ATOM     29  C   UNL     1       2.548   2.785  21.366  0.00  0.00    +0.000 A 
ATOM     30  C   UNL     1       1.381   3.067  20.659  0.00  0.00    +0.000 A 
ATOM     31  C   UNL     1       1.452   3.338  19.292  0.00  0.00    +0.000 A 
ATOM     32  C   UNL     1       2.689   3.313  18.631  0.00  0.00    +0.000 A 
ATOM     33 CL   UNL     1       2.684   3.560  16.922  0.00  0.00    +0.000 Cl
ENDBRANCH  25  27
ENDBRANCH  22  25
ENDBRANCH   6  22
TORSDOF 5
ENDMDL
MODEL 8
REMARK VINA RESULT:      -8.6      2.553      3.611
REMARK  Name = 
REMARK  5 active torsions:
REMARK  status: ('A' for Active; 'I' for Inactive)
REMARK    1  A    between atoms: C_2  and  C_22
REMARK    2  A    between atoms: N_3  and  C_4
REMARK    3  A    between atoms: C_9  and  S_10
REMARK    4  A    between atoms: S_10  and  N_13
REMARK    5  A    between atoms: N_13  and  C_14
REMARK                            x       y       z     vdW  Elec       q    Type
REMARK                         _______ _______ _______ _____ _____    ______ ____
ROOT
ATOM      1  C   UNL     1       1.338   8.809  20.231  0.00  0.00    +0.000 A 
ATOM      2  C   UNL     1       1.182   8.492  21.576  0.00  0.00    +0.000 A 
ATOM      3  C   UNL     1       0.385   9.280  22.409  0.00  0.00    +0.000 A 
ATOM      4  C   UNL     1      -0.299  10.395  21.907  0.00  0.00    +0.000 A 
ATOM      5 CL   UNL     1      -1.236  11.261  23.061  0.00  0.00    +0.000 Cl
ATOM      6  C   UNL     1      -0.180  10.710  20.547  0.00  0.00    +0.000 A 
ATOM      7  C   UNL     1       0.687   9.944  19.731  0.00  0.00    +0.000 A 
ENDROOT
BRANCH   1  10
ATOM      8  O   UNL     1       1.892   5.952  20.418  0.00  0.00    +0.000 OA
ATOM      9  C   UNL     1       2.329   6.652  19.508  0.00  0.00    +0.000 C 
ATOM     10  N   UNL     1       2.103   8.012  19.344  0.00  0.00    +0.000 N 
ATOM     11  H   UNL     1       2.355   8.425  18.452  0.00  0.00    +0.000 HD
BRANCH   9  12
ATOM     12  C   UNL     1       3.091   5.962  18.439  0.00  0.00    +0.000 A 
ATOM     13  C   UNL     1       2.914   4.573  18.312  0.00  0.00    +0.000 A 
ATOM     14  C   UNL     1       3.629   3.822  17.374  0.00  0.00    +0.000 A 
ATOM     15  C   UNL     1       4.537   4.527  16.587  0.00  0.00    +0.000 A 
ATOM     16  N   UNL     1       5.409   4.128  15.606  0.00  0.00    +0.000 N 
ATOM     17  C   UNL     1       6.089   5.232  15.175  0.00  0.00    +0.000 A 
ATOM     18  N   UNL     1       5.705   6.317  15.808  0.00  0.00    +0.000 NA
ATOM     19  C   UNL     1       4.742   5.900  16.693  0.00  0.00    +0.000 A 
ATOM     20  C   UNL     1       4.009   6.645  17.631  0.00  0.00    +0.000 A 
ATOM     21  H   UNL     1       5.536   3.185  15.271  0.00  0.00    +0.000 HD
ENDBRANCH   9  12
ENDBRANCH   1  10
BRANCH   6  22
ATOM     22  S   UNL     1      -0.984  12.104  19.770  0.00  0.00    +0.000 S 
ATOM     23  O   UNL     1      -0.531  12.224  18.412  0.00  0.00    +0.000 OA
ATOM     24  O   UNL     1      -2.402  11.986  20.057  0.00  0.00    +0.000 OA
BRANCH  22  25
ATOM     25  N   UNL     1      -0.380  13.472  20.599  0.00  0.00    +0.000 N 
ATOM     26  H   UNL     1      -0.471  13.305  21.606  0.00  0.00    +0.000 HD
BRANCH  25  27
ATOM     27  C   UNL     1       0.880  14.030  20.178  0.00  0.00    +0.000 A 
ATOM     28  C   UNL     1       2.041  13.505  20.743  0.00  0.00    +0.000 A 
ATOM     29  C   UNL     1       3.303  14.015  20.401  0.00  0.00    +0.000 A 
ATOM     30  C   UNL     1       3.414  15.039  19.464  0.00  0.00    +0.000 A 
ATOM     31  C   UNL     1       2.261  15.576  18.889  0.00  0.00    +0.000 A 
ATOM     32  C   UNL     1       0.997  15.095  19.263  0.00  0.00    +0.000 A 
ATOM     33 CL   UNL     1      -0.384  15.876  18.582  0.00  0.00    +0.000 Cl
ENDBRANCH  25  27
ENDBRANCH  22  25
ENDBRANCH   6  22
TORSDOF 5
ENDMDL
MODEL 9
REMARK VINA RESULT:      -8.5      2.605      3.484
REMARK  Name = 
REMARK  5 active torsions:
REMARK  status: ('A' for Active; 'I' for Inactive)
REMARK    1  A    between atoms: C_2  and  C_22
REMARK    2  A    between atoms: N_3  and  C_4
REMARK    3  A    between atoms: C_9  and  S_10
REMARK    4  A    between atoms: S_10  and  N_13
REMARK    5  A    between atoms: N_13  and  C_14
REMARK                            x       y       z     vdW  Elec       q    Type
REMARK                         _______ _______ _______ _____ _____    ______ ____
ROOT
ATOM      1  C   UNL     1       1.184   8.900  20.295  0.00  0.00    +0.000 A 
ATOM      2  C   UNL     1       1.089   8.640  21.657  0.00  0.00    +0.000 A 
ATOM      3  C   UNL     1       0.269   9.414  22.479  0.00  0.00    +0.000 A 
ATOM      4  C   UNL     1      -0.500  10.460  21.950  0.00  0.00    +0.000 A 
ATOM      5 CL   UNL     1      -1.456  11.319  23.093  0.00  0.00    +0.000 Cl
ATOM      6  C   UNL     1      -0.443  10.715  20.574  0.00  0.00    +0.000 A 
ATOM      7  C   UNL     1       0.446   9.967  19.765  0.00  0.00    +0.000 A 
ENDROOT
BRANCH   1  10
ATOM      8  O   UNL     1       1.817   6.063  20.526  0.00  0.00    +0.000 OA
ATOM      9  C   UNL     1       2.234   6.761  19.605  0.00  0.00    +0.000 C 
ATOM     10  N   UNL     1       1.970   8.111  19.420  0.00  0.00    +0.000 N 
ATOM     11  H   UNL     1       2.212   8.517  18.522  0.00  0.00    +0.000 HD
BRANCH   9  12
ATOM     12  C   UNL     1       3.016   6.076  18.548  0.00  0.00    +0.000 A 
ATOM     13  C   UNL     1       2.926   4.674  18.483  0.00  0.00    +0.000 A 
ATOM     14  C   UNL     1       3.668   3.931  17.559  0.00  0.00    +0.000 A 
ATOM     15  C   UNL     1       4.511   4.658  16.721  0.00  0.00    +0.000 A 
ATOM     16  N   UNL     1       5.385   4.273  15.737  0.00  0.00    +0.000 N 
ATOM     17  C   UNL     1       5.982   5.399  15.243  0.00  0.00    +0.000 A 
ATOM     18  N   UNL     1       5.543   6.484  15.840  0.00  0.00    +0.000 NA
ATOM     19  C   UNL     1       4.628   6.044  16.765  0.00  0.00    +0.000 A 
ATOM     20  C   UNL     1       3.870   6.780  17.689  0.00  0.00    +0.000 A 
ATOM     21  H   UNL     1       5.565   3.327  15.437  0.00  0.00    +0.000 HD
ENDBRANCH   9  12
ENDBRANCH   1  10
BRANCH   6  22
ATOM     22  S   UNL     1      -1.358  12.017  19.760  0.00  0.00    +0.000 S 
ATOM     23  O   UNL     1      -2.599  11.494  19.261  0.00  0.00    +0.000 OA
ATOM     24  O   UNL     1      -1.358  13.157  20.660  0.00  0.00    +0.000 OA
BRANCH  22  25
ATOM     25  N   UNL     1      -0.420  12.416  18.388  0.00  0.00    +0.000 N 
ATOM     26  H   UNL     1      -1.033  12.419  17.567  0.00  0.00    +0.000 HD
BRANCH  25  27
ATOM     27  C   UNL     1       0.494  13.527  18.480  0.00  0.00    +0.000 A 
ATOM     28  C   UNL     1      -0.048  14.793  18.695  0.00  0.00    +0.000 A 
ATOM     29  C   UNL     1       0.778  15.926  18.770  0.00  0.00    +0.000 A 
ATOM     30  C   UNL     1       2.160  15.794  18.660  0.00  0.00    +0.000 A 
ATOM     31  C   UNL     1       2.717  14.533  18.444  0.00  0.00    +0.000 A 
ATOM     32  C   UNL     1       1.890  13.407  18.326  0.00  0.00    +0.000 A 
ATOM     33 CL   UNL     1       2.646  11.898  17.961  0.00  0.00    +0.000 Cl
ENDBRANCH  25  27
ENDBRANCH  22  25
ENDBRANCH   6  22
TORSDOF 5
ENDMDL
