MODEL 1
REMARK VINA RESULT:      -9.3      0.000      0.000
REMARK  Name = 
REMARK  4 active torsions:
REMARK  status: ('A' for Active; 'I' for Inactive)
REMARK    1  A    between atoms: C_1  and  C_2
REMARK    2  A    between atoms: C_7  and  N_8
REMARK    3  A    between atoms: N_8  and  S_9
REMARK    4  A    between atoms: S_9  and  C_12
REMARK                            x       y       z     vdW  Elec       q    Type
REMARK                         _______ _______ _______ _____ _____    ______ ____
ROOT
ATOM      1  N   UNL     1       5.053   3.839  19.465  0.00  0.00    +0.000 N 
ATOM      2  H   UNL     1       5.415   4.222  20.339  0.00  0.00    +0.000 HD
ENDROOT
BRANCH   1   9
ATOM      3  C   UNL     1       8.034   5.547  12.495  0.00  0.00    +0.000 C 
ATOM      4  C   UNL     1       7.597   4.801  13.750  0.00  0.00    +0.000 C 
ATOM      5  O   UNL     1       7.457   5.744  14.812  0.00  0.00    +0.000 OA
ATOM      6  C   UNL     1       6.859   5.210  15.925  0.00  0.00    +0.000 A 
ATOM      7  C   UNL     1       7.053   5.890  17.123  0.00  0.00    +0.000 A 
ATOM      8  C   UNL     1       6.439   5.426  18.283  0.00  0.00    +0.000 A 
ATOM      9  C   UNL     1       5.637   4.279  18.250  0.00  0.00    +0.000 A 
ATOM     10  C   UNL     1       5.425   3.598  17.048  0.00  0.00    +0.000 A 
ATOM     11  C   UNL     1       6.035   4.085  15.879  0.00  0.00    +0.000 A 
ATOM     12  N   UNL     1       5.750   3.492  14.644  0.00  0.00    +0.000 N 
ATOM     13  C   UNL     1       6.357   3.933  13.493  0.00  0.00    +0.000 C 
ATOM     14  O   UNL     1       5.980   3.555  12.400  0.00  0.00    +0.000 OA
ATOM     15  H   UNL     1       5.010   2.808  14.552  0.00  0.00    +0.000 HD
ENDBRANCH   1   9
BRANCH   1  16
ATOM     16  S   UNL     1       3.380   3.595  19.540  0.00  0.00    +0.000 S 
ATOM     17  O   UNL     1       3.013   3.060  18.228  0.00  0.00    +0.000 OA
ATOM     18  O   UNL     1       3.080   2.879  20.720  0.00  0.00    +0.000 OA
BRANCH  16  19
ATOM     19  C   UNL     1       2.731   5.229  19.661  0.00  0.00    +0.000 A 
ATOM     20  C   UNL     1       1.830   5.494  20.691  0.00  0.00    +0.000 A 
ATOM     21  C   UNL     1       1.392   6.795  20.900  0.00  0.00    +0.000 A 
ATOM     22  C   UNL     1       1.709   7.794  19.971  0.00  0.00    +0.000 A 
ATOM     23  C   UNL     1       1.243   9.095  20.142  0.00  0.00    +0.000 A 
ATOM     24  C   UNL     1       0.964   9.868  19.029  0.00  0.00    +0.000 A 
ATOM     25  C   UNL     1       1.569   9.534  17.826  0.00  0.00    +0.000 A 
ATOM     26  C   UNL     1       2.417   8.422  17.757  0.00  0.00    +0.000 A 
ATOM     27  C   UNL     1       2.418   7.478  18.799  0.00  0.00    +0.000 A 
ATOM     28  C   UNL     1       3.035   6.214  18.705  0.00  0.00    +0.000 A 
ENDBRANCH  16  19
ENDBRANCH   1  16
TORSDOF 3
ENDMDL
MODEL 2
REMARK VINA RESULT:      -9.1      3.294      7.558
REMARK  Name = 
REMARK  4 active torsions:
REMARK  status: ('A' for Active; 'I' for Inactive)
REMARK    1  A    between atoms: C_1  and  C_2
REMARK    2  A    between atoms: C_7  and  N_8
REMARK    3  A    between atoms: N_8  and  S_9
REMARK    4  A    between atoms: S_9  and  C_12
REMARK                            x       y       z     vdW  Elec       q    Type
REMARK                         _______ _______ _______ _____ _____    ______ ____
ROOT
ATOM      1  N   UNL     1       2.713   5.907  20.600  0.00  0.00    +0.000 N 
ATOM      2  H   UNL     1       2.626   5.737  21.602  0.00  0.00    +0.000 HD
ENDROOT
BRANCH   1   9
ATOM      3  C   UNL     1      -0.848  12.437  18.348  0.00  0.00    +0.000 C 
ATOM      4  C   UNL     1      -0.567  11.056  18.927  0.00  0.00    +0.000 C 
ATOM      5  O   UNL     1       0.621  10.544  18.323  0.00  0.00    +0.000 OA
ATOM      6  C   UNL     1       1.080   9.404  18.931  0.00  0.00    +0.000 A 
ATOM      7  C   UNL     1       1.949   8.611  18.190  0.00  0.00    +0.000 A 
ATOM      8  C   UNL     1       2.487   7.461  18.763  0.00  0.00    +0.000 A 
ATOM      9  C   UNL     1       2.152   7.099  20.073  0.00  0.00    +0.000 A 
ATOM     10  C   UNL     1       1.291   7.898  20.830  0.00  0.00    +0.000 A 
ATOM     11  C   UNL     1       0.767   9.066  20.248  0.00  0.00    +0.000 A 
ATOM     12  N   UNL     1      -0.005   9.943  21.018  0.00  0.00    +0.000 N 
ATOM     13  C   UNL     1      -0.551  11.076  20.462  0.00  0.00    +0.000 C 
ATOM     14  O   UNL     1      -1.060  11.934  21.158  0.00  0.00    +0.000 OA
ATOM     15  H   UNL     1      -0.083   9.828  22.020  0.00  0.00    +0.000 HD
ENDBRANCH   1   9
BRANCH   1  16
ATOM     16  S   UNL     1       2.592   4.471  19.712  0.00  0.00    +0.000 S 
ATOM     17  O   UNL     1       2.802   3.401  20.687  0.00  0.00    +0.000 OA
ATOM     18  O   UNL     1       1.414   4.519  18.935  0.00  0.00    +0.000 OA
BRANCH  16  19
ATOM     19  C   UNL     1       3.999   4.524  18.653  0.00  0.00    +0.000 A 
ATOM     20  C   UNL     1       5.190   5.021  19.181  0.00  0.00    +0.000 A 
ATOM     21  C   UNL     1       6.352   4.965  18.423  0.00  0.00    +0.000 A 
ATOM     22  C   UNL     1       6.288   4.582  17.077  0.00  0.00    +0.000 A 
ATOM     23  C   UNL     1       7.436   4.560  16.291  0.00  0.00    +0.000 A 
ATOM     24  C   UNL     1       7.339   4.841  14.939  0.00  0.00    +0.000 A 
ATOM     25  C   UNL     1       6.109   4.677  14.319  0.00  0.00    +0.000 A 
ATOM     26  C   UNL     1       5.000   4.266  15.068  0.00  0.00    +0.000 A 
ATOM     27  C   UNL     1       5.048   4.311  16.472  0.00  0.00    +0.000 A 
ATOM     28  C   UNL     1       3.914   4.165  17.297  0.00  0.00    +0.000 A 
ENDBRANCH  16  19
ENDBRANCH   1  16
TORSDOF 3
ENDMDL
MODEL 3
REMARK VINA RESULT:      -9.0      2.723      7.650
REMARK  Name = 
REMARK  4 active torsions:
REMARK  status: ('A' for Active; 'I' for Inactive)
REMARK    1  A    between atoms: C_1  and  C_2
REMARK    2  A    between atoms: C_7  and  N_8
REMARK    3  A    between atoms: N_8  and  S_9
REMARK    4  A    between atoms: S_9  and  C_12
REMARK                            x       y       z     vdW  Elec       q    Type
REMARK                         _______ _______ _______ _____ _____    ______ ____
ROOT
ATOM      1  N   UNL     1       3.388   4.679  18.604  0.00  0.00    +0.000 N 
ATOM      2  H   UNL     1       3.050   4.162  17.791  0.00  0.00    +0.000 HD
ENDROOT
BRANCH   1   9
ATOM      3  C   UNL     1       0.228  11.508  20.547  0.00  0.00    +0.000 C 
ATOM      4  C   UNL     1       0.474  10.014  20.364  0.00  0.00    +0.000 C 
ATOM      5  O   UNL     1       1.379   9.833  19.276  0.00  0.00    +0.000 OA
ATOM      6  C   UNL     1       1.833   8.544  19.168  0.00  0.00    +0.000 A 
ATOM      7  C   UNL     1       2.361   8.171  17.937  0.00  0.00    +0.000 A 
ATOM      8  C   UNL     1       2.880   6.889  17.772  0.00  0.00    +0.000 A 
ATOM      9  C   UNL     1       2.865   5.977  18.834  0.00  0.00    +0.000 A 
ATOM     10  C   UNL     1       2.350   6.348  20.078  0.00  0.00    +0.000 A 
ATOM     11  C   UNL     1       1.845   7.651  20.239  0.00  0.00    +0.000 A 
ATOM     12  N   UNL     1       1.427   8.086  21.502  0.00  0.00    +0.000 N 
ATOM     13  C   UNL     1       0.904   9.344  21.677  0.00  0.00    +0.000 C 
ATOM     14  O   UNL     1       0.716   9.797  22.790  0.00  0.00    +0.000 OA
ATOM     15  H   UNL     1       1.607   7.533  22.330  0.00  0.00    +0.000 HD
ENDBRANCH   1   9
BRANCH   1  16
ATOM     16  S   UNL     1       5.029   4.383  18.891  0.00  0.00    +0.000 S 
ATOM     17  O   UNL     1       5.479   5.502  19.719  0.00  0.00    +0.000 OA
ATOM     18  O   UNL     1       5.176   3.050  19.337  0.00  0.00    +0.000 OA
BRANCH  16  19
ATOM     19  C   UNL     1       5.762   4.556  17.298  0.00  0.00    +0.000 A 
ATOM     20  C   UNL     1       6.610   5.643  17.090  0.00  0.00    +0.000 A 
ATOM     21  C   UNL     1       7.306   5.749  15.893  0.00  0.00    +0.000 A 
ATOM     22  C   UNL     1       7.017   4.874  14.839  0.00  0.00    +0.000 A 
ATOM     23  C   UNL     1       7.675   4.992  13.618  0.00  0.00    +0.000 A 
ATOM     24  C   UNL     1       7.010   4.653  12.453  0.00  0.00    +0.000 A 
ATOM     25  C   UNL     1       5.926   3.792  12.540  0.00  0.00    +0.000 A 
ATOM     26  C   UNL     1       5.514   3.313  13.789  0.00  0.00    +0.000 A 
ATOM     27  C   UNL     1       5.987   3.925  14.964  0.00  0.00    +0.000 A 
ATOM     28  C   UNL     1       5.441   3.687  16.241  0.00  0.00    +0.000 A 
ENDBRANCH  16  19
ENDBRANCH   1  16
TORSDOF 3
ENDMDL
MODEL 4
REMARK VINA RESULT:      -8.9      3.535      7.676
REMARK  Name = 
REMARK  4 active torsions:
REMARK  status: ('A' for Active; 'I' for Inactive)
REMARK    1  A    between atoms: C_1  and  C_2
REMARK    2  A    between atoms: C_7  and  N_8
REMARK    3  A    between atoms: N_8  and  S_9
REMARK    4  A    between atoms: S_9  and  C_12
REMARK                            x       y       z     vdW  Elec       q    Type
REMARK                         _______ _______ _______ _____ _____    ______ ____
ROOT
ATOM      1  N   UNL     1       2.285   6.171  21.217  0.00  0.00    +0.000 N 
ATOM      2  H   UNL     1       2.276   6.146  22.237  0.00  0.00    +0.000 HD
ENDROOT
BRANCH   1   9
ATOM      3  C   UNL     1      -1.012  12.564  18.275  0.00  0.00    +0.000 C 
ATOM      4  C   UNL     1      -0.793  11.220  18.960  0.00  0.00    +0.000 C 
ATOM      5  O   UNL     1       0.435  10.665  18.490  0.00  0.00    +0.000 OA
ATOM      6  C   UNL     1       0.831   9.563  19.204  0.00  0.00    +0.000 A 
ATOM      7  C   UNL     1       1.751   8.721  18.589  0.00  0.00    +0.000 A 
ATOM      8  C   UNL     1       2.228   7.607  19.275  0.00  0.00    +0.000 A 
ATOM      9  C   UNL     1       1.781   7.330  20.573  0.00  0.00    +0.000 A 
ATOM     10  C   UNL     1       0.869   8.179  21.204  0.00  0.00    +0.000 A 
ATOM     11  C   UNL     1       0.407   9.311  20.509  0.00  0.00    +0.000 A 
ATOM     12  N   UNL     1      -0.418  10.238  21.156  0.00  0.00    +0.000 N 
ATOM     13  C   UNL     1      -0.904  11.336  20.488  0.00  0.00    +0.000 C 
ATOM     14  O   UNL     1      -1.461  12.238  21.084  0.00  0.00    +0.000 OA
ATOM     15  H   UNL     1      -0.579  10.186  22.153  0.00  0.00    +0.000 HD
ENDBRANCH   1   9
BRANCH   1  16
ATOM     16  S   UNL     1       1.960   4.647  20.556  0.00  0.00    +0.000 S 
ATOM     17  O   UNL     1       2.395   3.689  21.573  0.00  0.00    +0.000 OA
ATOM     18  O   UNL     1       0.632   4.637  20.076  0.00  0.00    +0.000 OA
BRANCH  16  19
ATOM     19  C   UNL     1       3.079   4.542  19.198  0.00  0.00    +0.000 A 
ATOM     20  C   UNL     1       2.650   3.869  18.055  0.00  0.00    +0.000 A 
ATOM     21  C   UNL     1       3.449   3.870  16.919  0.00  0.00    +0.000 A 
ATOM     22  C   UNL     1       4.750   4.385  16.983  0.00  0.00    +0.000 A 
ATOM     23  C   UNL     1       5.579   4.357  15.866  0.00  0.00    +0.000 A 
ATOM     24  C   UNL     1       6.945   4.220  16.037  0.00  0.00    +0.000 A 
ATOM     25  C   UNL     1       7.495   4.576  17.260  0.00  0.00    +0.000 A 
ATOM     26  C   UNL     1       6.664   5.034  18.291  0.00  0.00    +0.000 A 
ATOM     27  C   UNL     1       5.273   4.848  18.203  0.00  0.00    +0.000 A 
ATOM     28  C   UNL     1       4.391   5.038  19.286  0.00  0.00    +0.000 A 
ENDBRANCH  16  19
ENDBRANCH   1  16
TORSDOF 3
ENDMDL
MODEL 5
REMARK VINA RESULT:      -8.8      0.744      1.593
REMARK  Name = 
REMARK  4 active torsions:
REMARK  status: ('A' for Active; 'I' for Inactive)
REMARK    1  A    between atoms: C_1  and  C_2
REMARK    2  A    between atoms: C_7  and  N_8
REMARK    3  A    between atoms: N_8  and  S_9
REMARK    4  A    between atoms: S_9  and  C_12
REMARK                            x       y       z     vdW  Elec       q    Type
REMARK                         _______ _______ _______ _____ _____    ______ ____
ROOT
ATOM      1  N   UNL     1       4.661   4.402  19.666  0.00  0.00    +0.000 N 
ATOM      2  H   UNL     1       5.004   4.836  20.523  0.00  0.00    +0.000 HD
ENDROOT
BRANCH   1   9
ATOM      3  C   UNL     1       8.044   5.347  12.733  0.00  0.00    +0.000 C 
ATOM      4  C   UNL     1       7.477   4.730  14.006  0.00  0.00    +0.000 C 
ATOM      5  O   UNL     1       7.430   5.737  15.017  0.00  0.00    +0.000 OA
ATOM      6  C   UNL     1       6.735   5.343  16.131  0.00  0.00    +0.000 A 
ATOM      7  C   UNL     1       6.981   6.053  17.301  0.00  0.00    +0.000 A 
ATOM      8  C   UNL     1       6.277   5.733  18.459  0.00  0.00    +0.000 A 
ATOM      9  C   UNL     1       5.334   4.699  18.452  0.00  0.00    +0.000 A 
ATOM     10  C   UNL     1       5.070   3.990  17.278  0.00  0.00    +0.000 A 
ATOM     11  C   UNL     1       5.773   4.333  16.109  0.00  0.00    +0.000 A 
ATOM     12  N   UNL     1       5.449   3.718  14.895  0.00  0.00    +0.000 N 
ATOM     13  C   UNL     1       6.142   4.016  13.746  0.00  0.00    +0.000 C 
ATOM     14  O   UNL     1       5.751   3.634  12.660  0.00  0.00    +0.000 OA
ATOM     15  H   UNL     1       4.629   3.131  14.809  0.00  0.00    +0.000 HD
ENDBRANCH   1   9
BRANCH   1  16
ATOM     16  S   UNL     1       2.974   4.269  19.667  0.00  0.00    +0.000 S 
ATOM     17  O   UNL     1       2.644   3.583  18.417  0.00  0.00    +0.000 OA
ATOM     18  O   UNL     1       2.564   3.739  20.911  0.00  0.00    +0.000 OA
BRANCH  16  19
ATOM     19  C   UNL     1       2.430   5.939  19.530  0.00  0.00    +0.000 A 
ATOM     20  C   UNL     1       2.769   6.638  18.373  0.00  0.00    +0.000 A 
ATOM     21  C   UNL     1       2.256   7.913  18.167  0.00  0.00    +0.000 A 
ATOM     22  C   UNL     1       1.558   8.557  19.196  0.00  0.00    +0.000 A 
ATOM     23  C   UNL     1       1.073   9.850  19.023  0.00  0.00    +0.000 A 
ATOM     24  C   UNL     1       1.003  10.701  20.112  0.00  0.00    +0.000 A 
ATOM     25  C   UNL     1       0.962  10.143  21.382  0.00  0.00    +0.000 A 
ATOM     26  C   UNL     1       1.021   8.753  21.535  0.00  0.00    +0.000 A 
ATOM     27  C   UNL     1       1.422   7.946  20.455  0.00  0.00    +0.000 A 
ATOM     28  C   UNL     1       1.755   6.583  20.582  0.00  0.00    +0.000 A 
ENDBRANCH  16  19
ENDBRANCH   1  16
TORSDOF 3
ENDMDL
MODEL 6
REMARK VINA RESULT:      -8.6      6.259     10.169
REMARK  Name = 
REMARK  4 active torsions:
REMARK  status: ('A' for Active; 'I' for Inactive)
REMARK    1  A    between atoms: C_1  and  C_2
REMARK    2  A    between atoms: C_7  and  N_8
REMARK    3  A    between atoms: N_8  and  S_9
REMARK    4  A    between atoms: S_9  and  C_12
REMARK                            x       y       z     vdW  Elec       q    Type
REMARK                         _______ _______ _______ _____ _____    ______ ____
ROOT
ATOM      1  N   UNL     1       0.269  10.885  19.528  0.00  0.00    +0.000 N 
ATOM      2  H   UNL     1       0.850  11.711  19.676  0.00  0.00    +0.000 HD
ENDROOT
BRANCH   1   9
ATOM      3  C   UNL     1      -7.171  12.309  17.796  0.00  0.00    +0.000 C 
ATOM      4  C   UNL     1      -5.887  11.979  18.548  0.00  0.00    +0.000 C 
ATOM      5  O   UNL     1      -4.931  11.478  17.614  0.00  0.00    +0.000 OA
ATOM      6  C   UNL     1      -3.675  11.357  18.150  0.00  0.00    +0.000 A 
ATOM      7  C   UNL     1      -2.795  10.509  17.486  0.00  0.00    +0.000 A 
ATOM      8  C   UNL     1      -1.489  10.373  17.953  0.00  0.00    +0.000 A 
ATOM      9  C   UNL     1      -1.065  11.077  19.085  0.00  0.00    +0.000 A 
ATOM     10  C   UNL     1      -1.938  11.943  19.749  0.00  0.00    +0.000 A 
ATOM     11  C   UNL     1      -3.248  12.086  19.260  0.00  0.00    +0.000 A 
ATOM     12  N   UNL     1      -4.108  13.029  19.835  0.00  0.00    +0.000 N 
ATOM     13  C   UNL     1      -5.401  13.167  19.392  0.00  0.00    +0.000 C 
ATOM     14  O   UNL     1      -6.092  14.101  19.751  0.00  0.00    +0.000 OA
ATOM     15  H   UNL     1      -3.766  13.706  20.505  0.00  0.00    +0.000 HD
ENDBRANCH   1   9
BRANCH   1  16
ATOM     16  S   UNL     1       0.599   9.680  20.670  0.00  0.00    +0.000 S 
ATOM     17  O   UNL     1       1.475  10.317  21.654  0.00  0.00    +0.000 OA
ATOM     18  O   UNL     1      -0.620   9.087  21.065  0.00  0.00    +0.000 OA
BRANCH  16  19
ATOM     19  C   UNL     1       1.558   8.510  19.766  0.00  0.00    +0.000 A 
ATOM     20  C   UNL     1       1.896   8.826  18.451  0.00  0.00    +0.000 A 
ATOM     21  C   UNL     1       2.754   7.992  17.745  0.00  0.00    +0.000 A 
ATOM     22  C   UNL     1       3.125   6.756  18.286  0.00  0.00    +0.000 A 
ATOM     23  C   UNL     1       3.950   5.890  17.575  0.00  0.00    +0.000 A 
ATOM     24  C   UNL     1       3.797   4.523  17.732  0.00  0.00    +0.000 A 
ATOM     25  C   UNL     1       3.188   4.057  18.888  0.00  0.00    +0.000 A 
ATOM     26  C   UNL     1       2.722   4.966  19.845  0.00  0.00    +0.000 A 
ATOM     27  C   UNL     1       2.591   6.326  19.514  0.00  0.00    +0.000 A 
ATOM     28  C   UNL     1       1.900   7.260  20.311  0.00  0.00    +0.000 A 
ENDBRANCH  16  19
ENDBRANCH   1  16
TORSDOF 3
ENDMDL
MODEL 7
REMARK VINA RESULT:      -8.5      2.843      7.829
REMARK  Name = 
REMARK  4 active torsions:
REMARK  status: ('A' for Active; 'I' for Inactive)
REMARK    1  A    between atoms: C_1  and  C_2
REMARK    2  A    between atoms: C_7  and  N_8
REMARK    3  A    between atoms: N_8  and  S_9
REMARK    4  A    between atoms: S_9  and  C_12
REMARK                            x       y       z     vdW  Elec       q    Type
REMARK                         _______ _______ _______ _____ _____    ______ ____
ROOT
ATOM      1  N   UNL     1       4.050   5.762  18.996  0.00  0.00    +0.000 N 
ATOM      2  H   UNL     1       4.443   5.469  19.891  0.00  0.00    +0.000 HD
ENDROOT
BRANCH   1   9
ATOM      3  C   UNL     1      -1.190  11.468  19.613  0.00  0.00    +0.000 C 
ATOM      4  C   UNL     1      -0.508  10.105  19.646  0.00  0.00    +0.000 C 
ATOM      5  O   UNL     1       0.594  10.127  18.740  0.00  0.00    +0.000 OA
ATOM      6  C   UNL     1       1.402   9.025  18.856  0.00  0.00    +0.000 A 
ATOM      7  C   UNL     1       2.229   8.743  17.774  0.00  0.00    +0.000 A 
ATOM      8  C   UNL     1       3.106   7.663  17.843  0.00  0.00    +0.000 A 
ATOM      9  C   UNL     1       3.152   6.861  18.988  0.00  0.00    +0.000 A 
ATOM     10  C   UNL     1       2.336   7.145  20.085  0.00  0.00    +0.000 A 
ATOM     11  C   UNL     1       1.467   8.248  20.013  0.00  0.00    +0.000 A 
ATOM     12  N   UNL     1       0.721   8.624  21.136  0.00  0.00    +0.000 N 
ATOM     13  C   UNL     1      -0.156   9.680  21.079  0.00  0.00    +0.000 C 
ATOM     14  O   UNL     1      -0.663  10.130  22.089  0.00  0.00    +0.000 OA
ATOM     15  H   UNL     1       0.894   8.205  22.041  0.00  0.00    +0.000 HD
ENDBRANCH   1   9
BRANCH   1  16
ATOM     16  S   UNL     1       3.749   4.438  17.985  0.00  0.00    +0.000 S 
ATOM     17  O   UNL     1       4.138   3.264  18.768  0.00  0.00    +0.000 OA
ATOM     18  O   UNL     1       2.442   4.556  17.464  0.00  0.00    +0.000 OA
BRANCH  16  19
ATOM     19  C   UNL     1       4.923   4.638  16.687  0.00  0.00    +0.000 A 
ATOM     20  C   UNL     1       5.797   5.721  16.764  0.00  0.00    +0.000 A 
ATOM     21  C   UNL     1       6.818   5.846  15.830  0.00  0.00    +0.000 A 
ATOM     22  C   UNL     1       6.853   4.995  14.719  0.00  0.00    +0.000 A 
ATOM     23  C   UNL     1       7.844   5.132  13.752  0.00  0.00    +0.000 A 
ATOM     24  C   UNL     1       7.555   4.823  12.434  0.00  0.00    +0.000 A 
ATOM     25  C   UNL     1       6.492   3.970  12.176  0.00  0.00    +0.000 A 
ATOM     26  C   UNL     1       5.726   3.469  13.236  0.00  0.00    +0.000 A 
ATOM     27  C   UNL     1       5.830   4.053  14.511  0.00  0.00    +0.000 A 
ATOM     28  C   UNL     1       4.928   3.794  15.563  0.00  0.00    +0.000 A 
ENDBRANCH  16  19
ENDBRANCH   1  16
TORSDOF 3
ENDMDL
MODEL 8
REMARK VINA RESULT:      -8.5      5.380      7.857
REMARK  Name = 
REMARK  4 active torsions:
REMARK  status: ('A' for Active; 'I' for Inactive)
REMARK    1  A    between atoms: C_1  and  C_2
REMARK    2  A    between atoms: C_7  and  N_8
REMARK    3  A    between atoms: N_8  and  S_9
REMARK    4  A    between atoms: S_9  and  C_12
REMARK                            x       y       z     vdW  Elec       q    Type
REMARK                         _______ _______ _______ _____ _____    ______ ____
ROOT
ATOM      1  N   UNL     1       0.829  11.108  19.603  0.00  0.00    +0.000 N 
ATOM      2  H   UNL     1       1.467  11.903  19.545  0.00  0.00    +0.000 HD
ENDROOT
BRANCH   1   9
ATOM      3  C   UNL     1       3.606   3.894  18.804  0.00  0.00    +0.000 C 
ATOM      4  C   UNL     1       3.308   5.291  19.337  0.00  0.00    +0.000 C 
ATOM      5  O   UNL     1       2.900   6.115  18.246  0.00  0.00    +0.000 OA
ATOM      6  C   UNL     1       2.401   7.327  18.650  0.00  0.00    +0.000 A 
ATOM      7  C   UNL     1       2.375   8.339  17.696  0.00  0.00    +0.000 A 
ATOM      8  C   UNL     1       1.841   9.581  18.028  0.00  0.00    +0.000 A 
ATOM      9  C   UNL     1       1.342   9.817  19.314  0.00  0.00    +0.000 A 
ATOM     10  C   UNL     1       1.351   8.803  20.274  0.00  0.00    +0.000 A 
ATOM     11  C   UNL     1       1.875   7.546  19.923  0.00  0.00    +0.000 A 
ATOM     12  N   UNL     1       1.794   6.480  20.826  0.00  0.00    +0.000 N 
ATOM     13  C   UNL     1       2.325   5.251  20.517  0.00  0.00    +0.000 C 
ATOM     14  O   UNL     1       2.097   4.276  21.207  0.00  0.00    +0.000 OA
ATOM     15  H   UNL     1       1.245   6.554  21.673  0.00  0.00    +0.000 HD
ENDBRANCH   1   9
BRANCH   1  16
ATOM     16  S   UNL     1      -0.726  11.520  19.077  0.00  0.00    +0.000 S 
ATOM     17  O   UNL     1      -0.562  12.776  18.345  0.00  0.00    +0.000 OA
ATOM     18  O   UNL     1      -1.306  10.392  18.454  0.00  0.00    +0.000 OA
BRANCH  16  19
ATOM     19  C   UNL     1      -1.586  11.873  20.574  0.00  0.00    +0.000 A 
ATOM     20  C   UNL     1      -1.044  11.386  21.763  0.00  0.00    +0.000 A 
ATOM     21  C   UNL     1      -1.618  11.746  22.975  0.00  0.00    +0.000 A 
ATOM     22  C   UNL     1      -2.835  12.438  22.992  0.00  0.00    +0.000 A 
ATOM     23  C   UNL     1      -3.446  12.771  24.197  0.00  0.00    +0.000 A 
ATOM     24  C   UNL     1      -4.827  12.822  24.267  0.00  0.00    +0.000 A 
ATOM     25  C   UNL     1      -5.540  13.006  23.092  0.00  0.00    +0.000 A 
ATOM     26  C   UNL     1      -4.860  13.106  21.872  0.00  0.00    +0.000 A 
ATOM     27  C   UNL     1      -3.509  12.722  21.790  0.00  0.00    +0.000 A 
ATOM     28  C   UNL     1      -2.821  12.544  20.574  0.00  0.00    +0.000 A 
ENDBRANCH  16  19
ENDBRANCH   1  16
TORSDOF 3
ENDMDL
MODEL 9
REMARK VINA RESULT:      -8.5      5.776      9.563
REMARK  Name = 
REMARK  4 active torsions:
REMARK  status: ('A' for Active; 'I' for Inactive)
REMARK    1  A    between atoms: C_1  and  C_2
REMARK    2  A    between atoms: C_7  and  N_8
REMARK    3  A    between atoms: N_8  and  S_9
REMARK    4  A    between atoms: S_9  and  C_12
REMARK                            x       y       z     vdW  Elec       q    Type
REMARK                         _______ _______ _______ _____ _____    ______ ____
ROOT
ATOM      1  N   UNL     1       0.833  10.308  20.249  0.00  0.00    +0.000 N 
ATOM      2  H   UNL     1       1.444  11.055  20.582  0.00  0.00    +0.000 HD
ENDROOT
BRANCH   1   9
ATOM      3  C   UNL     1      -6.097  12.539  17.530  0.00  0.00    +0.000 C 
ATOM      4  C   UNL     1      -4.990  11.982  18.417  0.00  0.00    +0.000 C 
ATOM      5  O   UNL     1      -3.887  11.614  17.589  0.00  0.00    +0.000 OA
ATOM      6  C   UNL     1      -2.760  11.305  18.307  0.00  0.00    +0.000 A 
ATOM      7  C   UNL     1      -1.794  10.549  17.653  0.00  0.00    +0.000 A 
ATOM      8  C   UNL     1      -0.606  10.237  18.310  0.00  0.00    +0.000 A 
ATOM      9  C   UNL     1      -0.386  10.673  19.621  0.00  0.00    +0.000 A 
ATOM     10  C   UNL     1      -1.346  11.445  20.281  0.00  0.00    +0.000 A 
ATOM     11  C   UNL     1      -2.534  11.770  19.602  0.00  0.00    +0.000 A 
ATOM     12  N   UNL     1      -3.461  12.635  20.195  0.00  0.00    +0.000 N 
ATOM     13  C   UNL     1      -4.642  12.943  19.563  0.00  0.00    +0.000 C 
ATOM     14  O   UNL     1      -5.362  13.832  19.977  0.00  0.00    +0.000 OA
ATOM     15  H   UNL     1      -3.235  13.141  21.041  0.00  0.00    +0.000 HD
ENDBRANCH   1   9
BRANCH   1  16
ATOM     16  S   UNL     1       0.865   8.971  21.285  0.00  0.00    +0.000 S 
ATOM     17  O   UNL     1       1.805   9.332  22.346  0.00  0.00    +0.000 OA
ATOM     18  O   UNL     1      -0.465   8.605  21.592  0.00  0.00    +0.000 OA
BRANCH  16  19
ATOM     19  C   UNL     1       1.611   7.711  20.305  0.00  0.00    +0.000 A 
ATOM     20  C   UNL     1       1.623   6.414  20.816  0.00  0.00    +0.000 A 
ATOM     21  C   UNL     1       2.087   5.370  20.026  0.00  0.00    +0.000 A 
ATOM     22  C   UNL     1       2.706   5.646  18.800  0.00  0.00    +0.000 A 
ATOM     23  C   UNL     1       3.214   4.616  18.015  0.00  0.00    +0.000 A 
ATOM     24  C   UNL     1       4.329   4.848  17.229  0.00  0.00    +0.000 A 
ATOM     25  C   UNL     1       4.627   6.157  16.877  0.00  0.00    +0.000 A 
ATOM     26  C   UNL     1       3.822   7.204  17.342  0.00  0.00    +0.000 A 
ATOM     27  C   UNL     1       2.913   6.976  18.391  0.00  0.00    +0.000 A 
ATOM     28  C   UNL     1       2.254   8.006  19.091  0.00  0.00    +0.000 A 
ENDBRANCH  16  19
ENDBRANCH   1  16
TORSDOF 3
ENDMDL
