MODEL 1
REMARK VINA RESULT:      -8.4      0.000      0.000
REMARK  Name = 
REMARK  5 active torsions:
REMARK  status: ('A' for Active; 'I' for Inactive)
REMARK    1  A    between atoms: S_2  and  C_4
REMARK    2  A    between atoms: S_2  and  C_18
REMARK    3  A    between atoms: C_4  and  C_5
REMARK    4  A    between atoms: C_10  and  O_11
REMARK    5  A    between atoms: O_11  and  C_12
REMARK                            x       y       z     vdW  Elec       q    Type
REMARK                         _______ _______ _______ _____ _____    ______ ____
ROOT
ATOM      1  C   UNL     1       4.199   6.268  18.896  0.00  0.00    +0.000 C 
ENDROOT
BRANCH   1   2
ATOM      2  C   UNL     1       4.662   5.578  17.638  0.00  0.00    +0.000 A 
ATOM      3  C   UNL     1       4.820   6.345  16.463  0.00  0.00    +0.000 A 
ATOM      4  C   UNL     1       5.358   5.795  15.300  0.00  0.00    +0.000 A 
ATOM      5  C   UNL     1       5.729   4.457  15.278  0.00  0.00    +0.000 A 
ATOM      6  C   UNL     1       5.492   3.661  16.395  0.00  0.00    +0.000 A 
ATOM      7  C   UNL     1       4.916   4.194  17.560  0.00  0.00    +0.000 A 
BRANCH   7   8
ATOM      8  O   UNL     1       4.746   3.245  18.549  0.00  0.00    +0.000 OA
BRANCH   8   9
ATOM      9  C   UNL     1       3.499   2.846  18.967  0.00  0.00    +0.000 A 
ATOM     10  C   UNL     1       2.462   2.433  18.128  0.00  0.00    +0.000 A 
ATOM     11  C   UNL     1       1.174   2.275  18.649  0.00  0.00    +0.000 A 
ATOM     12  C   UNL     1       0.947   2.436  20.016  0.00  0.00    +0.000 A 
ATOM     13  C   UNL     1       2.008   2.729  20.870  0.00  0.00    +0.000 A 
ATOM     14  C   UNL     1       3.283   2.932  20.345  0.00  0.00    +0.000 A 
ENDBRANCH   8   9
ENDBRANCH   7   8
ENDBRANCH   1   2
BRANCH   1  16
ATOM     15  O   UNL     1       1.785   5.654  17.905  0.00  0.00    +0.000 OA
ATOM     16  S   UNL     1       2.425   6.349  19.005  0.00  0.00    +0.000 S 
ATOM     17  O   UNL     1       1.986   6.165  20.382  0.00  0.00    +0.000 OA
BRANCH  16  18
ATOM     18  C   UNL     1       2.124   8.053  18.676  0.00  0.00    +0.000 A 
ATOM     19  N   UNL     1       2.537   8.700  17.604  0.00  0.00    +0.000 NA
ATOM     20  N   UNL     1       2.039   9.975  17.658  0.00  0.00    +0.000 NA
ATOM     21  C   UNL     1       1.330  10.093  18.763  0.00  0.00    +0.000 A 
ATOM     22  N   UNL     1       1.404   8.912  19.464  0.00  0.00    +0.000 N 
ATOM     23  C   UNL     1       0.851   8.612  20.768  0.00  0.00    +0.000 C 
ATOM     24  C   UNL     1       0.961   9.783  21.738  0.00  0.00    +0.000 C 
ATOM     25  C   UNL     1      -0.153  10.815  21.561  0.00  0.00    +0.000 C 
ATOM     26  C   UNL     1      -0.577  11.079  20.115  0.00  0.00    +0.000 C 
ATOM     27  C   UNL     1       0.597  11.325  19.175  0.00  0.00    +0.000 C 
ENDBRANCH  16  18
ENDBRANCH   1  16
TORSDOF 5
ENDMDL
MODEL 2
REMARK VINA RESULT:      -8.3      1.408      3.804
REMARK  Name = 
REMARK  5 active torsions:
REMARK  status: ('A' for Active; 'I' for Inactive)
REMARK    1  A    between atoms: S_2  and  C_4
REMARK    2  A    between atoms: S_2  and  C_18
REMARK    3  A    between atoms: C_4  and  C_5
REMARK    4  A    between atoms: C_10  and  O_11
REMARK    5  A    between atoms: O_11  and  C_12
REMARK                            x       y       z     vdW  Elec       q    Type
REMARK                         _______ _______ _______ _____ _____    ______ ____
ROOT
ATOM      1  C   UNL     1       1.762   5.756  17.760  0.00  0.00    +0.000 C 
ENDROOT
BRANCH   1   2
ATOM      2  C   UNL     1       1.872   4.392  18.393  0.00  0.00    +0.000 A 
ATOM      3  C   UNL     1       1.161   4.139  19.587  0.00  0.00    +0.000 A 
ATOM      4  C   UNL     1       1.124   2.867  20.158  0.00  0.00    +0.000 A 
ATOM      5  C   UNL     1       1.818   1.823  19.562  0.00  0.00    +0.000 A 
ATOM      6  C   UNL     1       2.603   2.074  18.439  0.00  0.00    +0.000 A 
ATOM      7  C   UNL     1       2.679   3.358  17.876  0.00  0.00    +0.000 A 
BRANCH   7   8
ATOM      8  O   UNL     1       3.520   3.408  16.782  0.00  0.00    +0.000 OA
BRANCH   8   9
ATOM      9  C   UNL     1       4.827   3.819  16.887  0.00  0.00    +0.000 A 
ATOM     10  C   UNL     1       5.498   4.069  18.086  0.00  0.00    +0.000 A 
ATOM     11  C   UNL     1       6.745   4.702  18.060  0.00  0.00    +0.000 A 
ATOM     12  C   UNL     1       7.357   4.995  16.840  0.00  0.00    +0.000 A 
ATOM     13  C   UNL     1       6.739   4.632  15.645  0.00  0.00    +0.000 A 
ATOM     14  C   UNL     1       5.476   4.043  15.670  0.00  0.00    +0.000 A 
ENDBRANCH   8   9
ENDBRANCH   7   8
ENDBRANCH   1   2
BRANCH   1  16
ATOM     15  O   UNL     1       3.575   6.508  19.586  0.00  0.00    +0.000 OA
ATOM     16  S   UNL     1       3.078   6.841  18.265  0.00  0.00    +0.000 S 
ATOM     17  O   UNL     1       3.983   7.103  17.153  0.00  0.00    +0.000 OA
BRANCH  16  18
ATOM     18  C   UNL     1       2.219   8.361  18.494  0.00  0.00    +0.000 A 
ATOM     19  N   UNL     1       2.126   9.320  17.594  0.00  0.00    +0.000 NA
ATOM     20  N   UNL     1       1.312  10.299  18.099  0.00  0.00    +0.000 NA
ATOM     21  C   UNL     1       0.918   9.929  19.300  0.00  0.00    +0.000 A 
ATOM     22  N   UNL     1       1.515   8.730  19.611  0.00  0.00    +0.000 N 
ATOM     23  C   UNL     1       1.439   7.990  20.853  0.00  0.00    +0.000 C 
ATOM     24  C   UNL     1       1.456   8.895  22.080  0.00  0.00    +0.000 C 
ATOM     25  C   UNL     1       0.085   9.486  22.408  0.00  0.00    +0.000 C 
ATOM     26  C   UNL     1      -0.765   9.881  21.199  0.00  0.00    +0.000 C 
ATOM     27  C   UNL     1      -0.005  10.712  20.171  0.00  0.00    +0.000 C 
ENDBRANCH  16  18
ENDBRANCH   1  16
TORSDOF 5
ENDMDL
MODEL 3
REMARK VINA RESULT:      -8.2      1.295      1.494
REMARK  Name = 
REMARK  5 active torsions:
REMARK  status: ('A' for Active; 'I' for Inactive)
REMARK    1  A    between atoms: S_2  and  C_4
REMARK    2  A    between atoms: S_2  and  C_18
REMARK    3  A    between atoms: C_4  and  C_5
REMARK    4  A    between atoms: C_10  and  O_11
REMARK    5  A    between atoms: O_11  and  C_12
REMARK                            x       y       z     vdW  Elec       q    Type
REMARK                         _______ _______ _______ _____ _____    ______ ____
ROOT
ATOM      1  C   UNL     1       3.824   6.563  17.012  0.00  0.00    +0.000 C 
ENDROOT
BRANCH   1   2
ATOM      2  C   UNL     1       5.219   6.082  17.322  0.00  0.00    +0.000 A 
ATOM      3  C   UNL     1       6.214   7.037  17.621  0.00  0.00    +0.000 A 
ATOM      4  C   UNL     1       7.491   6.655  18.032  0.00  0.00    +0.000 A 
ATOM      5  C   UNL     1       7.809   5.308  18.131  0.00  0.00    +0.000 A 
ATOM      6  C   UNL     1       6.872   4.352  17.748  0.00  0.00    +0.000 A 
ATOM      7  C   UNL     1       5.596   4.724  17.296  0.00  0.00    +0.000 A 
BRANCH   7   8
ATOM      8  O   UNL     1       4.819   3.636  16.949  0.00  0.00    +0.000 OA
BRANCH   8   9
ATOM      9  C   UNL     1       3.911   3.083  17.820  0.00  0.00    +0.000 A 
ATOM     10  C   UNL     1       2.638   2.625  17.474  0.00  0.00    +0.000 A 
ATOM     11  C   UNL     1       1.725   2.300  18.481  0.00  0.00    +0.000 A 
ATOM     12  C   UNL     1       2.114   2.341  19.821  0.00  0.00    +0.000 A 
ATOM     13  C   UNL     1       3.423   2.680  20.157  0.00  0.00    +0.000 A 
ATOM     14  C   UNL     1       4.321   3.049  19.156  0.00  0.00    +0.000 A 
ENDBRANCH   8   9
ENDBRANCH   7   8
ENDBRANCH   1   2
BRANCH   1  16
ATOM     15  O   UNL     1       1.551   5.714  18.153  0.00  0.00    +0.000 OA
ATOM     16  S   UNL     1       2.752   6.477  18.429  0.00  0.00    +0.000 S 
ATOM     17  O   UNL     1       3.526   6.268  19.647  0.00  0.00    +0.000 OA
BRANCH  16  18
ATOM     18  C   UNL     1       2.190   8.142  18.553  0.00  0.00    +0.000 A 
ATOM     19  N   UNL     1       2.327   9.057  17.613  0.00  0.00    +0.000 NA
ATOM     20  N   UNL     1       1.692  10.196  18.034  0.00  0.00    +0.000 NA
ATOM     21  C   UNL     1       1.177   9.965  19.225  0.00  0.00    +0.000 A 
ATOM     22  N   UNL     1       1.518   8.691  19.613  0.00  0.00    +0.000 N 
ATOM     23  C   UNL     1       1.242   8.039  20.876  0.00  0.00    +0.000 C 
ATOM     24  C   UNL     1       1.373   8.982  22.067  0.00  0.00    +0.000 C 
ATOM     25  C   UNL     1       0.126   9.837  22.295  0.00  0.00    +0.000 C 
ATOM     26  C   UNL     1      -0.573  10.327  21.026  0.00  0.00    +0.000 C 
ATOM     27  C   UNL     1       0.380  10.950  20.012  0.00  0.00    +0.000 C 
ENDBRANCH  16  18
ENDBRANCH   1  16
TORSDOF 5
ENDMDL
MODEL 4
REMARK VINA RESULT:      -8.1      2.766      7.413
REMARK  Name = 
REMARK  5 active torsions:
REMARK  status: ('A' for Active; 'I' for Inactive)
REMARK    1  A    between atoms: S_2  and  C_4
REMARK    2  A    between atoms: S_2  and  C_18
REMARK    3  A    between atoms: C_4  and  C_5
REMARK    4  A    between atoms: C_10  and  O_11
REMARK    5  A    between atoms: O_11  and  C_12
REMARK                            x       y       z     vdW  Elec       q    Type
REMARK                         _______ _______ _______ _____ _____    ______ ____
ROOT
ATOM      1  C   UNL     1       3.669   4.905  17.254  0.00  0.00    +0.000 C 
ENDROOT
BRANCH   1   2
ATOM      2  C   UNL     1       2.624   4.464  18.248  0.00  0.00    +0.000 A 
ATOM      3  C   UNL     1       1.930   3.257  18.012  0.00  0.00    +0.000 A 
ATOM      4  C   UNL     1       1.040   2.732  18.948  0.00  0.00    +0.000 A 
ATOM      5  C   UNL     1       0.804   3.415  20.133  0.00  0.00    +0.000 A 
ATOM      6  C   UNL     1       1.404   4.654  20.342  0.00  0.00    +0.000 A 
ATOM      7  C   UNL     1       2.274   5.211  19.390  0.00  0.00    +0.000 A 
BRANCH   7   8
ATOM      8  O   UNL     1       2.753   6.449  19.771  0.00  0.00    +0.000 OA
BRANCH   8   9
ATOM      9  C   UNL     1       2.147   7.617  19.373  0.00  0.00    +0.000 A 
ATOM     10  C   UNL     1       2.233   8.175  18.095  0.00  0.00    +0.000 A 
ATOM     11  C   UNL     1       1.770   9.475  17.877  0.00  0.00    +0.000 A 
ATOM     12  C   UNL     1       1.140  10.177  18.907  0.00  0.00    +0.000 A 
ATOM     13  C   UNL     1       0.946   9.571  20.147  0.00  0.00    +0.000 A 
ATOM     14  C   UNL     1       1.448   8.292  20.378  0.00  0.00    +0.000 A 
ENDBRANCH   8   9
ENDBRANCH   7   8
ENDBRANCH   1   2
BRANCH   1  16
ATOM     15  O   UNL     1       5.901   4.438  18.665  0.00  0.00    +0.000 OA
ATOM     16  S   UNL     1       5.204   4.030  17.460  0.00  0.00    +0.000 S 
ATOM     17  O   UNL     1       5.046   2.625  17.109  0.00  0.00    +0.000 OA
BRANCH  16  18
ATOM     18  C   UNL     1       6.174   4.699  16.150  0.00  0.00    +0.000 A 
ATOM     19  N   UNL     1       7.083   5.642  16.289  0.00  0.00    +0.000 NA
ATOM     20  N   UNL     1       7.685   5.835  15.073  0.00  0.00    +0.000 NA
ATOM     21  C   UNL     1       7.135   5.009  14.206  0.00  0.00    +0.000 A 
ATOM     22  N   UNL     1       6.134   4.309  14.837  0.00  0.00    +0.000 N 
ATOM     23  C   UNL     1       5.210   3.356  14.258  0.00  0.00    +0.000 C 
ATOM     24  C   UNL     1       4.743   3.759  12.864  0.00  0.00    +0.000 C 
ATOM     25  C   UNL     1       5.738   3.383  11.766  0.00  0.00    +0.000 C 
ATOM     26  C   UNL     1       7.214   3.544  12.136  0.00  0.00    +0.000 C 
ATOM     27  C   UNL     1       7.535   4.891  12.774  0.00  0.00    +0.000 C 
ENDBRANCH  16  18
ENDBRANCH   1  16
TORSDOF 5
ENDMDL
MODEL 5
REMARK VINA RESULT:      -8.1      1.262      3.644
REMARK  Name = 
REMARK  5 active torsions:
REMARK  status: ('A' for Active; 'I' for Inactive)
REMARK    1  A    between atoms: S_2  and  C_4
REMARK    2  A    between atoms: S_2  and  C_18
REMARK    3  A    between atoms: C_4  and  C_5
REMARK    4  A    between atoms: C_10  and  O_11
REMARK    5  A    between atoms: O_11  and  C_12
REMARK                            x       y       z     vdW  Elec       q    Type
REMARK                         _______ _______ _______ _____ _____    ______ ____
ROOT
ATOM      1  C   UNL     1       3.126   6.300  19.815  0.00  0.00    +0.000 C 
ENDROOT
BRANCH   1   2
ATOM      2  C   UNL     1       2.764   4.845  19.974  0.00  0.00    +0.000 A 
ATOM      3  C   UNL     1       1.456   4.513  20.389  0.00  0.00    +0.000 A 
ATOM      4  C   UNL     1       1.021   3.189  20.440  0.00  0.00    +0.000 A 
ATOM      5  C   UNL     1       1.892   2.163  20.099  0.00  0.00    +0.000 A 
ATOM      6  C   UNL     1       3.213   2.463  19.779  0.00  0.00    +0.000 A 
ATOM      7  C   UNL     1       3.674   3.790  19.761  0.00  0.00    +0.000 A 
BRANCH   7   8
ATOM      8  O   UNL     1       5.014   3.881  19.438  0.00  0.00    +0.000 OA
BRANCH   8   9
ATOM      9  C   UNL     1       5.437   4.154  18.159  0.00  0.00    +0.000 A 
ATOM     10  C   UNL     1       4.736   3.834  16.994  0.00  0.00    +0.000 A 
ATOM     11  C   UNL     1       5.370   3.951  15.754  0.00  0.00    +0.000 A 
ATOM     12  C   UNL     1       6.662   4.474  15.673  0.00  0.00    +0.000 A 
ATOM     13  C   UNL     1       7.312   4.907  16.827  0.00  0.00    +0.000 A 
ATOM     14  C   UNL     1       6.699   4.747  18.068  0.00  0.00    +0.000 A 
ENDBRANCH   8   9
ENDBRANCH   7   8
ENDBRANCH   1   2
BRANCH   1  16
ATOM     15  O   UNL     1       4.034   7.176  17.450  0.00  0.00    +0.000 OA
ATOM     16  S   UNL     1       2.806   6.897  18.170  0.00  0.00    +0.000 S 
ATOM     17  O   UNL     1       1.714   6.154  17.556  0.00  0.00    +0.000 OA
BRANCH  16  18
ATOM     18  C   UNL     1       2.122   8.488  18.495  0.00  0.00    +0.000 A 
ATOM     19  N   UNL     1       2.132   9.501  17.652  0.00  0.00    +0.000 NA
ATOM     20  N   UNL     1       1.433  10.533  18.220  0.00  0.00    +0.000 NA
ATOM     21  C   UNL     1       1.006  10.140  19.403  0.00  0.00    +0.000 A 
ATOM     22  N   UNL     1       1.468   8.867  19.638  0.00  0.00    +0.000 N 
ATOM     23  C   UNL     1       1.317   8.069  20.837  0.00  0.00    +0.000 C 
ATOM     24  C   UNL     1       1.439   8.895  22.113  0.00  0.00    +0.000 C 
ATOM     25  C   UNL     1       0.143   9.613  22.490  0.00  0.00    +0.000 C 
ATOM     26  C   UNL     1      -0.664  10.168  21.314  0.00  0.00    +0.000 C 
ATOM     27  C   UNL     1       0.179  10.969  20.327  0.00  0.00    +0.000 C 
ENDBRANCH  16  18
ENDBRANCH   1  16
TORSDOF 5
ENDMDL
MODEL 6
REMARK VINA RESULT:      -8.0      2.938      7.498
REMARK  Name = 
REMARK  5 active torsions:
REMARK  status: ('A' for Active; 'I' for Inactive)
REMARK    1  A    between atoms: S_2  and  C_4
REMARK    2  A    between atoms: S_2  and  C_18
REMARK    3  A    between atoms: C_4  and  C_5
REMARK    4  A    between atoms: C_10  and  O_11
REMARK    5  A    between atoms: O_11  and  C_12
REMARK                            x       y       z     vdW  Elec       q    Type
REMARK                         _______ _______ _______ _____ _____    ______ ____
ROOT
ATOM      1  C   UNL     1       4.025   5.274  17.012  0.00  0.00    +0.000 C 
ENDROOT
BRANCH   1   2
ATOM      2  C   UNL     1       2.931   4.736  17.898  0.00  0.00    +0.000 A 
ATOM      3  C   UNL     1       2.256   3.560  17.503  0.00  0.00    +0.000 A 
ATOM      4  C   UNL     1       1.319   2.944  18.333  0.00  0.00    +0.000 A 
ATOM      5  C   UNL     1       1.018   3.503  19.567  0.00  0.00    +0.000 A 
ATOM      6  C   UNL     1       1.601   4.713  19.933  0.00  0.00    +0.000 A 
ATOM      7  C   UNL     1       2.517   5.363  19.090  0.00  0.00    +0.000 A 
BRANCH   7   8
ATOM      8  O   UNL     1       2.970   6.555  19.621  0.00  0.00    +0.000 OA
BRANCH   8   9
ATOM      9  C   UNL     1       2.234   7.713  19.541  0.00  0.00    +0.000 A 
ATOM     10  C   UNL     1       1.506   8.279  20.591  0.00  0.00    +0.000 A 
ATOM     11  C   UNL     1       0.615   9.323  20.328  0.00  0.00    +0.000 A 
ATOM     12  C   UNL     1       0.524   9.860  19.042  0.00  0.00    +0.000 A 
ATOM     13  C   UNL     1       1.341   9.374  18.024  0.00  0.00    +0.000 A 
ATOM     14  C   UNL     1       2.196   8.303  18.274  0.00  0.00    +0.000 A 
ENDBRANCH   8   9
ENDBRANCH   7   8
ENDBRANCH   1   2
BRANCH   1  16
ATOM     15  O   UNL     1       6.353   4.975  18.306  0.00  0.00    +0.000 OA
ATOM     16  S   UNL     1       5.561   4.405  17.234  0.00  0.00    +0.000 S 
ATOM     17  O   UNL     1       5.358   2.966  17.118  0.00  0.00    +0.000 OA
BRANCH  16  18
ATOM     18  C   UNL     1       6.434   4.841  15.768  0.00  0.00    +0.000 A 
ATOM     19  N   UNL     1       7.419   5.716  15.707  0.00  0.00    +0.000 NA
ATOM     20  N   UNL     1       7.903   5.722  14.426  0.00  0.00    +0.000 NA
ATOM     21  C   UNL     1       7.208   4.853  13.719  0.00  0.00    +0.000 A 
ATOM     22  N   UNL     1       6.231   4.313  14.520  0.00  0.00    +0.000 N 
ATOM     23  C   UNL     1       5.186   3.381  14.149  0.00  0.00    +0.000 C 
ATOM     24  C   UNL     1       4.606   3.666  12.768  0.00  0.00    +0.000 C 
ATOM     25  C   UNL     1       5.452   3.089  11.633  0.00  0.00    +0.000 C 
ATOM     26  C   UNL     1       6.967   3.166  11.839  0.00  0.00    +0.000 C 
ATOM     27  C   UNL     1       7.447   4.545  12.279  0.00  0.00    +0.000 C 
ENDBRANCH  16  18
ENDBRANCH   1  16
TORSDOF 5
ENDMDL
MODEL 7
REMARK VINA RESULT:      -7.9      1.554      4.112
REMARK  Name = 
REMARK  5 active torsions:
REMARK  status: ('A' for Active; 'I' for Inactive)
REMARK    1  A    between atoms: S_2  and  C_4
REMARK    2  A    between atoms: S_2  and  C_18
REMARK    3  A    between atoms: C_4  and  C_5
REMARK    4  A    between atoms: C_10  and  O_11
REMARK    5  A    between atoms: O_11  and  C_12
REMARK                            x       y       z     vdW  Elec       q    Type
REMARK                         _______ _______ _______ _____ _____    ______ ____
ROOT
ATOM      1  C   UNL     1       1.706   5.897  17.932  0.00  0.00    +0.000 C 
ENDROOT
BRANCH   1   2
ATOM      2  C   UNL     1       1.842   4.475  18.414  0.00  0.00    +0.000 A 
ATOM      3  C   UNL     1       1.174   4.093  19.597  0.00  0.00    +0.000 A 
ATOM      4  C   UNL     1       1.161   2.768  20.031  0.00  0.00    +0.000 A 
ATOM      5  C   UNL     1       1.837   1.797  19.305  0.00  0.00    +0.000 A 
ATOM      6  C   UNL     1       2.581   2.170  18.189  0.00  0.00    +0.000 A 
ATOM      7  C   UNL     1       2.634   3.507  17.763  0.00  0.00    +0.000 A 
BRANCH   7   8
ATOM      8  O   UNL     1       3.435   3.677  16.651  0.00  0.00    +0.000 OA
BRANCH   8   9
ATOM      9  C   UNL     1       4.778   3.953  16.759  0.00  0.00    +0.000 A 
ATOM     10  C   UNL     1       5.463   4.166  17.957  0.00  0.00    +0.000 A 
ATOM     11  C   UNL     1       6.769   4.665  17.926  0.00  0.00    +0.000 A 
ATOM     12  C   UNL     1       7.416   4.859  16.704  0.00  0.00    +0.000 A 
ATOM     13  C   UNL     1       6.773   4.529  15.513  0.00  0.00    +0.000 A 
ATOM     14  C   UNL     1       5.455   4.075  15.542  0.00  0.00    +0.000 A 
ENDBRANCH   8   9
ENDBRANCH   7   8
ENDBRANCH   1   2
BRANCH   1  16
ATOM     15  O   UNL     1       3.787   6.268  19.580  0.00  0.00    +0.000 OA
ATOM     16  S   UNL     1       2.876   6.987  18.710  0.00  0.00    +0.000 S 
ATOM     17  O   UNL     1       3.354   7.988  17.765  0.00  0.00    +0.000 OA
BRANCH  16  18
ATOM     18  C   UNL     1       1.843   7.890  19.815  0.00  0.00    +0.000 A 
ATOM     19  N   UNL     1       1.687   7.619  21.095  0.00  0.00    +0.000 NA
ATOM     20  N   UNL     1       0.883   8.586  21.640  0.00  0.00    +0.000 NA
ATOM     21  C   UNL     1       0.556   9.435  20.685  0.00  0.00    +0.000 A 
ATOM     22  N   UNL     1       1.101   8.998  19.501  0.00  0.00    +0.000 N 
ATOM     23  C   UNL     1       0.936   9.568  18.180  0.00  0.00    +0.000 C 
ATOM     24  C   UNL     1      -0.480  10.074  17.929  0.00  0.00    +0.000 C 
ATOM     25  C   UNL     1      -0.729  11.469  18.504  0.00  0.00    +0.000 C 
ATOM     26  C   UNL     1      -0.061  11.750  19.852  0.00  0.00    +0.000 C 
ATOM     27  C   UNL     1      -0.288  10.648  20.881  0.00  0.00    +0.000 C 
ENDBRANCH  16  18
ENDBRANCH   1  16
TORSDOF 5
ENDMDL
MODEL 8
REMARK VINA RESULT:      -7.9      1.384      3.960
REMARK  Name = 
REMARK  5 active torsions:
REMARK  status: ('A' for Active; 'I' for Inactive)
REMARK    1  A    between atoms: S_2  and  C_4
REMARK    2  A    between atoms: S_2  and  C_18
REMARK    3  A    between atoms: C_4  and  C_5
REMARK    4  A    between atoms: C_10  and  O_11
REMARK    5  A    between atoms: O_11  and  C_12
REMARK                            x       y       z     vdW  Elec       q    Type
REMARK                         _______ _______ _______ _____ _____    ______ ____
ROOT
ATOM      1  C   UNL     1       3.437   5.882  19.731  0.00  0.00    +0.000 C 
ENDROOT
BRANCH   1   2
ATOM      2  C   UNL     1       2.829   4.504  19.648  0.00  0.00    +0.000 A 
ATOM      3  C   UNL     1       1.507   4.317  20.107  0.00  0.00    +0.000 A 
ATOM      4  C   UNL     1       0.846   3.100  19.949  0.00  0.00    +0.000 A 
ATOM      5  C   UNL     1       1.500   2.032  19.351  0.00  0.00    +0.000 A 
ATOM      6  C   UNL     1       2.836   2.167  18.980  0.00  0.00    +0.000 A 
ATOM      7  C   UNL     1       3.525   3.376  19.167  0.00  0.00    +0.000 A 
BRANCH   7   8
ATOM      8  O   UNL     1       4.840   3.306  18.753  0.00  0.00    +0.000 OA
BRANCH   8   9
ATOM      9  C   UNL     1       5.298   4.009  17.664  0.00  0.00    +0.000 A 
ATOM     10  C   UNL     1       4.677   4.050  16.413  0.00  0.00    +0.000 A 
ATOM     11  C   UNL     1       5.356   4.607  15.325  0.00  0.00    +0.000 A 
ATOM     12  C   UNL     1       6.605   5.202  15.507  0.00  0.00    +0.000 A 
ATOM     13  C   UNL     1       7.167   5.268  16.781  0.00  0.00    +0.000 A 
ATOM     14  C   UNL     1       6.512   4.673  17.858  0.00  0.00    +0.000 A 
ENDBRANCH   8   9
ENDBRANCH   7   8
ENDBRANCH   1   2
BRANCH   1  16
ATOM     15  O   UNL     1       3.601   7.945  18.026  0.00  0.00    +0.000 OA
ATOM     16  S   UNL     1       2.647   7.032  18.628  0.00  0.00    +0.000 S 
ATOM     17  O   UNL     1       1.626   6.363  17.832  0.00  0.00    +0.000 OA
BRANCH  16  18
ATOM     18  C   UNL     1       1.734   8.036  19.752  0.00  0.00    +0.000 A 
ATOM     19  N   UNL     1       1.681   7.852  21.056  0.00  0.00    +0.000 NA
ATOM     20  N   UNL     1       0.951   8.876  21.600  0.00  0.00    +0.000 NA
ATOM     21  C   UNL     1       0.566   9.671  20.622  0.00  0.00    +0.000 A 
ATOM     22  N   UNL     1       0.996   9.143  19.428  0.00  0.00    +0.000 N 
ATOM     23  C   UNL     1       0.734   9.632  18.090  0.00  0.00    +0.000 C 
ATOM     24  C   UNL     1      -0.685  10.164  17.925  0.00  0.00    +0.000 C 
ATOM     25  C   UNL     1      -0.849  11.600  18.425  0.00  0.00    +0.000 C 
ATOM     26  C   UNL     1      -0.062  11.946  19.691  0.00  0.00    +0.000 C 
ATOM     27  C   UNL     1      -0.229  10.920  20.807  0.00  0.00    +0.000 C 
ENDBRANCH  16  18
ENDBRANCH   1  16
TORSDOF 5
ENDMDL
MODEL 9
REMARK VINA RESULT:      -7.9      1.455      3.675
REMARK  Name = 
REMARK  5 active torsions:
REMARK  status: ('A' for Active; 'I' for Inactive)
REMARK    1  A    between atoms: S_2  and  C_4
REMARK    2  A    between atoms: S_2  and  C_18
REMARK    3  A    between atoms: C_4  and  C_5
REMARK    4  A    between atoms: C_10  and  O_11
REMARK    5  A    between atoms: O_11  and  C_12
REMARK                            x       y       z     vdW  Elec       q    Type
REMARK                         _______ _______ _______ _____ _____    ______ ____
ROOT
ATOM      1  C   UNL     1       2.007   5.419  18.109  0.00  0.00    +0.000 C 
ENDROOT
BRANCH   1   2
ATOM      2  C   UNL     1       2.571   4.024  18.207  0.00  0.00    +0.000 A 
ATOM      3  C   UNL     1       1.993   3.121  19.126  0.00  0.00    +0.000 A 
ATOM      4  C   UNL     1       2.388   1.785  19.182  0.00  0.00    +0.000 A 
ATOM      5  C   UNL     1       3.386   1.325  18.335  0.00  0.00    +0.000 A 
ATOM      6  C   UNL     1       4.035   2.220  17.489  0.00  0.00    +0.000 A 
ATOM      7  C   UNL     1       3.673   3.577  17.450  0.00  0.00    +0.000 A 
BRANCH   7   8
ATOM      8  O   UNL     1       4.442   4.305  16.563  0.00  0.00    +0.000 OA
BRANCH   8   9
ATOM      9  C   UNL     1       5.547   5.015  16.970  0.00  0.00    +0.000 A 
ATOM     10  C   UNL     1       6.610   4.494  17.711  0.00  0.00    +0.000 A 
ATOM     11  C   UNL     1       7.557   5.362  18.262  0.00  0.00    +0.000 A 
ATOM     12  C   UNL     1       7.494   6.731  17.993  0.00  0.00    +0.000 A 
ATOM     13  C   UNL     1       6.502   7.231  17.152  0.00  0.00    +0.000 A 
ATOM     14  C   UNL     1       5.530   6.373  16.641  0.00  0.00    +0.000 A 
ENDBRANCH   8   9
ENDBRANCH   7   8
ENDBRANCH   1   2
BRANCH   1  16
ATOM     15  O   UNL     1       1.598   6.266  20.620  0.00  0.00    +0.000 OA
ATOM     16  S   UNL     1       2.487   6.436  19.487  0.00  0.00    +0.000 S 
ATOM     17  O   UNL     1       3.936   6.433  19.648  0.00  0.00    +0.000 OA
BRANCH  16  18
ATOM     18  C   UNL     1       2.120   8.050  18.884  0.00  0.00    +0.000 A 
ATOM     19  N   UNL     1       2.544   8.542  17.736  0.00  0.00    +0.000 NA
ATOM     20  N   UNL     1       1.985   9.782  17.573  0.00  0.00    +0.000 NA
ATOM     21  C   UNL     1       1.229  10.034  18.623  0.00  0.00    +0.000 A 
ATOM     22  N   UNL     1       1.331   8.983  19.504  0.00  0.00    +0.000 N 
ATOM     23  C   UNL     1       0.743   8.862  20.821  0.00  0.00    +0.000 C 
ATOM     24  C   UNL     1       0.760  10.174  21.597  0.00  0.00    +0.000 C 
ATOM     25  C   UNL     1      -0.393  11.106  21.225  0.00  0.00    +0.000 C 
ATOM     26  C   UNL     1      -0.773  11.118  19.743  0.00  0.00    +0.000 C 
ATOM     27  C   UNL     1       0.424  11.276  18.812  0.00  0.00    +0.000 C 
ENDBRANCH  16  18
ENDBRANCH   1  16
TORSDOF 5
ENDMDL
