MODEL 1
REMARK VINA RESULT:      -8.3      0.000      0.000
REMARK  Name = 
REMARK  10 active torsions:
REMARK  status: ('A' for Active; 'I' for Inactive)
REMARK    1  A    between atoms: C_1  and  C_2
REMARK    2  A    between atoms: C_5  and  C_6
REMARK    3  A    between atoms: N_8  and  C_9
REMARK    4  A    between atoms: C_9  and  C_10
REMARK    5  A    between atoms: C_17  and  C_18
REMARK    6  A    between atoms: N_20  and  C_21
REMARK    7  A    between atoms: C_21  and  C_22
REMARK    8  A    between atoms: C_22  and  C_23
REMARK    9  A    between atoms: C_26  and  S_27
REMARK   10  A    between atoms: S_27  and  N_28
REMARK                            x       y       z     vdW  Elec       q    Type
REMARK                         _______ _______ _______ _____ _____    ______ ____
ROOT
ATOM      1  C   UNL     1       5.193   4.233  16.458  0.00  0.00    +0.000 A 
ATOM      2  N   UNL     1       5.556   3.640  15.305  0.00  0.00    +0.000 NA
ATOM      3  N   UNL     1       6.465   4.473  14.759  0.00  0.00    +0.000 N 
ATOM      4  C   UNL     1       6.664   5.603  15.487  0.00  0.00    +0.000 A 
ATOM      5  C   UNL     1       5.938   5.445  16.661  0.00  0.00    +0.000 A 
ENDROOT
BRANCH   1  10
ATOM      6  C   UNL     1       1.203   2.914  20.386  0.00  0.00    +0.000 C 
ATOM      7  C   UNL     1       2.275   3.087  19.349  0.00  0.00    +0.000 A 
ATOM      8  C   UNL     1       3.619   3.229  19.714  0.00  0.00    +0.000 A 
ATOM      9  C   UNL     1       4.601   3.455  18.739  0.00  0.00    +0.000 A 
ATOM     10  C   UNL     1       4.253   3.564  17.379  0.00  0.00    +0.000 A 
ATOM     11  C   UNL     1       2.914   3.345  17.009  0.00  0.00    +0.000 A 
ATOM     12  C   UNL     1       1.932   3.141  17.992  0.00  0.00    +0.000 A 
ENDBRANCH   1  10
BRANCH   5  13
ATOM     13  C   UNL     1       6.046   6.397  17.773  0.00  0.00    +0.000 C 
ATOM     14  O   UNL     1       7.036   6.413  18.495  0.00  0.00    +0.000 OA
ATOM     15  N   UNL     1       4.988   7.218  18.070  0.00  0.00    +0.000 N 
ATOM     16  H   UNL     1       5.155   7.767  18.900  0.00  0.00    +0.000 HD
BRANCH  15  17
ATOM     17  C   UNL     1       3.671   7.315  17.467  0.00  0.00    +0.000 C 
BRANCH  17  18
ATOM     18  C   UNL     1       2.517   6.760  18.273  0.00  0.00    +0.000 C 
BRANCH  18  19
ATOM     19  C   UNL     1       1.920   7.890  19.038  0.00  0.00    +0.000 A 
ATOM     20  C   UNL     1       1.670   9.113  18.394  0.00  0.00    +0.000 A 
ATOM     21  C   UNL     1       1.158  10.175  19.122  0.00  0.00    +0.000 A 
ATOM     22  C   UNL     1       0.900   9.993  20.482  0.00  0.00    +0.000 A 
ATOM     23  C   UNL     1       1.218   8.802  21.142  0.00  0.00    +0.000 A 
ATOM     24  C   UNL     1       1.726   7.744  20.412  0.00  0.00    +0.000 A 
BRANCH  22  25
ATOM     25  S   UNL     1       0.019  11.232  21.367  0.00  0.00    +0.000 S 
ATOM     26  O   UNL     1       0.843  12.409  21.498  0.00  0.00    +0.000 OA
ATOM     27  O   UNL     1      -1.348  11.278  20.903  0.00  0.00    +0.000 OA
BRANCH  25  28
ATOM     28  N   UNL     1      -0.019  10.505  22.878  0.00  0.00    +0.000 NA
ATOM     29  H   UNL     1       0.870  10.618  23.361  0.00  0.00    +0.000 HD
ATOM     30  H   UNL     1      -0.849  10.779  23.397  0.00  0.00    +0.000 HD
ENDBRANCH  25  28
ENDBRANCH  22  25
ENDBRANCH  18  19
ENDBRANCH  17  18
ENDBRANCH  15  17
ENDBRANCH   5  13
BRANCH   3  31
ATOM     31  C   UNL     1       7.089   4.149  13.481  0.00  0.00    +0.000 C 
BRANCH  31  32
ATOM     32  C   UNL     1       6.147   3.462  12.514  0.00  0.00    +0.000 A 
ATOM     33  C   UNL     1       6.468   2.217  11.951  0.00  0.00    +0.000 A 
ATOM     34  C   UNL     1       5.565   1.561  11.108  0.00  0.00    +0.000 A 
ATOM     35  C   UNL     1       4.328   2.135  10.825  0.00  0.00    +0.000 A 
ATOM     36  C   UNL     1       3.992   3.367  11.382  0.00  0.00    +0.000 A 
ATOM     37  C   UNL     1       4.895   4.025  12.221  0.00  0.00    +0.000 A 
ENDBRANCH  31  32
ENDBRANCH   3  31
TORSDOF 9
ENDMDL
MODEL 2
REMARK VINA RESULT:      -8.3      4.913      7.699
REMARK  Name = 
REMARK  10 active torsions:
REMARK  status: ('A' for Active; 'I' for Inactive)
REMARK    1  A    between atoms: C_1  and  C_2
REMARK    2  A    between atoms: C_5  and  C_6
REMARK    3  A    between atoms: N_8  and  C_9
REMARK    4  A    between atoms: C_9  and  C_10
REMARK    5  A    between atoms: C_17  and  C_18
REMARK    6  A    between atoms: N_20  and  C_21
REMARK    7  A    between atoms: C_21  and  C_22
REMARK    8  A    between atoms: C_22  and  C_23
REMARK    9  A    between atoms: C_26  and  S_27
REMARK   10  A    between atoms: S_27  and  N_28
REMARK                            x       y       z     vdW  Elec       q    Type
REMARK                         _______ _______ _______ _____ _____    ______ ____
ROOT
ATOM      1  C   UNL     1       1.385   8.884  20.263  0.00  0.00    +0.000 A 
ATOM      2  N   UNL     1       1.946   7.698  20.563  0.00  0.00    +0.000 NA
ATOM      3  N   UNL     1       2.508   7.281  19.411  0.00  0.00    +0.000 N 
ATOM      4  C   UNL     1       2.287   8.124  18.368  0.00  0.00    +0.000 A 
ATOM      5  C   UNL     1       1.652   9.240  18.897  0.00  0.00    +0.000 A 
ENDROOT
BRANCH   1  10
ATOM      6  C   UNL     1      -2.234  11.958  23.511  0.00  0.00    +0.000 C 
ATOM      7  C   UNL     1      -1.168  11.192  22.781  0.00  0.00    +0.000 A 
ATOM      8  C   UNL     1      -0.341  11.820  21.842  0.00  0.00    +0.000 A 
ATOM      9  C   UNL     1       0.607  11.079  21.122  0.00  0.00    +0.000 A 
ATOM     10  C   UNL     1       0.732   9.690  21.314  0.00  0.00    +0.000 A 
ATOM     11  C   UNL     1      -0.047   9.078  22.312  0.00  0.00    +0.000 A 
ATOM     12  C   UNL     1      -1.009   9.820  23.015  0.00  0.00    +0.000 A 
ENDBRANCH   1  10
BRANCH   5  13
ATOM     13  C   UNL     1       1.405  10.444  18.093  0.00  0.00    +0.000 C 
ATOM     14  O   UNL     1       2.310  11.229  17.840  0.00  0.00    +0.000 OA
ATOM     15  N   UNL     1       0.127  10.747  17.698  0.00  0.00    +0.000 N 
ATOM     16  H   UNL     1       0.077  11.636  17.223  0.00  0.00    +0.000 HD
BRANCH  15  17
ATOM     17  C   UNL     1      -1.129  10.069  17.964  0.00  0.00    +0.000 C 
BRANCH  17  18
ATOM     18  C   UNL     1      -2.321  10.508  17.143  0.00  0.00    +0.000 C 
BRANCH  18  19
ATOM     19  C   UNL     1      -3.290  11.157  18.070  0.00  0.00    +0.000 A 
ATOM     20  C   UNL     1      -2.817  11.939  19.137  0.00  0.00    +0.000 A 
ATOM     21  C   UNL     1      -3.722  12.501  20.023  0.00  0.00    +0.000 A 
ATOM     22  C   UNL     1      -5.085  12.274  19.824  0.00  0.00    +0.000 A 
ATOM     23  C   UNL     1      -5.555  11.435  18.809  0.00  0.00    +0.000 A 
ATOM     24  C   UNL     1      -4.650  10.879  17.925  0.00  0.00    +0.000 A 
BRANCH  22  25
ATOM     25  S   UNL     1      -6.259  13.177  20.774  0.00  0.00    +0.000 S 
ATOM     26  O   UNL     1      -5.852  14.559  20.855  0.00  0.00    +0.000 OA
ATOM     27  O   UNL     1      -7.595  12.772  20.405  0.00  0.00    +0.000 OA
BRANCH  25  28
ATOM     28  N   UNL     1      -5.959  12.502  22.280  0.00  0.00    +0.000 NA
ATOM     29  H   UNL     1      -5.012  12.707  22.591  0.00  0.00    +0.000 HD
ATOM     30  H   UNL     1      -6.704  12.725  22.937  0.00  0.00    +0.000 HD
ENDBRANCH  25  28
ENDBRANCH  22  25
ENDBRANCH  18  19
ENDBRANCH  17  18
ENDBRANCH  15  17
ENDBRANCH   5  13
BRANCH   3  31
ATOM     31  C   UNL     1       3.219   6.008  19.355  0.00  0.00    +0.000 C 
BRANCH  31  32
ATOM     32  C   UNL     1       2.379   4.834  19.811  0.00  0.00    +0.000 A 
ATOM     33  C   UNL     1       1.552   4.141  18.912  0.00  0.00    +0.000 A 
ATOM     34  C   UNL     1       0.828   3.019  19.328  0.00  0.00    +0.000 A 
ATOM     35  C   UNL     1       0.925   2.571  20.643  0.00  0.00    +0.000 A 
ATOM     36  C   UNL     1       1.746   3.244  21.545  0.00  0.00    +0.000 A 
ATOM     37  C   UNL     1       2.468   4.367  21.132  0.00  0.00    +0.000 A 
ENDBRANCH  31  32
ENDBRANCH   3  31
TORSDOF 9
ENDMDL
MODEL 3
REMARK VINA RESULT:      -8.2      4.711      7.704
REMARK  Name = 
REMARK  10 active torsions:
REMARK  status: ('A' for Active; 'I' for Inactive)
REMARK    1  A    between atoms: C_1  and  C_2
REMARK    2  A    between atoms: C_5  and  C_6
REMARK    3  A    between atoms: N_8  and  C_9
REMARK    4  A    between atoms: C_9  and  C_10
REMARK    5  A    between atoms: C_17  and  C_18
REMARK    6  A    between atoms: N_20  and  C_21
REMARK    7  A    between atoms: C_21  and  C_22
REMARK    8  A    between atoms: C_22  and  C_23
REMARK    9  A    between atoms: C_26  and  S_27
REMARK   10  A    between atoms: S_27  and  N_28
REMARK                            x       y       z     vdW  Elec       q    Type
REMARK                         _______ _______ _______ _____ _____    ______ ____
ROOT
ATOM      1  C   UNL     1       1.367   8.905  20.341  0.00  0.00    +0.000 A 
ATOM      2  N   UNL     1       1.922   7.728  20.683  0.00  0.00    +0.000 NA
ATOM      3  N   UNL     1       2.494   7.273  19.550  0.00  0.00    +0.000 N 
ATOM      4  C   UNL     1       2.286   8.085  18.480  0.00  0.00    +0.000 A 
ATOM      5  C   UNL     1       1.648   9.218  18.967  0.00  0.00    +0.000 A 
ENDROOT
BRANCH   1  10
ATOM      6  C   UNL     1      -2.296  12.033  23.487  0.00  0.00    +0.000 C 
ATOM      7  C   UNL     1      -1.217  11.263  22.779  0.00  0.00    +0.000 A 
ATOM      8  C   UNL     1      -0.425  11.866  21.795  0.00  0.00    +0.000 A 
ATOM      9  C   UNL     1       0.534  11.118  21.098  0.00  0.00    +0.000 A 
ATOM     10  C   UNL     1       0.705   9.744  21.360  0.00  0.00    +0.000 A 
ATOM     11  C   UNL     1      -0.039   9.162  22.402  0.00  0.00    +0.000 A 
ATOM     12  C   UNL     1      -1.013   9.911  23.081  0.00  0.00    +0.000 A 
ENDBRANCH   1  10
BRANCH   5  13
ATOM     13  C   UNL     1       1.412  10.397  18.124  0.00  0.00    +0.000 C 
ATOM     14  O   UNL     1       2.326  11.162  17.841  0.00  0.00    +0.000 OA
ATOM     15  N   UNL     1       0.136  10.701  17.724  0.00  0.00    +0.000 N 
ATOM     16  H   UNL     1       0.095  11.575  17.219  0.00  0.00    +0.000 HD
BRANCH  15  17
ATOM     17  C   UNL     1      -1.127  10.048  18.018  0.00  0.00    +0.000 C 
BRANCH  17  18
ATOM     18  C   UNL     1      -2.267  10.323  17.063  0.00  0.00    +0.000 C 
BRANCH  18  19
ATOM     19  C   UNL     1      -3.325  11.046  17.823  0.00  0.00    +0.000 A 
ATOM     20  C   UNL     1      -4.622  11.143  17.293  0.00  0.00    +0.000 A 
ATOM     21  C   UNL     1      -5.588  11.856  17.982  0.00  0.00    +0.000 A 
ATOM     22  C   UNL     1      -5.242  12.459  19.193  0.00  0.00    +0.000 A 
ATOM     23  C   UNL     1      -3.933  12.430  19.685  0.00  0.00    +0.000 A 
ATOM     24  C   UNL     1      -2.972  11.713  18.997  0.00  0.00    +0.000 A 
BRANCH  22  25
ATOM     25  S   UNL     1      -6.503  13.150  20.207  0.00  0.00    +0.000 S 
ATOM     26  O   UNL     1      -7.462  12.127  20.546  0.00  0.00    +0.000 OA
ATOM     27  O   UNL     1      -5.909  14.026  21.189  0.00  0.00    +0.000 OA
BRANCH  25  28
ATOM     28  N   UNL     1      -7.243  14.142  19.074  0.00  0.00    +0.000 NA
ATOM     29  H   UNL     1      -7.512  15.032  19.487  0.00  0.00    +0.000 HD
ATOM     30  H   UNL     1      -6.696  14.192  18.218  0.00  0.00    +0.000 HD
ENDBRANCH  25  28
ENDBRANCH  22  25
ENDBRANCH  18  19
ENDBRANCH  17  18
ENDBRANCH  15  17
ENDBRANCH   5  13
BRANCH   3  31
ATOM     31  C   UNL     1       3.203   5.998  19.541  0.00  0.00    +0.000 C 
BRANCH  31  32
ATOM     32  C   UNL     1       2.276   4.801  19.511  0.00  0.00    +0.000 A 
ATOM     33  C   UNL     1       1.905   4.202  18.296  0.00  0.00    +0.000 A 
ATOM     34  C   UNL     1       1.099   3.058  18.282  0.00  0.00    +0.000 A 
ATOM     35  C   UNL     1       0.662   2.494  19.478  0.00  0.00    +0.000 A 
ATOM     36  C   UNL     1       1.028   3.073  20.691  0.00  0.00    +0.000 A 
ATOM     37  C   UNL     1       1.830   4.217  20.708  0.00  0.00    +0.000 A 
ENDBRANCH  31  32
ENDBRANCH   3  31
TORSDOF 9
ENDMDL
MODEL 4
REMARK VINA RESULT:      -8.2      4.842      7.588
REMARK  Name = 
REMARK  10 active torsions:
REMARK  status: ('A' for Active; 'I' for Inactive)
REMARK    1  A    between atoms: C_1  and  C_2
REMARK    2  A    between atoms: C_5  and  C_6
REMARK    3  A    between atoms: N_8  and  C_9
REMARK    4  A    between atoms: C_9  and  C_10
REMARK    5  A    between atoms: C_17  and  C_18
REMARK    6  A    between atoms: N_20  and  C_21
REMARK    7  A    between atoms: C_21  and  C_22
REMARK    8  A    between atoms: C_22  and  C_23
REMARK    9  A    between atoms: C_26  and  S_27
REMARK   10  A    between atoms: S_27  and  N_28
REMARK                            x       y       z     vdW  Elec       q    Type
REMARK                         _______ _______ _______ _____ _____    ______ ____
ROOT
ATOM      1  C   UNL     1       1.494   8.669  20.108  0.00  0.00    +0.000 A 
ATOM      2  N   UNL     1       2.053   7.476  20.380  0.00  0.00    +0.000 NA
ATOM      3  N   UNL     1       2.597   7.075  19.213  0.00  0.00    +0.000 N 
ATOM      4  C   UNL     1       2.366   7.936  18.188  0.00  0.00    +0.000 A 
ATOM      5  C   UNL     1       1.742   9.047  18.744  0.00  0.00    +0.000 A 
ENDROOT
BRANCH   1  10
ATOM      6  C   UNL     1      -2.048  11.750  23.433  0.00  0.00    +0.000 C 
ATOM      7  C   UNL     1      -1.001  10.975  22.685  0.00  0.00    +0.000 A 
ATOM      8  C   UNL     1      -0.147  11.606  21.773  0.00  0.00    +0.000 A 
ATOM      9  C   UNL     1       0.781  10.859  21.035  0.00  0.00    +0.000 A 
ATOM     10  C   UNL     1       0.859   9.460  21.181  0.00  0.00    +0.000 A 
ATOM     11  C   UNL     1       0.052   8.841  22.153  0.00  0.00    +0.000 A 
ATOM     12  C   UNL     1      -0.890   9.591  22.873  0.00  0.00    +0.000 A 
ENDBRANCH   1  10
BRANCH   5  13
ATOM     13  C   UNL     1       1.490  10.265  17.963  0.00  0.00    +0.000 C 
ATOM     14  O   UNL     1       2.407  11.014  17.651  0.00  0.00    +0.000 OA
ATOM     15  N   UNL     1       0.201  10.621  17.659  0.00  0.00    +0.000 N 
ATOM     16  H   UNL     1       0.155  11.514  17.192  0.00  0.00    +0.000 HD
BRANCH  15  17
ATOM     17  C   UNL     1      -1.060   9.992  18.010  0.00  0.00    +0.000 C 
BRANCH  17  18
ATOM     18  C   UNL     1      -2.277  10.443  17.233  0.00  0.00    +0.000 C 
BRANCH  18  19
ATOM     19  C   UNL     1      -3.197  11.117  18.192  0.00  0.00    +0.000 A 
ATOM     20  C   UNL     1      -4.587  11.012  18.016  0.00  0.00    +0.000 A 
ATOM     21  C   UNL     1      -5.436  11.679  18.883  0.00  0.00    +0.000 A 
ATOM     22  C   UNL     1      -4.880  12.437  19.916  0.00  0.00    +0.000 A 
ATOM     23  C   UNL     1      -3.499  12.606  20.048  0.00  0.00    +0.000 A 
ATOM     24  C   UNL     1      -2.654  11.936  19.184  0.00  0.00    +0.000 A 
BRANCH  22  25
ATOM     25  S   UNL     1      -5.927  13.082  21.175  0.00  0.00    +0.000 S 
ATOM     26  O   UNL     1      -6.389  12.003  22.015  0.00  0.00    +0.000 OA
ATOM     27  O   UNL     1      -5.357  14.299  21.702  0.00  0.00    +0.000 OA
BRANCH  25  28
ATOM     28  N   UNL     1      -7.232  13.543  20.227  0.00  0.00    +0.000 NA
ATOM     29  H   UNL     1      -7.455  12.827  19.539  0.00  0.00    +0.000 HD
ATOM     30  H   UNL     1      -8.006  13.868  20.802  0.00  0.00    +0.000 HD
ENDBRANCH  25  28
ENDBRANCH  22  25
ENDBRANCH  18  19
ENDBRANCH  17  18
ENDBRANCH  15  17
ENDBRANCH   5  13
BRANCH   3  31
ATOM     31  C   UNL     1       3.302   5.800  19.127  0.00  0.00    +0.000 C 
BRANCH  31  32
ATOM     32  C   UNL     1       2.549   4.657  19.774  0.00  0.00    +0.000 A 
ATOM     33  C   UNL     1       2.847   4.240  21.081  0.00  0.00    +0.000 A 
ATOM     34  C   UNL     1       2.104   3.225  21.693  0.00  0.00    +0.000 A 
ATOM     35  C   UNL     1       1.051   2.620  21.012  0.00  0.00    +0.000 A 
ATOM     36  C   UNL     1       0.738   3.027  19.717  0.00  0.00    +0.000 A 
ATOM     37  C   UNL     1       1.481   4.039  19.102  0.00  0.00    +0.000 A 
ENDBRANCH  31  32
ENDBRANCH   3  31
TORSDOF 9
ENDMDL
MODEL 5
REMARK VINA RESULT:      -8.2      1.361      1.530
REMARK  Name = 
REMARK  10 active torsions:
REMARK  status: ('A' for Active; 'I' for Inactive)
REMARK    1  A    between atoms: C_1  and  C_2
REMARK    2  A    between atoms: C_5  and  C_6
REMARK    3  A    between atoms: N_8  and  C_9
REMARK    4  A    between atoms: C_9  and  C_10
REMARK    5  A    between atoms: C_17  and  C_18
REMARK    6  A    between atoms: N_20  and  C_21
REMARK    7  A    between atoms: C_21  and  C_22
REMARK    8  A    between atoms: C_22  and  C_23
REMARK    9  A    between atoms: C_26  and  S_27
REMARK   10  A    between atoms: S_27  and  N_28
REMARK                            x       y       z     vdW  Elec       q    Type
REMARK                         _______ _______ _______ _____ _____    ______ ____
ROOT
ATOM      1  C   UNL     1       4.968   3.983  16.518  0.00  0.00    +0.000 A 
ATOM      2  N   UNL     1       5.232   3.743  15.221  0.00  0.00    +0.000 NA
ATOM      3  N   UNL     1       6.418   4.342  14.994  0.00  0.00    +0.000 N 
ATOM      4  C   UNL     1       6.904   5.002  16.078  0.00  0.00    +0.000 A 
ATOM      5  C   UNL     1       6.046   4.708  17.131  0.00  0.00    +0.000 A 
ENDROOT
BRANCH   1  10
ATOM      6  C   UNL     1       0.528   2.700  19.945  0.00  0.00    +0.000 C 
ATOM      7  C   UNL     1       1.642   2.897  18.956  0.00  0.00    +0.000 A 
ATOM      8  C   UNL     1       2.884   2.276  19.132  0.00  0.00    +0.000 A 
ATOM      9  C   UNL     1       3.934   2.520  18.236  0.00  0.00    +0.000 A 
ATOM     10  C   UNL     1       3.767   3.407  17.155  0.00  0.00    +0.000 A 
ATOM     11  C   UNL     1       2.495   3.968  16.939  0.00  0.00    +0.000 A 
ATOM     12  C   UNL     1       1.454   3.737  17.851  0.00  0.00    +0.000 A 
ENDBRANCH   1  10
BRANCH   5  13
ATOM     13  C   UNL     1       6.347   5.111  18.510  0.00  0.00    +0.000 C 
ATOM     14  O   UNL     1       7.386   4.761  19.057  0.00  0.00    +0.000 OA
ATOM     15  N   UNL     1       5.413   5.809  19.232  0.00  0.00    +0.000 N 
ATOM     16  H   UNL     1       5.704   5.957  20.187  0.00  0.00    +0.000 HD
BRANCH  15  17
ATOM     17  C   UNL     1       4.071   6.236  18.877  0.00  0.00    +0.000 C 
BRANCH  17  18
ATOM     18  C   UNL     1       3.053   6.259  19.995  0.00  0.00    +0.000 C 
BRANCH  18  19
ATOM     19  C   UNL     1       2.171   7.439  19.775  0.00  0.00    +0.000 A 
ATOM     20  C   UNL     1       2.171   8.087  18.528  0.00  0.00    +0.000 A 
ATOM     21  C   UNL     1       1.384   9.212  18.344  0.00  0.00    +0.000 A 
ATOM     22  C   UNL     1       0.607   9.668  19.410  0.00  0.00    +0.000 A 
ATOM     23  C   UNL     1       0.662   9.072  20.674  0.00  0.00    +0.000 A 
ATOM     24  C   UNL     1       1.445   7.948  20.853  0.00  0.00    +0.000 A 
BRANCH  22  25
ATOM     25  S   UNL     1      -0.586  10.932  19.131  0.00  0.00    +0.000 S 
ATOM     26  O   UNL     1      -1.546  10.479  18.154  0.00  0.00    +0.000 OA
ATOM     27  O   UNL     1      -0.967  11.524  20.391  0.00  0.00    +0.000 OA
BRANCH  25  28
ATOM     28  N   UNL     1       0.391  12.054  18.357  0.00  0.00    +0.000 NA
ATOM     29  H   UNL     1      -0.136  12.582  17.664  0.00  0.00    +0.000 HD
ATOM     30  H   UNL     1       0.922  12.603  19.029  0.00  0.00    +0.000 HD
ENDBRANCH  25  28
ENDBRANCH  22  25
ENDBRANCH  18  19
ENDBRANCH  17  18
ENDBRANCH  15  17
ENDBRANCH   5  13
BRANCH   3  31
ATOM     31  C   UNL     1       7.031   4.289  13.671  0.00  0.00    +0.000 C 
BRANCH  31  32
ATOM     32  C   UNL     1       6.188   3.552  12.652  0.00  0.00    +0.000 A 
ATOM     33  C   UNL     1       6.625   2.345  12.085  0.00  0.00    +0.000 A 
ATOM     34  C   UNL     1       5.813   1.639  11.192  0.00  0.00    +0.000 A 
ATOM     35  C   UNL     1       4.550   2.125  10.861  0.00  0.00    +0.000 A 
ATOM     36  C   UNL     1       4.098   3.318  11.420  0.00  0.00    +0.000 A 
ATOM     37  C   UNL     1       4.911   4.026  12.310  0.00  0.00    +0.000 A 
ENDBRANCH  31  32
ENDBRANCH   3  31
TORSDOF 9
ENDMDL
MODEL 6
REMARK VINA RESULT:      -8.2      3.919      7.427
REMARK  Name = 
REMARK  10 active torsions:
REMARK  status: ('A' for Active; 'I' for Inactive)
REMARK    1  A    between atoms: C_1  and  C_2
REMARK    2  A    between atoms: C_5  and  C_6
REMARK    3  A    between atoms: N_8  and  C_9
REMARK    4  A    between atoms: C_9  and  C_10
REMARK    5  A    between atoms: C_17  and  C_18
REMARK    6  A    between atoms: N_20  and  C_21
REMARK    7  A    between atoms: C_21  and  C_22
REMARK    8  A    between atoms: C_22  and  C_23
REMARK    9  A    between atoms: C_26  and  S_27
REMARK   10  A    between atoms: S_27  and  N_28
REMARK                            x       y       z     vdW  Elec       q    Type
REMARK                         _______ _______ _______ _____ _____    ______ ____
ROOT
ATOM      1  C   UNL     1       1.146   8.861  20.638  0.00  0.00    +0.000 A 
ATOM      2  N   UNL     1       1.454   7.652  21.143  0.00  0.00    +0.000 NA
ATOM      3  N   UNL     1       1.955   6.960  20.100  0.00  0.00    +0.000 N 
ATOM      4  C   UNL     1       1.934   7.655  18.933  0.00  0.00    +0.000 A 
ATOM      5  C   UNL     1       1.516   8.941  19.252  0.00  0.00    +0.000 A 
ENDROOT
BRANCH   1  10
ATOM      6  C   UNL     1      -1.907  13.009  23.201  0.00  0.00    +0.000 C 
ATOM      7  C   UNL     1      -0.985  11.961  22.647  0.00  0.00    +0.000 A 
ATOM      8  C   UNL     1      -0.051  12.271  21.651  0.00  0.00    +0.000 A 
ATOM      9  C   UNL     1       0.758  11.269  21.098  0.00  0.00    +0.000 A 
ATOM     10  C   UNL     1       0.634   9.930  21.518  0.00  0.00    +0.000 A 
ATOM     11  C   UNL     1      -0.250   9.637  22.572  0.00  0.00    +0.000 A 
ATOM     12  C   UNL     1      -1.073  10.641  23.107  0.00  0.00    +0.000 A 
ENDBRANCH   1  10
BRANCH   5  13
ATOM     13  C   UNL     1       1.533  10.029  18.265  0.00  0.00    +0.000 C 
ATOM     14  O   UNL     1       2.585  10.559  17.932  0.00  0.00    +0.000 OA
ATOM     15  N   UNL     1       0.350  10.523  17.779  0.00  0.00    +0.000 N 
ATOM     16  H   UNL     1       0.492  11.317  17.173  0.00  0.00    +0.000 HD
BRANCH  15  17
ATOM     17  C   UNL     1      -1.022  10.170  18.096  0.00  0.00    +0.000 C 
BRANCH  17  18
ATOM     18  C   UNL     1      -2.098  10.824  17.258  0.00  0.00    +0.000 C 
BRANCH  18  19
ATOM     19  C   UNL     1      -3.204  11.218  18.176  0.00  0.00    +0.000 A 
ATOM     20  C   UNL     1      -4.531  10.893  17.849  0.00  0.00    +0.000 A 
ATOM     21  C   UNL     1      -5.558  11.302  18.682  0.00  0.00    +0.000 A 
ATOM     22  C   UNL     1      -5.241  12.027  19.832  0.00  0.00    +0.000 A 
ATOM     23  C   UNL     1      -3.930  12.418  20.121  0.00  0.00    +0.000 A 
ATOM     24  C   UNL     1      -2.906  12.005  19.290  0.00  0.00    +0.000 A 
BRANCH  22  25
ATOM     25  S   UNL     1      -6.491  12.337  21.031  0.00  0.00    +0.000 S 
ATOM     26  O   UNL     1      -7.144  13.589  20.733  0.00  0.00    +0.000 OA
ATOM     27  O   UNL     1      -7.216  11.118  21.300  0.00  0.00    +0.000 OA
BRANCH  25  28
ATOM     28  N   UNL     1      -5.516  12.612  22.368  0.00  0.00    +0.000 NA
ATOM     29  H   UNL     1      -5.120  13.549  22.346  0.00  0.00    +0.000 HD
ATOM     30  H   UNL     1      -5.989  12.346  23.228  0.00  0.00    +0.000 HD
ENDBRANCH  25  28
ENDBRANCH  22  25
ENDBRANCH  18  19
ENDBRANCH  17  18
ENDBRANCH  15  17
ENDBRANCH   5  13
BRANCH   3  31
ATOM     31  C   UNL     1       2.403   5.582  20.276  0.00  0.00    +0.000 C 
BRANCH  31  32
ATOM     32  C   UNL     1       3.372   5.130  19.204  0.00  0.00    +0.000 A 
ATOM     33  C   UNL     1       2.930   4.408  18.084  0.00  0.00    +0.000 A 
ATOM     34  C   UNL     1       3.822   4.048  17.069  0.00  0.00    +0.000 A 
ATOM     35  C   UNL     1       5.164   4.412  17.154  0.00  0.00    +0.000 A 
ATOM     36  C   UNL     1       5.617   5.134  18.256  0.00  0.00    +0.000 A 
ATOM     37  C   UNL     1       4.728   5.491  19.273  0.00  0.00    +0.000 A 
ENDBRANCH  31  32
ENDBRANCH   3  31
TORSDOF 9
ENDMDL
MODEL 7
REMARK VINA RESULT:      -8.2      0.831      1.317
REMARK  Name = 
REMARK  10 active torsions:
REMARK  status: ('A' for Active; 'I' for Inactive)
REMARK    1  A    between atoms: C_1  and  C_2
REMARK    2  A    between atoms: C_5  and  C_6
REMARK    3  A    between atoms: N_8  and  C_9
REMARK    4  A    between atoms: C_9  and  C_10
REMARK    5  A    between atoms: C_17  and  C_18
REMARK    6  A    between atoms: N_20  and  C_21
REMARK    7  A    between atoms: C_21  and  C_22
REMARK    8  A    between atoms: C_22  and  C_23
REMARK    9  A    between atoms: C_26  and  S_27
REMARK   10  A    between atoms: S_27  and  N_28
REMARK                            x       y       z     vdW  Elec       q    Type
REMARK                         _______ _______ _______ _____ _____    ______ ____
ROOT
ATOM      1  C   UNL     1       5.290   4.266  16.394  0.00  0.00    +0.000 A 
ATOM      2  N   UNL     1       5.626   3.647  15.247  0.00  0.00    +0.000 NA
ATOM      3  N   UNL     1       6.550   4.448  14.680  0.00  0.00    +0.000 N 
ATOM      4  C   UNL     1       6.785   5.583  15.389  0.00  0.00    +0.000 A 
ATOM      5  C   UNL     1       6.068   5.461  16.572  0.00  0.00    +0.000 A 
ENDROOT
BRANCH   1  10
ATOM      6  C   UNL     1       1.265   3.108  20.338  0.00  0.00    +0.000 C 
ATOM      7  C   UNL     1       2.347   3.240  19.304  0.00  0.00    +0.000 A 
ATOM      8  C   UNL     1       3.687   3.401  19.676  0.00  0.00    +0.000 A 
ATOM      9  C   UNL     1       4.677   3.587  18.702  0.00  0.00    +0.000 A 
ATOM     10  C   UNL     1       4.342   3.636  17.335  0.00  0.00    +0.000 A 
ATOM     11  C   UNL     1       3.007   3.397  16.962  0.00  0.00    +0.000 A 
ATOM     12  C   UNL     1       2.017   3.233  17.943  0.00  0.00    +0.000 A 
ENDBRANCH   1  10
BRANCH   5  13
ATOM     13  C   UNL     1       6.212   6.427  17.669  0.00  0.00    +0.000 C 
ATOM     14  O   UNL     1       7.241   6.479  18.331  0.00  0.00    +0.000 OA
ATOM     15  N   UNL     1       5.149   7.218  18.021  0.00  0.00    +0.000 N 
ATOM     16  H   UNL     1       5.347   7.779  18.837  0.00  0.00    +0.000 HD
BRANCH  15  17
ATOM     17  C   UNL     1       3.796   7.270  17.497  0.00  0.00    +0.000 C 
BRANCH  17  18
ATOM     18  C   UNL     1       2.693   6.816  18.428  0.00  0.00    +0.000 C 
BRANCH  18  19
ATOM     19  C   UNL     1       1.999   8.035  18.929  0.00  0.00    +0.000 A 
ATOM     20  C   UNL     1       1.612   8.113  20.277  0.00  0.00    +0.000 A 
ATOM     21  C   UNL     1       0.926   9.229  20.726  0.00  0.00    +0.000 A 
ATOM     22  C   UNL     1       0.641  10.251  19.819  0.00  0.00    +0.000 A 
ATOM     23  C   UNL     1       0.956  10.144  18.461  0.00  0.00    +0.000 A 
ATOM     24  C   UNL     1       1.645   9.031  18.017  0.00  0.00    +0.000 A 
BRANCH  22  25
ATOM     25  S   UNL     1       0.002  11.780  20.413  0.00  0.00    +0.000 S 
ATOM     26  O   UNL     1      -1.440  11.726  20.423  0.00  0.00    +0.000 OA
ATOM     27  O   UNL     1       0.779  12.222  21.546  0.00  0.00    +0.000 OA
BRANCH  25  28
ATOM     28  N   UNL     1       0.435  12.767  19.127  0.00  0.00    +0.000 NA
ATOM     29  H   UNL     1      -0.289  12.774  18.411  0.00  0.00    +0.000 HD
ATOM     30  H   UNL     1       0.751  13.676  19.454  0.00  0.00    +0.000 HD
ENDBRANCH  25  28
ENDBRANCH  22  25
ENDBRANCH  18  19
ENDBRANCH  17  18
ENDBRANCH  15  17
ENDBRANCH   5  13
BRANCH   3  31
ATOM     31  C   UNL     1       7.152   4.090  13.400  0.00  0.00    +0.000 C 
BRANCH  31  32
ATOM     32  C   UNL     1       6.182   3.416  12.453  0.00  0.00    +0.000 A 
ATOM     33  C   UNL     1       6.490   2.183  11.856  0.00  0.00    +0.000 A 
ATOM     34  C   UNL     1       5.563   1.538  11.031  0.00  0.00    +0.000 A 
ATOM     35  C   UNL     1       4.315   2.110  10.800  0.00  0.00    +0.000 A 
ATOM     36  C   UNL     1       3.991   3.329  11.390  0.00  0.00    +0.000 A 
ATOM     37  C   UNL     1       4.918   3.977  12.212  0.00  0.00    +0.000 A 
ENDBRANCH  31  32
ENDBRANCH   3  31
TORSDOF 9
ENDMDL
MODEL 8
REMARK VINA RESULT:      -8.1      4.139      7.351
REMARK  Name = 
REMARK  10 active torsions:
REMARK  status: ('A' for Active; 'I' for Inactive)
REMARK    1  A    between atoms: C_1  and  C_2
REMARK    2  A    between atoms: C_5  and  C_6
REMARK    3  A    between atoms: N_8  and  C_9
REMARK    4  A    between atoms: C_9  and  C_10
REMARK    5  A    between atoms: C_17  and  C_18
REMARK    6  A    between atoms: N_20  and  C_21
REMARK    7  A    between atoms: C_21  and  C_22
REMARK    8  A    between atoms: C_22  and  C_23
REMARK    9  A    between atoms: C_26  and  S_27
REMARK   10  A    between atoms: S_27  and  N_28
REMARK                            x       y       z     vdW  Elec       q    Type
REMARK                         _______ _______ _______ _____ _____    ______ ____
ROOT
ATOM      1  C   UNL     1       1.297   8.611  20.471  0.00  0.00    +0.000 A 
ATOM      2  N   UNL     1       1.701   7.418  20.946  0.00  0.00    +0.000 NA
ATOM      3  N   UNL     1       2.201   6.772  19.873  0.00  0.00    +0.000 N 
ATOM      4  C   UNL     1       2.089   7.479  18.719  0.00  0.00    +0.000 A 
ATOM      5  C   UNL     1       1.604   8.731  19.073  0.00  0.00    +0.000 A 
ENDROOT
BRANCH   1  10
ATOM      6  C   UNL     1      -1.882  12.564  23.184  0.00  0.00    +0.000 C 
ATOM      7  C   UNL     1      -0.927  11.569  22.591  0.00  0.00    +0.000 A 
ATOM      8  C   UNL     1      -0.020  11.942  21.592  0.00  0.00    +0.000 A 
ATOM      9  C   UNL     1       0.821  10.989  21.002  0.00  0.00    +0.000 A 
ATOM     10  C   UNL     1       0.756   9.635  21.387  0.00  0.00    +0.000 A 
ATOM     11  C   UNL     1      -0.102   9.279  22.443  0.00  0.00    +0.000 A 
ATOM     12  C   UNL     1      -0.957  10.234  23.015  0.00  0.00    +0.000 A 
ENDBRANCH   1  10
BRANCH   5  13
ATOM     13  C   UNL     1       1.512   9.830  18.102  0.00  0.00    +0.000 C 
ATOM     14  O   UNL     1       2.519  10.404  17.704  0.00  0.00    +0.000 OA
ATOM     15  N   UNL     1       0.281  10.284  17.706  0.00  0.00    +0.000 N 
ATOM     16  H   UNL     1       0.351  11.090  17.102  0.00  0.00    +0.000 HD
BRANCH  15  17
ATOM     17  C   UNL     1      -1.052   9.876  18.111  0.00  0.00    +0.000 C 
BRANCH  17  18
ATOM     18  C   UNL     1      -2.127   9.931  17.048  0.00  0.00    +0.000 C 
BRANCH  18  19
ATOM     19  C   UNL     1      -3.220  10.804  17.561  0.00  0.00    +0.000 A 
ATOM     20  C   UNL     1      -4.327  11.087  16.744  0.00  0.00    +0.000 A 
ATOM     21  C   UNL     1      -5.317  11.937  17.208  0.00  0.00    +0.000 A 
ATOM     22  C   UNL     1      -5.185  12.488  18.484  0.00  0.00    +0.000 A 
ATOM     23  C   UNL     1      -4.048  12.270  19.269  0.00  0.00    +0.000 A 
ATOM     24  C   UNL     1      -3.064  11.418  18.805  0.00  0.00    +0.000 A 
BRANCH  22  25
ATOM     25  S   UNL     1      -6.538  13.359  19.194  0.00  0.00    +0.000 S 
ATOM     26  O   UNL     1      -7.778  12.787  18.726  0.00  0.00    +0.000 OA
ATOM     27  O   UNL     1      -6.270  13.617  20.589  0.00  0.00    +0.000 OA
BRANCH  25  28
ATOM     28  N   UNL     1      -6.358  14.825  18.399  0.00  0.00    +0.000 NA
ATOM     29  H   UNL     1      -7.116  14.978  17.737  0.00  0.00    +0.000 HD
ATOM     30  H   UNL     1      -6.179  15.580  19.057  0.00  0.00    +0.000 HD
ENDBRANCH  25  28
ENDBRANCH  22  25
ENDBRANCH  18  19
ENDBRANCH  17  18
ENDBRANCH  15  17
ENDBRANCH   5  13
BRANCH   3  31
ATOM     31  C   UNL     1       2.742   5.423  20.010  0.00  0.00    +0.000 C 
BRANCH  31  32
ATOM     32  C   UNL     1       3.765   5.080  18.948  0.00  0.00    +0.000 A 
ATOM     33  C   UNL     1       5.130   5.341  19.144  0.00  0.00    +0.000 A 
ATOM     34  C   UNL     1       6.074   4.964  18.184  0.00  0.00    +0.000 A 
ATOM     35  C   UNL     1       5.669   4.314  17.021  0.00  0.00    +0.000 A 
ATOM     36  C   UNL     1       4.318   4.042  16.814  0.00  0.00    +0.000 A 
ATOM     37  C   UNL     1       3.373   4.421  17.771  0.00  0.00    +0.000 A 
ENDBRANCH  31  32
ENDBRANCH   3  31
TORSDOF 9
ENDMDL
MODEL 9
REMARK VINA RESULT:      -8.0      4.419     11.260
REMARK  Name = 
REMARK  10 active torsions:
REMARK  status: ('A' for Active; 'I' for Inactive)
REMARK    1  A    between atoms: C_1  and  C_2
REMARK    2  A    between atoms: C_5  and  C_6
REMARK    3  A    between atoms: N_8  and  C_9
REMARK    4  A    between atoms: C_9  and  C_10
REMARK    5  A    between atoms: C_17  and  C_18
REMARK    6  A    between atoms: N_20  and  C_21
REMARK    7  A    between atoms: C_21  and  C_22
REMARK    8  A    between atoms: C_22  and  C_23
REMARK    9  A    between atoms: C_26  and  S_27
REMARK   10  A    between atoms: S_27  and  N_28
REMARK                            x       y       z     vdW  Elec       q    Type
REMARK                         _______ _______ _______ _____ _____    ______ ____
ROOT
ATOM      1  C   UNL     1      -1.309  11.496  19.717  0.00  0.00    +0.000 A 
ATOM      2  N   UNL     1      -1.886  11.662  20.921  0.00  0.00    +0.000 NA
ATOM      3  N   UNL     1      -0.942  12.259  21.677  0.00  0.00    +0.000 N 
ATOM      4  C   UNL     1       0.236  12.438  21.024  0.00  0.00    +0.000 A 
ATOM      5  C   UNL     1       0.015  12.055  19.707  0.00  0.00    +0.000 A 
ENDROOT
BRANCH   1  10
ATOM      6  C   UNL     1      -3.671  10.280  14.614  0.00  0.00    +0.000 C 
ATOM      7  C   UNL     1      -3.159  10.476  16.012  0.00  0.00    +0.000 A 
ATOM      8  C   UNL     1      -3.774  11.377  16.889  0.00  0.00    +0.000 A 
ATOM      9  C   UNL     1      -3.247  11.597  18.168  0.00  0.00    +0.000 A 
ATOM     10  C   UNL     1      -2.078  10.933  18.590  0.00  0.00    +0.000 A 
ATOM     11  C   UNL     1      -1.508   9.972  17.735  0.00  0.00    +0.000 A 
ATOM     12  C   UNL     1      -2.028   9.772  16.447  0.00  0.00    +0.000 A 
ENDBRANCH   1  10
BRANCH   5  13
ATOM     13  C   UNL     1       1.021  12.270  18.658  0.00  0.00    +0.000 C 
ATOM     14  O   UNL     1       1.062  13.322  18.031  0.00  0.00    +0.000 OA
ATOM     15  N   UNL     1       1.866  11.249  18.309  0.00  0.00    +0.000 N 
ATOM     16  H   UNL     1       2.454  11.494  17.526  0.00  0.00    +0.000 HD
BRANCH  15  17
ATOM     17  C   UNL     1       1.948   9.883  18.794  0.00  0.00    +0.000 C 
BRANCH  17  18
ATOM     18  C   UNL     1       1.657   8.791  17.789  0.00  0.00    +0.000 C 
BRANCH  18  19
ATOM     19  C   UNL     1       2.601   7.671  18.058  0.00  0.00    +0.000 A 
ATOM     20  C   UNL     1       2.405   6.848  19.179  0.00  0.00    +0.000 A 
ATOM     21  C   UNL     1       3.312   5.837  19.450  0.00  0.00    +0.000 A 
ATOM     22  C   UNL     1       4.400   5.663  18.592  0.00  0.00    +0.000 A 
ATOM     23  C   UNL     1       4.640   6.527  17.519  0.00  0.00    +0.000 A 
ATOM     24  C   UNL     1       3.730   7.533  17.249  0.00  0.00    +0.000 A 
BRANCH  22  25
ATOM     25  S   UNL     1       5.418   4.239  18.765  0.00  0.00    +0.000 S 
ATOM     26  O   UNL     1       6.804   4.640  18.802  0.00  0.00    +0.000 OA
ATOM     27  O   UNL     1       4.834   3.341  19.732  0.00  0.00    +0.000 OA
BRANCH  25  28
ATOM     28  N   UNL     1       5.163   3.544  17.260  0.00  0.00    +0.000 NA
ATOM     29  H   UNL     1       4.168   3.452  17.063  0.00  0.00    +0.000 HD
ATOM     30  H   UNL     1       5.720   4.004  16.544  0.00  0.00    +0.000 HD
ENDBRANCH  25  28
ENDBRANCH  22  25
ENDBRANCH  18  19
ENDBRANCH  17  18
ENDBRANCH  15  17
ENDBRANCH   5  13
BRANCH   3  31
ATOM     31  C   UNL     1      -1.217  12.598  23.069  0.00  0.00    +0.000 C 
BRANCH  31  32
ATOM     32  C   UNL     1      -2.616  13.134  23.287  0.00  0.00    +0.000 A 
ATOM     33  C   UNL     1      -3.590  12.371  23.953  0.00  0.00    +0.000 A 
ATOM     34  C   UNL     1      -4.860  12.898  24.205  0.00  0.00    +0.000 A 
ATOM     35  C   UNL     1      -5.172  14.195  23.804  0.00  0.00    +0.000 A 
ATOM     36  C   UNL     1      -4.216  14.967  23.148  0.00  0.00    +0.000 A 
ATOM     37  C   UNL     1      -2.947  14.440  22.892  0.00  0.00    +0.000 A 
ENDBRANCH  31  32
ENDBRANCH   3  31
TORSDOF 9
ENDMDL
