MODEL 1
REMARK VINA RESULT:      -8.3      0.000      0.000
REMARK  Name = 
REMARK  4 active torsions:
REMARK  status: ('A' for Active; 'I' for Inactive)
REMARK    1  A    between atoms: C_1  and  C_2
REMARK    2  A    between atoms: C_3  and  C_4
REMARK    3  A    between atoms: C_4  and  C_5
REMARK    4  A    between atoms: C_14  and  C_16
REMARK                            x       y       z     vdW  Elec       q    Type
REMARK                         _______ _______ _______ _____ _____    ______ ____
ROOT
ATOM      1  C   UNL     1       0.531   8.728  21.940  0.00  0.00    +0.000 C 
ATOM      2  C   UNL     1       1.195   9.324  20.699  0.00  0.00    +0.000 C 
ATOM      3  C   UNL     1       0.339  10.482  20.133  0.00  0.00    +0.000 C 
ATOM      4  C   UNL     1       0.437  10.368  18.606  0.00  0.00    +0.000 C 
ATOM      5  C   UNL     1       1.383   9.226  18.339  0.00  0.00    +0.000 C 
ATOM      6  N   UNL     1       1.424   8.442  19.547  0.00  0.00    +0.000 N 
ATOM      7  C   UNL     1       1.930   7.155  19.682  0.00  0.00    +0.000 C 
ATOM      8  O   UNL     1       1.861   6.543  20.751  0.00  0.00    +0.000 OA
ENDROOT
BRANCH   7   9
ATOM      9  C   UNL     1       2.626   6.433  18.577  0.00  0.00    +0.000 A 
ATOM     10  C   UNL     1       2.135   5.144  18.278  0.00  0.00    +0.000 A 
ATOM     11  C   UNL     1       2.920   4.261  17.564  0.00  0.00    +0.000 A 
ATOM     12  F   UNL     1       2.476   3.007  17.370  0.00  0.00    +0.000 F 
ATOM     13  C   UNL     1       4.143   4.661  17.044  0.00  0.00    +0.000 A 
ATOM     14  N   UNL     1       5.009   3.713  16.436  0.00  0.00    +0.000 N 
ATOM     15  C   UNL     1       5.833   4.127  15.430  0.00  0.00    +0.000 A 
ATOM     16  O   UNL     1       6.288   3.372  14.583  0.00  0.00    +0.000 OA
ATOM     17  C   UNL     1       6.264   5.562  15.462  0.00  0.00    +0.000 A 
ATOM     18  C   UNL     1       5.696   6.413  16.335  0.00  0.00    +0.000 A 
ATOM     19  C   UNL     1       4.552   5.989  17.145  0.00  0.00    +0.000 A 
ATOM     20  C   UNL     1       3.832   6.855  17.976  0.00  0.00    +0.000 A 
ATOM     21  H   UNL     1       5.625   3.353  17.175  0.00  0.00    +0.000 HD
ENDBRANCH   7   9
BRANCH   3  22
ATOM     22  C   UNL     1       0.776  11.856  20.673  0.00  0.00    +0.000 C 
BRANCH  22  23
ATOM     23  C   UNL     1      -0.220  12.452  21.633  0.00  0.00    +0.000 A 
ATOM     24  C   UNL     1      -0.055  13.759  22.131  0.00  0.00    +0.000 A 
ATOM     25  C   UNL     1      -0.935  14.266  23.087  0.00  0.00    +0.000 A 
ATOM     26  C   UNL     1      -2.025  13.508  23.522  0.00  0.00    +0.000 A 
ATOM     27  C   UNL     1      -2.212  12.233  23.022  0.00  0.00    +0.000 A 
ATOM     28  C   UNL     1      -1.334  11.705  22.062  0.00  0.00    +0.000 A 
ENDBRANCH  22  23
ENDBRANCH   3  22
TORSDOF 3
ENDMDL
MODEL 2
REMARK VINA RESULT:      -8.3      2.322      3.541
REMARK  Name = 
REMARK  4 active torsions:
REMARK  status: ('A' for Active; 'I' for Inactive)
REMARK    1  A    between atoms: C_1  and  C_2
REMARK    2  A    between atoms: C_3  and  C_4
REMARK    3  A    between atoms: C_4  and  C_5
REMARK    4  A    between atoms: C_14  and  C_16
REMARK                            x       y       z     vdW  Elec       q    Type
REMARK                         _______ _______ _______ _____ _____    ______ ____
ROOT
ATOM      1  C   UNL     1       1.144   4.585  20.643  0.00  0.00    +0.000 C 
ATOM      2  C   UNL     1       2.128   5.708  20.316  0.00  0.00    +0.000 C 
ATOM      3  C   UNL     1       1.394   7.069  20.263  0.00  0.00    +0.000 C 
ATOM      4  C   UNL     1       2.042   7.850  19.113  0.00  0.00    +0.000 C 
ATOM      5  C   UNL     1       3.154   6.975  18.596  0.00  0.00    +0.000 C 
ATOM      6  N   UNL     1       2.858   5.637  19.043  0.00  0.00    +0.000 N 
ATOM      7  C   UNL     1       3.436   4.462  18.580  0.00  0.00    +0.000 C 
ATOM      8  O   UNL     1       3.067   3.357  18.985  0.00  0.00    +0.000 OA
ENDROOT
BRANCH   7   9
ATOM      9  C   UNL     1       4.563   4.439  17.601  0.00  0.00    +0.000 A 
ATOM     10  C   UNL     1       5.817   4.858  18.095  0.00  0.00    +0.000 A 
ATOM     11  C   UNL     1       6.810   5.234  17.213  0.00  0.00    +0.000 A 
ATOM     12  F   UNL     1       7.964   5.719  17.702  0.00  0.00    +0.000 F 
ATOM     13  C   UNL     1       6.627   5.105  15.844  0.00  0.00    +0.000 A 
ATOM     14  N   UNL     1       7.589   5.625  14.938  0.00  0.00    +0.000 N 
ATOM     15  C   UNL     1       7.762   5.004  13.734  0.00  0.00    +0.000 A 
ATOM     16  O   UNL     1       8.793   5.083  13.082  0.00  0.00    +0.000 OA
ATOM     17  C   UNL     1       6.571   4.291  13.170  0.00  0.00    +0.000 A 
ATOM     18  C   UNL     1       5.470   4.126  13.924  0.00  0.00    +0.000 A 
ATOM     19  C   UNL     1       5.479   4.497  15.340  0.00  0.00    +0.000 A 
ATOM     20  C   UNL     1       4.416   4.235  16.212  0.00  0.00    +0.000 A 
ATOM     21  H   UNL     1       7.307   6.588  14.720  0.00  0.00    +0.000 HD
ENDBRANCH   7   9
BRANCH   3  22
ATOM     22  C   UNL     1       1.438   7.815  21.610  0.00  0.00    +0.000 C 
BRANCH  22  23
ATOM     23  C   UNL     1       0.486   8.981  21.665  0.00  0.00    +0.000 A 
ATOM     24  C   UNL     1       0.098   9.656  20.492  0.00  0.00    +0.000 A 
ATOM     25  C   UNL     1      -0.713  10.788  20.565  0.00  0.00    +0.000 A 
ATOM     26  C   UNL     1      -1.201  11.234  21.796  0.00  0.00    +0.000 A 
ATOM     27  C   UNL     1      -0.847  10.565  22.952  0.00  0.00    +0.000 A 
ATOM     28  C   UNL     1      -0.029   9.426  22.897  0.00  0.00    +0.000 A 
ENDBRANCH  22  23
ENDBRANCH   3  22
TORSDOF 3
ENDMDL
MODEL 3
REMARK VINA RESULT:      -8.2      1.536      1.693
REMARK  Name = 
REMARK  4 active torsions:
REMARK  status: ('A' for Active; 'I' for Inactive)
REMARK    1  A    between atoms: C_1  and  C_2
REMARK    2  A    between atoms: C_3  and  C_4
REMARK    3  A    between atoms: C_4  and  C_5
REMARK    4  A    between atoms: C_14  and  C_16
REMARK                            x       y       z     vdW  Elec       q    Type
REMARK                         _______ _______ _______ _____ _____    ______ ____
ROOT
ATOM      1  C   UNL     1      -0.342   8.406  21.577  0.00  0.00    +0.000 C 
ATOM      2  C   UNL     1       0.717   9.036  20.672  0.00  0.00    +0.000 C 
ATOM      3  C   UNL     1       0.087  10.146  19.798  0.00  0.00    +0.000 C 
ATOM      4  C   UNL     1       0.766  10.037  18.427  0.00  0.00    +0.000 C 
ATOM      5  C   UNL     1       1.797   8.946  18.564  0.00  0.00    +0.000 C 
ATOM      6  N   UNL     1       1.411   8.166  19.713  0.00  0.00    +0.000 N 
ATOM      7  C   UNL     1       1.889   6.908  20.058  0.00  0.00    +0.000 C 
ATOM      8  O   UNL     1       1.446   6.294  21.032  0.00  0.00    +0.000 OA
ENDROOT
BRANCH   7   9
ATOM      9  C   UNL     1       2.989   6.223  19.318  0.00  0.00    +0.000 A 
ATOM     10  C   UNL     1       3.282   4.905  19.730  0.00  0.00    +0.000 A 
ATOM     11  C   UNL     1       4.492   4.335  19.391  0.00  0.00    +0.000 A 
ATOM     12  F   UNL     1       4.793   3.116  19.871  0.00  0.00    +0.000 F 
ATOM     13  C   UNL     1       5.381   5.001  18.561  0.00  0.00    +0.000 A 
ATOM     14  N   UNL     1       6.681   4.476  18.331  0.00  0.00    +0.000 N 
ATOM     15  C   UNL     1       7.286   4.719  17.131  0.00  0.00    +0.000 A 
ATOM     16  O   UNL     1       8.167   4.009  16.670  0.00  0.00    +0.000 OA
ATOM     17  C   UNL     1       6.899   5.985  16.429  0.00  0.00    +0.000 A 
ATOM     18  C   UNL     1       5.869   6.718  16.887  0.00  0.00    +0.000 A 
ATOM     19  C   UNL     1       5.023   6.211  17.970  0.00  0.00    +0.000 A 
ATOM     20  C   UNL     1       3.862   6.859  18.408  0.00  0.00    +0.000 A 
ATOM     21  H   UNL     1       7.298   4.881  19.045  0.00  0.00    +0.000 HD
ENDBRANCH   7   9
BRANCH   3  22
ATOM     22  C   UNL     1       0.217  11.542  20.434  0.00  0.00    +0.000 C 
BRANCH  22  23
ATOM     23  C   UNL     1      -1.025  11.967  21.173  0.00  0.00    +0.000 A 
ATOM     24  C   UNL     1      -2.176  12.385  20.477  0.00  0.00    +0.000 A 
ATOM     25  C   UNL     1      -3.288  12.859  21.172  0.00  0.00    +0.000 A 
ATOM     26  C   UNL     1      -3.300  12.872  22.569  0.00  0.00    +0.000 A 
ATOM     27  C   UNL     1      -2.186  12.441  23.264  0.00  0.00    +0.000 A 
ATOM     28  C   UNL     1      -1.057  11.963  22.580  0.00  0.00    +0.000 A 
ENDBRANCH  22  23
ENDBRANCH   3  22
TORSDOF 3
ENDMDL
MODEL 4
REMARK VINA RESULT:      -8.1      1.869      2.975
REMARK  Name = 
REMARK  4 active torsions:
REMARK  status: ('A' for Active; 'I' for Inactive)
REMARK    1  A    between atoms: C_1  and  C_2
REMARK    2  A    between atoms: C_3  and  C_4
REMARK    3  A    between atoms: C_4  and  C_5
REMARK    4  A    between atoms: C_14  and  C_16
REMARK                            x       y       z     vdW  Elec       q    Type
REMARK                         _______ _______ _______ _____ _____    ______ ____
ROOT
ATOM      1  C   UNL     1       0.958  11.318  18.568  0.00  0.00    +0.000 C 
ATOM      2  C   UNL     1       0.572  10.195  19.531  0.00  0.00    +0.000 C 
ATOM      3  C   UNL     1       0.446  10.741  20.973  0.00  0.00    +0.000 C 
ATOM      4  C   UNL     1       1.010   9.645  21.887  0.00  0.00    +0.000 C 
ATOM      5  C   UNL     1       1.366   8.496  20.979  0.00  0.00    +0.000 C 
ATOM      6  N   UNL     1       1.480   9.047  19.653  0.00  0.00    +0.000 N 
ATOM      7  C   UNL     1       2.058   8.434  18.549  0.00  0.00    +0.000 C 
ATOM      8  O   UNL     1       2.163   9.018  17.467  0.00  0.00    +0.000 OA
ENDROOT
BRANCH   7   9
ATOM      9  C   UNL     1       2.557   7.027  18.565  0.00  0.00    +0.000 A 
ATOM     10  C   UNL     1       3.674   6.759  17.746  0.00  0.00    +0.000 A 
ATOM     11  C   UNL     1       3.969   5.457  17.396  0.00  0.00    +0.000 A 
ATOM     12  F   UNL     1       4.979   5.228  16.539  0.00  0.00    +0.000 F 
ATOM     13  C   UNL     1       3.245   4.399  17.925  0.00  0.00    +0.000 A 
ATOM     14  N   UNL     1       3.457   3.076  17.454  0.00  0.00    +0.000 N 
ATOM     15  C   UNL     1       3.267   2.033  18.315  0.00  0.00    +0.000 A 
ATOM     16  O   UNL     1       3.799   0.942  18.172  0.00  0.00    +0.000 OA
ATOM     17  C   UNL     1       2.270   2.242  19.414  0.00  0.00    +0.000 A 
ATOM     18  C   UNL     1       1.755   3.467  19.627  0.00  0.00    +0.000 A 
ATOM     19  C   UNL     1       2.275   4.626  18.900  0.00  0.00    +0.000 A 
ATOM     20  C   UNL     1       1.878   5.943  19.163  0.00  0.00    +0.000 A 
ATOM     21  H   UNL     1       2.800   2.924  16.680  0.00  0.00    +0.000 HD
ENDBRANCH   7   9
BRANCH   3  22
ATOM     22  C   UNL     1      -0.996  11.148  21.326  0.00  0.00    +0.000 C 
BRANCH  22  23
ATOM     23  C   UNL     1      -1.070  12.454  22.074  0.00  0.00    +0.000 A 
ATOM     24  C   UNL     1      -0.165  13.498  21.801  0.00  0.00    +0.000 A 
ATOM     25  C   UNL     1      -0.188  14.667  22.561  0.00  0.00    +0.000 A 
ATOM     26  C   UNL     1      -1.145  14.845  23.563  0.00  0.00    +0.000 A 
ATOM     27  C   UNL     1      -2.054  13.838  23.823  0.00  0.00    +0.000 A 
ATOM     28  C   UNL     1      -2.045  12.653  23.071  0.00  0.00    +0.000 A 
ENDBRANCH  22  23
ENDBRANCH   3  22
TORSDOF 3
ENDMDL
MODEL 5
REMARK VINA RESULT:      -8.0      1.448      1.584
REMARK  Name = 
REMARK  4 active torsions:
REMARK  status: ('A' for Active; 'I' for Inactive)
REMARK    1  A    between atoms: C_1  and  C_2
REMARK    2  A    between atoms: C_3  and  C_4
REMARK    3  A    between atoms: C_4  and  C_5
REMARK    4  A    between atoms: C_14  and  C_16
REMARK                            x       y       z     vdW  Elec       q    Type
REMARK                         _______ _______ _______ _____ _____    ______ ____
ROOT
ATOM      1  C   UNL     1      -0.247   8.581  21.656  0.00  0.00    +0.000 C 
ATOM      2  C   UNL     1       0.716   9.208  20.648  0.00  0.00    +0.000 C 
ATOM      3  C   UNL     1      -0.007  10.296  19.818  0.00  0.00    +0.000 C 
ATOM      4  C   UNL     1       0.547  10.171  18.392  0.00  0.00    +0.000 C 
ATOM      5  C   UNL     1       1.600   9.096  18.452  0.00  0.00    +0.000 C 
ATOM      6  N   UNL     1       1.332   8.330  19.643  0.00  0.00    +0.000 N 
ATOM      7  C   UNL     1       1.856   7.085  19.963  0.00  0.00    +0.000 C 
ATOM      8  O   UNL     1       1.512   6.481  20.983  0.00  0.00    +0.000 OA
ENDROOT
BRANCH   7   9
ATOM      9  C   UNL     1       2.893   6.400  19.136  0.00  0.00    +0.000 A 
ATOM     10  C   UNL     1       3.532   5.296  19.738  0.00  0.00    +0.000 A 
ATOM     11  C   UNL     1       4.735   4.843  19.236  0.00  0.00    +0.000 A 
ATOM     12  F   UNL     1       5.376   3.851  19.879  0.00  0.00    +0.000 F 
ATOM     13  C   UNL     1       5.272   5.392  18.081  0.00  0.00    +0.000 A 
ATOM     14  N   UNL     1       6.575   5.025  17.649  0.00  0.00    +0.000 N 
ATOM     15  C   UNL     1       6.850   5.032  16.312  0.00  0.00    +0.000 A 
ATOM     16  O   UNL     1       7.742   4.364  15.808  0.00  0.00    +0.000 OA
ATOM     17  C   UNL     1       6.071   5.997  15.471  0.00  0.00    +0.000 A 
ATOM     18  C   UNL     1       5.031   6.663  16.004  0.00  0.00    +0.000 A 
ATOM     19  C   UNL     1       4.556   6.338  17.351  0.00  0.00    +0.000 A 
ATOM     20  C   UNL     1       3.404   6.898  17.917  0.00  0.00    +0.000 A 
ATOM     21  H   UNL     1       7.231   5.690  18.075  0.00  0.00    +0.000 HD
ENDBRANCH   7   9
BRANCH   3  22
ATOM     22  C   UNL     1       0.162  11.704  20.418  0.00  0.00    +0.000 C 
BRANCH  22  23
ATOM     23  C   UNL     1      -1.038  12.149  21.212  0.00  0.00    +0.000 A 
ATOM     24  C   UNL     1      -1.076  12.005  22.612  0.00  0.00    +0.000 A 
ATOM     25  C   UNL     1      -2.227  12.339  23.325  0.00  0.00    +0.000 A 
ATOM     26  C   UNL     1      -3.337  12.877  22.670  0.00  0.00    +0.000 A 
ATOM     27  C   UNL     1      -3.303  13.048  21.299  0.00  0.00    +0.000 A 
ATOM     28  C   UNL     1      -2.155  12.713  20.565  0.00  0.00    +0.000 A 
ENDBRANCH  22  23
ENDBRANCH   3  22
TORSDOF 3
ENDMDL
MODEL 6
REMARK VINA RESULT:      -7.8      2.673      4.032
REMARK  Name = 
REMARK  4 active torsions:
REMARK  status: ('A' for Active; 'I' for Inactive)
REMARK    1  A    between atoms: C_1  and  C_2
REMARK    2  A    between atoms: C_3  and  C_4
REMARK    3  A    between atoms: C_4  and  C_5
REMARK    4  A    between atoms: C_14  and  C_16
REMARK                            x       y       z     vdW  Elec       q    Type
REMARK                         _______ _______ _______ _____ _____    ______ ____
ROOT
ATOM      1  C   UNL     1       1.721  11.224  17.945  0.00  0.00    +0.000 C 
ATOM      2  C   UNL     1       0.940  10.232  18.807  0.00  0.00    +0.000 C 
ATOM      3  C   UNL     1       0.477  10.908  20.119  0.00  0.00    +0.000 C 
ATOM      4  C   UNL     1       0.617   9.842  21.213  0.00  0.00    +0.000 C 
ATOM      5  C   UNL     1       1.073   8.589  20.510  0.00  0.00    +0.000 C 
ATOM      6  N   UNL     1       1.628   9.011  19.249  0.00  0.00    +0.000 N 
ATOM      7  C   UNL     1       2.418   8.251  18.396  0.00  0.00    +0.000 C 
ATOM      8  O   UNL     1       2.898   8.728  17.364  0.00  0.00    +0.000 OA
ENDROOT
BRANCH   7   9
ATOM      9  C   UNL     1       2.713   6.807  18.630  0.00  0.00    +0.000 A 
ATOM     10  C   UNL     1       3.986   6.517  19.166  0.00  0.00    +0.000 A 
ATOM     11  C   UNL     1       4.498   5.239  19.064  0.00  0.00    +0.000 A 
ATOM     12  F   UNL     1       5.749   5.004  19.496  0.00  0.00    +0.000 F 
ATOM     13  C   UNL     1       3.732   4.210  18.536  0.00  0.00    +0.000 A 
ATOM     14  N   UNL     1       4.309   2.934  18.300  0.00  0.00    +0.000 N 
ATOM     15  C   UNL     1       3.516   1.826  18.396  0.00  0.00    +0.000 A 
ATOM     16  O   UNL     1       3.952   0.708  18.628  0.00  0.00    +0.000 OA
ATOM     17  C   UNL     1       2.062   2.014  18.088  0.00  0.00    +0.000 A 
ATOM     18  C   UNL     1       1.566   3.253  17.923  0.00  0.00    +0.000 A 
ATOM     19  C   UNL     1       2.398   4.426  18.195  0.00  0.00    +0.000 A 
ATOM     20  C   UNL     1       1.913   5.739  18.169  0.00  0.00    +0.000 A 
ATOM     21  H   UNL     1       4.669   2.940  17.339  0.00  0.00    +0.000 HD
ENDBRANCH   7   9
BRANCH   3  22
ATOM     22  C   UNL     1      -0.945  11.490  20.012  0.00  0.00    +0.000 C 
BRANCH  22  23
ATOM     23  C   UNL     1      -1.658  11.067  18.754  0.00  0.00    +0.000 A 
ATOM     24  C   UNL     1      -1.688  11.904  17.622  0.00  0.00    +0.000 A 
ATOM     25  C   UNL     1      -2.425  11.540  16.495  0.00  0.00    +0.000 A 
ATOM     26  C   UNL     1      -3.095  10.315  16.450  0.00  0.00    +0.000 A 
ATOM     27  C   UNL     1      -3.051   9.473  17.545  0.00  0.00    +0.000 A 
ATOM     28  C   UNL     1      -2.317   9.825  18.689  0.00  0.00    +0.000 A 
ENDBRANCH  22  23
ENDBRANCH   3  22
TORSDOF 3
ENDMDL
MODEL 7
REMARK VINA RESULT:      -7.8      2.037      3.267
REMARK  Name = 
REMARK  4 active torsions:
REMARK  status: ('A' for Active; 'I' for Inactive)
REMARK    1  A    between atoms: C_1  and  C_2
REMARK    2  A    between atoms: C_3  and  C_4
REMARK    3  A    between atoms: C_4  and  C_5
REMARK    4  A    between atoms: C_14  and  C_16
REMARK                            x       y       z     vdW  Elec       q    Type
REMARK                         _______ _______ _______ _____ _____    ______ ____
ROOT
ATOM      1  C   UNL     1       0.473  11.469  19.499  0.00  0.00    +0.000 C 
ATOM      2  C   UNL     1       0.165  10.269  20.393  0.00  0.00    +0.000 C 
ATOM      3  C   UNL     1       0.044  10.713  21.870  0.00  0.00    +0.000 C 
ATOM      4  C   UNL     1       0.682   9.592  22.699  0.00  0.00    +0.000 C 
ATOM      5  C   UNL     1       1.075   8.523  21.712  0.00  0.00    +0.000 C 
ATOM      6  N   UNL     1       1.132   9.163  20.422  0.00  0.00    +0.000 N 
ATOM      7  C   UNL     1       1.716   8.654  19.270  0.00  0.00    +0.000 C 
ATOM      8  O   UNL     1       1.768   9.311  18.227  0.00  0.00    +0.000 OA
ENDROOT
BRANCH   7   9
ATOM      9  C   UNL     1       2.284   7.276  19.185  0.00  0.00    +0.000 A 
ATOM     10  C   UNL     1       3.173   7.040  18.114  0.00  0.00    +0.000 A 
ATOM     11  C   UNL     1       3.447   5.745  17.724  0.00  0.00    +0.000 A 
ATOM     12  F   UNL     1       4.220   5.542  16.643  0.00  0.00    +0.000 F 
ATOM     13  C   UNL     1       2.943   4.668  18.439  0.00  0.00    +0.000 A 
ATOM     14  N   UNL     1       3.107   3.344  17.953  0.00  0.00    +0.000 N 
ATOM     15  C   UNL     1       3.203   2.321  18.853  0.00  0.00    +0.000 A 
ATOM     16  O   UNL     1       3.745   1.255  18.599  0.00  0.00    +0.000 OA
ATOM     17  C   UNL     1       2.504   2.513  20.164  0.00  0.00    +0.000 A 
ATOM     18  C   UNL     1       1.988   3.715  20.479  0.00  0.00    +0.000 A 
ATOM     19  C   UNL     1       2.239   4.875  19.623  0.00  0.00    +0.000 A 
ATOM     20  C   UNL     1       1.844   6.177  19.954  0.00  0.00    +0.000 A 
ATOM     21  H   UNL     1       2.286   3.133  17.373  0.00  0.00    +0.000 HD
ENDBRANCH   7   9
BRANCH   3  22
ATOM     22  C   UNL     1      -1.409  11.022  22.275  0.00  0.00    +0.000 C 
BRANCH  22  23
ATOM     23  C   UNL     1      -1.579  12.411  22.833  0.00  0.00    +0.000 A 
ATOM     24  C   UNL     1      -2.738  12.768  23.549  0.00  0.00    +0.000 A 
ATOM     25  C   UNL     1      -2.922  14.080  23.984  0.00  0.00    +0.000 A 
ATOM     26  C   UNL     1      -1.936  15.046  23.767  0.00  0.00    +0.000 A 
ATOM     27  C   UNL     1      -0.783  14.701  23.088  0.00  0.00    +0.000 A 
ATOM     28  C   UNL     1      -0.582  13.386  22.640  0.00  0.00    +0.000 A 
ENDBRANCH  22  23
ENDBRANCH   3  22
TORSDOF 3
ENDMDL
MODEL 8
REMARK VINA RESULT:      -7.7      2.328      3.544
REMARK  Name = 
REMARK  4 active torsions:
REMARK  status: ('A' for Active; 'I' for Inactive)
REMARK    1  A    between atoms: C_1  and  C_2
REMARK    2  A    between atoms: C_3  and  C_4
REMARK    3  A    between atoms: C_4  and  C_5
REMARK    4  A    between atoms: C_14  and  C_16
REMARK                            x       y       z     vdW  Elec       q    Type
REMARK                         _______ _______ _______ _____ _____    ______ ____
ROOT
ATOM      1  C   UNL     1      -0.068  11.641  20.262  0.00  0.00    +0.000 C 
ATOM      2  C   UNL     1      -0.333  10.395  21.106  0.00  0.00    +0.000 C 
ATOM      3  C   UNL     1      -0.442  10.771  22.603  0.00  0.00    +0.000 C 
ATOM      4  C   UNL     1       0.236   9.631  23.373  0.00  0.00    +0.000 C 
ATOM      5  C   UNL     1       0.641   8.617  22.334  0.00  0.00    +0.000 C 
ATOM      6  N   UNL     1       0.662   9.314  21.073  0.00  0.00    +0.000 N 
ATOM      7  C   UNL     1       1.241   8.871  19.891  0.00  0.00    +0.000 C 
ATOM      8  O   UNL     1       1.260   9.574  18.878  0.00  0.00    +0.000 OA
ENDROOT
BRANCH   7   9
ATOM      9  C   UNL     1       1.842   7.513  19.737  0.00  0.00    +0.000 A 
ATOM     10  C   UNL     1       2.699   7.340  18.629  0.00  0.00    +0.000 A 
ATOM     11  C   UNL     1       2.993   6.068  18.184  0.00  0.00    +0.000 A 
ATOM     12  F   UNL     1       3.734   5.924  17.071  0.00  0.00    +0.000 F 
ATOM     13  C   UNL     1       2.543   4.953  18.875  0.00  0.00    +0.000 A 
ATOM     14  N   UNL     1       2.725   3.651  18.337  0.00  0.00    +0.000 N 
ATOM     15  C   UNL     1       2.878   2.600  19.195  0.00  0.00    +0.000 A 
ATOM     16  O   UNL     1       3.439   1.559  18.885  0.00  0.00    +0.000 OA
ATOM     17  C   UNL     1       2.220   2.726  20.535  0.00  0.00    +0.000 A 
ATOM     18  C   UNL     1       1.684   3.902  20.911  0.00  0.00    +0.000 A 
ATOM     19  C   UNL     1       1.874   5.099  20.089  0.00  0.00    +0.000 A 
ATOM     20  C   UNL     1       1.457   6.377  20.481  0.00  0.00    +0.000 A 
ATOM     21  H   UNL     1       1.890   3.439  17.777  0.00  0.00    +0.000 HD
ENDBRANCH   7   9
BRANCH   3  22
ATOM     22  C   UNL     1      -1.896  11.025  23.043  0.00  0.00    +0.000 C 
BRANCH  22  23
ATOM     23  C   UNL     1      -2.200  12.486  23.245  0.00  0.00    +0.000 A 
ATOM     24  C   UNL     1      -1.166  13.440  23.313  0.00  0.00    +0.000 A 
ATOM     25  C   UNL     1      -1.456  14.776  23.588  0.00  0.00    +0.000 A 
ATOM     26  C   UNL     1      -2.778  15.199  23.742  0.00  0.00    +0.000 A 
ATOM     27  C   UNL     1      -3.804  14.277  23.652  0.00  0.00    +0.000 A 
ATOM     28  C   UNL     1      -3.531  12.928  23.379  0.00  0.00    +0.000 A 
ENDBRANCH  22  23
ENDBRANCH   3  22
TORSDOF 3
ENDMDL
MODEL 9
REMARK VINA RESULT:      -7.7      2.603      9.567
REMARK  Name = 
REMARK  4 active torsions:
REMARK  status: ('A' for Active; 'I' for Inactive)
REMARK    1  A    between atoms: C_1  and  C_2
REMARK    2  A    between atoms: C_3  and  C_4
REMARK    3  A    between atoms: C_4  and  C_5
REMARK    4  A    between atoms: C_14  and  C_16
REMARK                            x       y       z     vdW  Elec       q    Type
REMARK                         _______ _______ _______ _____ _____    ______ ____
ROOT
ATOM      1  C   UNL     1       4.880   3.515  19.094  0.00  0.00    +0.000 C 
ATOM      2  C   UNL     1       4.273   4.389  17.997  0.00  0.00    +0.000 C 
ATOM      3  C   UNL     1       5.314   4.655  16.883  0.00  0.00    +0.000 C 
ATOM      4  C   UNL     1       5.090   6.106  16.439  0.00  0.00    +0.000 C 
ATOM      5  C   UNL     1       3.909   6.602  17.232  0.00  0.00    +0.000 C 
ATOM      6  N   UNL     1       3.786   5.724  18.368  0.00  0.00    +0.000 N 
ATOM      7  C   UNL     1       3.030   5.949  19.511  0.00  0.00    +0.000 C 
ATOM      8  O   UNL     1       3.042   5.160  20.460  0.00  0.00    +0.000 OA
ENDROOT
BRANCH   7   9
ATOM      9  C   UNL     1       2.124   7.125  19.670  0.00  0.00    +0.000 A 
ATOM     10  C   UNL     1       2.019   7.978  18.551  0.00  0.00    +0.000 A 
ATOM     11  C   UNL     1       1.531   9.259  18.710  0.00  0.00    +0.000 A 
ATOM     12  F   UNL     1       1.526  10.088  17.652  0.00  0.00    +0.000 F 
ATOM     13  C   UNL     1       1.044   9.684  19.937  0.00  0.00    +0.000 A 
ATOM     14  N   UNL     1       0.678  11.043  20.133  0.00  0.00    +0.000 N 
ATOM     15  C   UNL     1      -0.320  11.334  21.018  0.00  0.00    +0.000 A 
ATOM     16  O   UNL     1      -0.985  12.358  20.964  0.00  0.00    +0.000 OA
ATOM     17  C   UNL     1      -0.506  10.379  22.157  0.00  0.00    +0.000 A 
ATOM     18  C   UNL     1       0.159   9.210  22.168  0.00  0.00    +0.000 A 
ATOM     19  C   UNL     1       0.942   8.793  21.003  0.00  0.00    +0.000 A 
ATOM     20  C   UNL     1       1.552   7.537  20.893  0.00  0.00    +0.000 A 
ATOM     21  H   UNL     1       1.512  11.531  20.479  0.00  0.00    +0.000 HD
ENDBRANCH   7   9
BRANCH   3  22
ATOM     22  C   UNL     1       5.215   3.641  15.728  0.00  0.00    +0.000 C 
BRANCH  22  23
ATOM     23  C   UNL     1       5.998   4.059  14.512  0.00  0.00    +0.000 A 
ATOM     24  C   UNL     1       5.672   3.566  13.234  0.00  0.00    +0.000 A 
ATOM     25  C   UNL     1       6.459   3.892  12.130  0.00  0.00    +0.000 A 
ATOM     26  C   UNL     1       7.547   4.758  12.264  0.00  0.00    +0.000 A 
ATOM     27  C   UNL     1       7.862   5.269  13.508  0.00  0.00    +0.000 A 
ATOM     28  C   UNL     1       7.083   4.949  14.632  0.00  0.00    +0.000 A 
ENDBRANCH  22  23
ENDBRANCH   3  22
TORSDOF 3
ENDMDL
