MODEL 1
REMARK VINA RESULT:      -8.7      0.000      0.000
REMARK  Name = 
REMARK  3 active torsions:
REMARK  status: ('A' for Active; 'I' for Inactive)
REMARK    1  A    between atoms: C_2  and  C_20
REMARK    2  A    between atoms: N_3  and  C_4
REMARK    3  A    between atoms: C_7  and  C_8
REMARK                            x       y       z     vdW  Elec       q    Type
REMARK                         _______ _______ _______ _____ _____    ______ ____
ROOT
ATOM      1  C   UNL     1       0.574   9.640  19.947  0.00  0.00    +0.000 A 
ATOM      2  C   UNL     1       0.962   9.821  18.620  0.00  0.00    +0.000 A 
ATOM      3  C   UNL     1       1.843   8.920  18.015  0.00  0.00    +0.000 A 
ATOM      4  C   UNL     1       2.348   7.829  18.731  0.00  0.00    +0.000 A 
ATOM      5  C   UNL     1       2.023   7.714  20.088  0.00  0.00    +0.000 A 
ATOM      6  C   UNL     1       1.130   8.600  20.687  0.00  0.00    +0.000 A 
ENDROOT
BRANCH   4   7
ATOM      7  C   UNL     1       3.184   6.843  18.047  0.00  0.00    +0.000 A 
ATOM      8  N   UNL     1       4.205   7.122  17.258  0.00  0.00    +0.000 NA
ATOM      9  N   UNL     1       4.744   5.948  16.805  0.00  0.00    +0.000 NA
ATOM     10  C   UNL     1       4.037   4.953  17.292  0.00  0.00    +0.000 A 
ATOM     11  N   UNL     1       3.014   5.472  18.053  0.00  0.00    +0.000 N 
ATOM     12  C   UNL     1       1.942   4.735  18.692  0.00  0.00    +0.000 C 
ATOM     13  C   UNL     1       1.410   3.562  17.887  0.00  0.00    +0.000 C 
ATOM     14  C   UNL     1       2.270   2.307  17.999  0.00  0.00    +0.000 C 
ATOM     15  C   UNL     1       3.778   2.550  18.077  0.00  0.00    +0.000 C 
ATOM     16  C   UNL     1       4.292   3.511  17.011  0.00  0.00    +0.000 C 
ENDBRANCH   4   7
BRANCH   1  19
ATOM     17  O   UNL     1       0.989  12.122  21.496  0.00  0.00    +0.000 OA
ATOM     18  C   UNL     1      -0.102  11.590  21.336  0.00  0.00    +0.000 C 
ATOM     19  N   UNL     1      -0.366  10.454  20.603  0.00  0.00    +0.000 N 
ATOM     20  H   UNL     1      -1.336  10.196  20.473  0.00  0.00    +0.000 HD
BRANCH  18  21
ATOM     21  C   UNL     1      -1.301  12.284  21.879  0.00  0.00    +0.000 A 
ATOM     22  C   UNL     1      -1.938  11.657  22.963  0.00  0.00    +0.000 A 
ATOM     23  C   UNL     1      -3.046  12.252  23.572  0.00  0.00    +0.000 A 
ATOM     24  C   UNL     1      -3.521  13.468  23.087  0.00  0.00    +0.000 A 
ATOM     25 CL   UNL     1      -4.874  14.213  23.843  0.00  0.00    +0.000 Cl
ATOM     26  C   UNL     1      -2.911  14.090  22.001  0.00  0.00    +0.000 A 
ATOM     27  C   UNL     1      -1.806  13.494  21.385  0.00  0.00    +0.000 A 
ATOM     28 CL   UNL     1      -1.146  14.319  20.015  0.00  0.00    +0.000 Cl
ENDBRANCH  18  21
ENDBRANCH   1  19
TORSDOF 3
ENDMDL
MODEL 2
REMARK VINA RESULT:      -8.5      0.969      1.343
REMARK  Name = 
REMARK  3 active torsions:
REMARK  status: ('A' for Active; 'I' for Inactive)
REMARK    1  A    between atoms: C_2  and  C_20
REMARK    2  A    between atoms: N_3  and  C_4
REMARK    3  A    between atoms: C_7  and  C_8
REMARK                            x       y       z     vdW  Elec       q    Type
REMARK                         _______ _______ _______ _____ _____    ______ ____
ROOT
ATOM      1  C   UNL     1       0.560   9.671  20.207  0.00  0.00    +0.000 A 
ATOM      2  C   UNL     1       1.070   8.535  20.835  0.00  0.00    +0.000 A 
ATOM      3  C   UNL     1       1.878   7.642  20.125  0.00  0.00    +0.000 A 
ATOM      4  C   UNL     1       2.182   7.872  18.779  0.00  0.00    +0.000 A 
ATOM      5  C   UNL     1       1.586   8.964  18.138  0.00  0.00    +0.000 A 
ATOM      6  C   UNL     1       0.797   9.867  18.849  0.00  0.00    +0.000 A 
ENDROOT
BRANCH   4   7
ATOM      7  C   UNL     1       3.111   6.979  18.087  0.00  0.00    +0.000 A 
ATOM      8  N   UNL     1       4.150   7.364  17.370  0.00  0.00    +0.000 NA
ATOM      9  N   UNL     1       4.784   6.253  16.883  0.00  0.00    +0.000 NA
ATOM     10  C   UNL     1       4.116   5.190  17.275  0.00  0.00    +0.000 A 
ATOM     11  N   UNL     1       3.027   5.602  18.008  0.00  0.00    +0.000 N 
ATOM     12  C   UNL     1       1.973   4.766  18.547  0.00  0.00    +0.000 C 
ATOM     13  C   UNL     1       1.555   3.613  17.651  0.00  0.00    +0.000 C 
ATOM     14  C   UNL     1       2.486   2.407  17.740  0.00  0.00    +0.000 C 
ATOM     15  C   UNL     1       3.970   2.735  17.910  0.00  0.00    +0.000 C 
ATOM     16  C   UNL     1       4.476   3.785  16.928  0.00  0.00    +0.000 C 
ENDBRANCH   4   7
BRANCH   1  19
ATOM     17  O   UNL     1       0.324  10.232  23.098  0.00  0.00    +0.000 OA
ATOM     18  C   UNL     1      -0.282  10.848  22.230  0.00  0.00    +0.000 C 
ATOM     19  N   UNL     1      -0.192  10.657  20.869  0.00  0.00    +0.000 N 
ATOM     20  H   UNL     1      -0.672  11.317  20.271  0.00  0.00    +0.000 HD
BRANCH  18  21
ATOM     21  C   UNL     1      -1.115  12.006  22.651  0.00  0.00    +0.000 A 
ATOM     22  C   UNL     1      -2.348  11.693  23.247  0.00  0.00    +0.000 A 
ATOM     23  C   UNL     1      -3.184  12.709  23.718  0.00  0.00    +0.000 A 
ATOM     24  C   UNL     1      -2.789  14.037  23.580  0.00  0.00    +0.000 A 
ATOM     25 CL   UNL     1      -3.806  15.291  24.172  0.00  0.00    +0.000 Cl
ATOM     26  C   UNL     1      -1.579  14.362  22.974  0.00  0.00    +0.000 A 
ATOM     27  C   UNL     1      -0.743  13.348  22.496  0.00  0.00    +0.000 A 
ATOM     28 CL   UNL     1       0.718  13.852  21.717  0.00  0.00    +0.000 Cl
ENDBRANCH  18  21
ENDBRANCH   1  19
TORSDOF 3
ENDMDL
MODEL 3
REMARK VINA RESULT:      -8.5      1.997      2.919
REMARK  Name = 
REMARK  3 active torsions:
REMARK  status: ('A' for Active; 'I' for Inactive)
REMARK    1  A    between atoms: C_2  and  C_20
REMARK    2  A    between atoms: N_3  and  C_4
REMARK    3  A    between atoms: C_7  and  C_8
REMARK                            x       y       z     vdW  Elec       q    Type
REMARK                         _______ _______ _______ _____ _____    ______ ____
ROOT
ATOM      1  C   UNL     1       1.395   9.059  19.691  0.00  0.00    +0.000 A 
ATOM      2  C   UNL     1       1.794   9.092  18.355  0.00  0.00    +0.000 A 
ATOM      3  C   UNL     1       2.386   7.969  17.769  0.00  0.00    +0.000 A 
ATOM      4  C   UNL     1       2.589   6.802  18.513  0.00  0.00    +0.000 A 
ATOM      5  C   UNL     1       2.271   6.817  19.877  0.00  0.00    +0.000 A 
ATOM      6  C   UNL     1       1.662   7.928  20.457  0.00  0.00    +0.000 A 
ENDROOT
BRANCH   4   7
ATOM      7  C   UNL     1       3.115   5.608  17.852  0.00  0.00    +0.000 A 
ATOM      8  N   UNL     1       2.529   4.426  17.831  0.00  0.00    +0.000 NA
ATOM      9  N   UNL     1       3.312   3.560  17.117  0.00  0.00    +0.000 NA
ATOM     10  C   UNL     1       4.391   4.203  16.727  0.00  0.00    +0.000 A 
ATOM     11  N   UNL     1       4.329   5.492  17.202  0.00  0.00    +0.000 N 
ATOM     12  C   UNL     1       5.351   6.513  17.090  0.00  0.00    +0.000 C 
ATOM     13  C   UNL     1       6.775   6.004  17.233  0.00  0.00    +0.000 C 
ATOM     14  C   UNL     1       7.329   5.381  15.956  0.00  0.00    +0.000 C 
ATOM     15  C   UNL     1       6.322   4.588  15.122  0.00  0.00    +0.000 C 
ATOM     16  C   UNL     1       5.504   3.596  15.941  0.00  0.00    +0.000 C 
ENDBRANCH   4   7
BRANCH   1  19
ATOM     17  O   UNL     1      -1.322  10.120  19.221  0.00  0.00    +0.000 OA
ATOM     18  C   UNL     1      -0.540  10.581  20.043  0.00  0.00    +0.000 C 
ATOM     19  N   UNL     1       0.723  10.116  20.331  0.00  0.00    +0.000 N 
ATOM     20  H   UNL     1       1.210  10.535  21.112  0.00  0.00    +0.000 HD
BRANCH  18  21
ATOM     21  C   UNL     1      -1.021  11.684  20.919  0.00  0.00    +0.000 A 
ATOM     22  C   UNL     1      -1.322  12.895  20.275  0.00  0.00    +0.000 A 
ATOM     23  C   UNL     1      -1.823  13.977  21.004  0.00  0.00    +0.000 A 
ATOM     24  C   UNL     1      -2.012  13.847  22.377  0.00  0.00    +0.000 A 
ATOM     25 CL   UNL     1      -2.644  15.170  23.276  0.00  0.00    +0.000 Cl
ATOM     26  C   UNL     1      -1.700  12.658  23.030  0.00  0.00    +0.000 A 
ATOM     27  C   UNL     1      -1.192  11.576  22.306  0.00  0.00    +0.000 A 
ATOM     28 CL   UNL     1      -0.791  10.158  23.212  0.00  0.00    +0.000 Cl
ENDBRANCH  18  21
ENDBRANCH   1  19
TORSDOF 3
ENDMDL
MODEL 4
REMARK VINA RESULT:      -8.3      1.175      1.555
REMARK  Name = 
REMARK  3 active torsions:
REMARK  status: ('A' for Active; 'I' for Inactive)
REMARK    1  A    between atoms: C_2  and  C_20
REMARK    2  A    between atoms: N_3  and  C_4
REMARK    3  A    between atoms: C_7  and  C_8
REMARK                            x       y       z     vdW  Elec       q    Type
REMARK                         _______ _______ _______ _____ _____    ______ ____
ROOT
ATOM      1  C   UNL     1       0.790   9.666  19.574  0.00  0.00    +0.000 A 
ATOM      2  C   UNL     1       1.199   9.656  18.240  0.00  0.00    +0.000 A 
ATOM      3  C   UNL     1       2.008   8.622  17.760  0.00  0.00    +0.000 A 
ATOM      4  C   UNL     1       2.419   7.589  18.608  0.00  0.00    +0.000 A 
ATOM      5  C   UNL     1       2.079   7.662  19.964  0.00  0.00    +0.000 A 
ATOM      6  C   UNL     1       1.256   8.681  20.440  0.00  0.00    +0.000 A 
ENDROOT
BRANCH   4   7
ATOM      7  C   UNL     1       3.178   6.465  18.058  0.00  0.00    +0.000 A 
ATOM      8  N   UNL     1       4.202   6.565  17.233  0.00  0.00    +0.000 NA
ATOM      9  N   UNL     1       4.656   5.307  16.940  0.00  0.00    +0.000 NA
ATOM     10  C   UNL     1       3.891   4.436  17.562  0.00  0.00    +0.000 A 
ATOM     11  N   UNL     1       2.918   5.121  18.252  0.00  0.00    +0.000 N 
ATOM     12  C   UNL     1       1.809   4.552  18.991  0.00  0.00    +0.000 C 
ATOM     13  C   UNL     1       1.188   3.320  18.356  0.00  0.00    +0.000 C 
ATOM     14  C   UNL     1       1.965   2.037  18.632  0.00  0.00    +0.000 C 
ATOM     15  C   UNL     1       3.487   2.185  18.666  0.00  0.00    +0.000 C 
ATOM     16  C   UNL     1       4.047   2.956  17.477  0.00  0.00    +0.000 C 
ENDBRANCH   4   7
BRANCH   1  19
ATOM     17  O   UNL     1       1.399  12.153  21.048  0.00  0.00    +0.000 OA
ATOM     18  C   UNL     1       0.264  11.754  20.820  0.00  0.00    +0.000 C 
ATOM     19  N   UNL     1      -0.086  10.624  20.114  0.00  0.00    +0.000 N 
ATOM     20  H   UNL     1      -1.068  10.483  19.914  0.00  0.00    +0.000 HD
BRANCH  18  21
ATOM     21  C   UNL     1      -0.874  12.620  21.230  0.00  0.00    +0.000 A 
ATOM     22  C   UNL     1      -1.050  13.799  20.488  0.00  0.00    +0.000 A 
ATOM     23  C   UNL     1      -2.118  14.657  20.766  0.00  0.00    +0.000 A 
ATOM     24  C   UNL     1      -3.000  14.338  21.795  0.00  0.00    +0.000 A 
ATOM     25 CL   UNL     1      -4.325  15.381  22.131  0.00  0.00    +0.000 Cl
ATOM     26  C   UNL     1      -2.825  13.182  22.551  0.00  0.00    +0.000 A 
ATOM     27  C   UNL     1      -1.755  12.325  22.280  0.00  0.00    +0.000 A 
ATOM     28 CL   UNL     1      -1.594  10.939  23.303  0.00  0.00    +0.000 Cl
ENDBRANCH  18  21
ENDBRANCH   1  19
TORSDOF 3
ENDMDL
MODEL 5
REMARK VINA RESULT:      -8.3      1.704      2.552
REMARK  Name = 
REMARK  3 active torsions:
REMARK  status: ('A' for Active; 'I' for Inactive)
REMARK    1  A    between atoms: C_2  and  C_20
REMARK    2  A    between atoms: N_3  and  C_4
REMARK    3  A    between atoms: C_7  and  C_8
REMARK                            x       y       z     vdW  Elec       q    Type
REMARK                         _______ _______ _______ _____ _____    ______ ____
ROOT
ATOM      1  C   UNL     1       1.172   9.073  19.757  0.00  0.00    +0.000 A 
ATOM      2  C   UNL     1       1.543   9.122  18.413  0.00  0.00    +0.000 A 
ATOM      3  C   UNL     1       2.192   8.033  17.823  0.00  0.00    +0.000 A 
ATOM      4  C   UNL     1       2.479   6.885  18.569  0.00  0.00    +0.000 A 
ATOM      5  C   UNL     1       2.185   6.889  19.938  0.00  0.00    +0.000 A 
ATOM      6  C   UNL     1       1.521   7.965  20.524  0.00  0.00    +0.000 A 
ENDROOT
BRANCH   4   7
ATOM      7  C   UNL     1       3.064   5.721  17.904  0.00  0.00    +0.000 A 
ATOM      8  N   UNL     1       2.522   4.518  17.853  0.00  0.00    +0.000 NA
ATOM      9  N   UNL     1       3.354   3.692  17.146  0.00  0.00    +0.000 NA
ATOM     10  C   UNL     1       4.417   4.380  16.791  0.00  0.00    +0.000 A 
ATOM     11  N   UNL     1       4.296   5.659  17.282  0.00  0.00    +0.000 N 
ATOM     12  C   UNL     1       5.283   6.718  17.209  0.00  0.00    +0.000 C 
ATOM     13  C   UNL     1       6.721   6.259  17.380  0.00  0.00    +0.000 C 
ATOM     14  C   UNL     1       7.328   5.676  16.108  0.00  0.00    +0.000 C 
ATOM     15  C   UNL     1       6.370   4.858  15.239  0.00  0.00    +0.000 C 
ATOM     16  C   UNL     1       5.570   3.826  16.025  0.00  0.00    +0.000 C 
ENDBRANCH   4   7
BRANCH   1  19
ATOM     17  O   UNL     1       1.200   9.888  22.597  0.00  0.00    +0.000 OA
ATOM     18  C   UNL     1       0.487  10.402  21.744  0.00  0.00    +0.000 C 
ATOM     19  N   UNL     1       0.449  10.091  20.403  0.00  0.00    +0.000 N 
ATOM     20  H   UNL     1      -0.114  10.678  19.802  0.00  0.00    +0.000 HD
BRANCH  18  21
ATOM     21  C   UNL     1      -0.348  11.567  22.145  0.00  0.00    +0.000 A 
ATOM     22  C   UNL     1      -1.504  11.270  22.887  0.00  0.00    +0.000 A 
ATOM     23  C   UNL     1      -2.330  12.298  23.349  0.00  0.00    +0.000 A 
ATOM     24  C   UNL     1      -2.004  13.619  23.059  0.00  0.00    +0.000 A 
ATOM     25 CL   UNL     1      -3.008  14.889  23.639  0.00  0.00    +0.000 Cl
ATOM     26  C   UNL     1      -0.872  13.926  22.308  0.00  0.00    +0.000 A 
ATOM     27  C   UNL     1      -0.047  12.901  21.839  0.00  0.00    +0.000 A 
ATOM     28 CL   UNL     1       1.310  13.378  20.877  0.00  0.00    +0.000 Cl
ENDBRANCH  18  21
ENDBRANCH   1  19
TORSDOF 3
ENDMDL
MODEL 6
REMARK VINA RESULT:      -8.3      0.775      1.225
REMARK  Name = 
REMARK  3 active torsions:
REMARK  status: ('A' for Active; 'I' for Inactive)
REMARK    1  A    between atoms: C_2  and  C_20
REMARK    2  A    between atoms: N_3  and  C_4
REMARK    3  A    between atoms: C_7  and  C_8
REMARK                            x       y       z     vdW  Elec       q    Type
REMARK                         _______ _______ _______ _____ _____    ______ ____
ROOT
ATOM      1  C   UNL     1       0.662   9.769  19.947  0.00  0.00    +0.000 A 
ATOM      2  C   UNL     1       1.174   8.688  20.665  0.00  0.00    +0.000 A 
ATOM      3  C   UNL     1       1.969   7.732  20.026  0.00  0.00    +0.000 A 
ATOM      4  C   UNL     1       2.259   7.844  18.662  0.00  0.00    +0.000 A 
ATOM      5  C   UNL     1       1.661   8.881  17.936  0.00  0.00    +0.000 A 
ATOM      6  C   UNL     1       0.884   9.846  18.575  0.00  0.00    +0.000 A 
ENDROOT
BRANCH   4   7
ATOM      7  C   UNL     1       3.177   6.891  18.039  0.00  0.00    +0.000 A 
ATOM      8  N   UNL     1       4.258   7.208  17.351  0.00  0.00    +0.000 NA
ATOM      9  N   UNL     1       4.863   6.055  16.928  0.00  0.00    +0.000 NA
ATOM     10  C   UNL     1       4.138   5.035  17.332  0.00  0.00    +0.000 A 
ATOM     11  N   UNL     1       3.040   5.516  18.006  0.00  0.00    +0.000 N 
ATOM     12  C   UNL     1       1.932   4.744  18.532  0.00  0.00    +0.000 C 
ATOM     13  C   UNL     1       1.502   3.575  17.661  0.00  0.00    +0.000 C 
ATOM     14  C   UNL     1       2.378   2.338  17.829  0.00  0.00    +0.000 C 
ATOM     15  C   UNL     1       3.867   2.612  18.047  0.00  0.00    +0.000 C 
ATOM     16  C   UNL     1       4.453   3.605  17.049  0.00  0.00    +0.000 C 
ENDBRANCH   4   7
BRANCH   1  19
ATOM     17  O   UNL     1       1.596  12.320  21.107  0.00  0.00    +0.000 OA
ATOM     18  C   UNL     1       0.423  11.969  21.081  0.00  0.00    +0.000 C 
ATOM     19  N   UNL     1      -0.079  10.812  20.530  0.00  0.00    +0.000 N 
ATOM     20  H   UNL     1      -1.085  10.711  20.490  0.00  0.00    +0.000 HD
BRANCH  18  21
ATOM     21  C   UNL     1      -0.600  12.925  21.583  0.00  0.00    +0.000 A 
ATOM     22  C   UNL     1      -1.132  12.649  22.853  0.00  0.00    +0.000 A 
ATOM     23  C   UNL     1      -2.067  13.511  23.431  0.00  0.00    +0.000 A 
ATOM     24  C   UNL     1      -2.475  14.644  22.732  0.00  0.00    +0.000 A 
ATOM     25 CL   UNL     1      -3.613  15.718  23.446  0.00  0.00    +0.000 Cl
ATOM     26  C   UNL     1      -1.970  14.920  21.464  0.00  0.00    +0.000 A 
ATOM     27  C   UNL     1      -1.040  14.056  20.880  0.00  0.00    +0.000 A 
ATOM     28 CL   UNL     1      -0.505  14.458  19.284  0.00  0.00    +0.000 Cl
ENDBRANCH  18  21
ENDBRANCH   1  19
TORSDOF 3
ENDMDL
MODEL 7
REMARK VINA RESULT:      -8.2      1.063      1.071
REMARK  Name = 
REMARK  3 active torsions:
REMARK  status: ('A' for Active; 'I' for Inactive)
REMARK    1  A    between atoms: C_2  and  C_20
REMARK    2  A    between atoms: N_3  and  C_4
REMARK    3  A    between atoms: C_7  and  C_8
REMARK                            x       y       z     vdW  Elec       q    Type
REMARK                         _______ _______ _______ _____ _____    ______ ____
ROOT
ATOM      1  C   UNL     1       0.742   9.674  20.281  0.00  0.00    +0.000 A 
ATOM      2  C   UNL     1       1.169   9.792  18.959  0.00  0.00    +0.000 A 
ATOM      3  C   UNL     1       1.917   8.771  18.367  0.00  0.00    +0.000 A 
ATOM      4  C   UNL     1       2.250   7.621  19.091  0.00  0.00    +0.000 A 
ATOM      5  C   UNL     1       1.896   7.559  20.444  0.00  0.00    +0.000 A 
ATOM      6  C   UNL     1       1.133   8.567  21.030  0.00  0.00    +0.000 A 
ENDROOT
BRANCH   4   7
ATOM      7  C   UNL     1       2.944   6.522  18.420  0.00  0.00    +0.000 A 
ATOM      8  N   UNL     1       3.872   6.658  17.492  0.00  0.00    +0.000 NA
ATOM      9  N   UNL     1       4.290   5.413  17.103  0.00  0.00    +0.000 NA
ATOM     10  C   UNL     1       3.597   4.517  17.771  0.00  0.00    +0.000 A 
ATOM     11  N   UNL     1       2.705   5.171  18.588  0.00  0.00    +0.000 N 
ATOM     12  C   UNL     1       1.682   4.570  19.421  0.00  0.00    +0.000 C 
ATOM     13  C   UNL     1       0.995   3.361  18.810  0.00  0.00    +0.000 C 
ATOM     14  C   UNL     1       1.796   2.071  18.950  0.00  0.00    +0.000 C 
ATOM     15  C   UNL     1       3.313   2.223  18.825  0.00  0.00    +0.000 C 
ATOM     16  C   UNL     1       3.741   3.041  17.612  0.00  0.00    +0.000 C 
ENDBRANCH   4   7
BRANCH   1  19
ATOM     17  O   UNL     1       0.429  10.244  23.164  0.00  0.00    +0.000 OA
ATOM     18  C   UNL     1      -0.200  10.814  22.281  0.00  0.00    +0.000 C 
ATOM     19  N   UNL     1      -0.079  10.618  20.924  0.00  0.00    +0.000 N 
ATOM     20  H   UNL     1      -0.589  11.242  20.313  0.00  0.00    +0.000 HD
BRANCH  18  21
ATOM     21  C   UNL     1      -1.109  11.923  22.680  0.00  0.00    +0.000 A 
ATOM     22  C   UNL     1      -2.335  11.540  23.249  0.00  0.00    +0.000 A 
ATOM     23  C   UNL     1      -3.239  12.507  23.697  0.00  0.00    +0.000 A 
ATOM     24  C   UNL     1      -2.918  13.855  23.565  0.00  0.00    +0.000 A 
ATOM     25 CL   UNL     1      -4.019  15.049  24.130  0.00  0.00    +0.000 Cl
ATOM     26  C   UNL     1      -1.714  14.248  22.985  0.00  0.00    +0.000 A 
ATOM     27  C   UNL     1      -0.811  13.284  22.530  0.00  0.00    +0.000 A 
ATOM     28 CL   UNL     1       0.636  13.870  21.783  0.00  0.00    +0.000 Cl
ENDBRANCH  18  21
ENDBRANCH   1  19
TORSDOF 3
ENDMDL
MODEL 8
REMARK VINA RESULT:      -8.2      2.083      3.185
REMARK  Name = 
REMARK  3 active torsions:
REMARK  status: ('A' for Active; 'I' for Inactive)
REMARK    1  A    between atoms: C_2  and  C_20
REMARK    2  A    between atoms: N_3  and  C_4
REMARK    3  A    between atoms: C_7  and  C_8
REMARK                            x       y       z     vdW  Elec       q    Type
REMARK                         _______ _______ _______ _____ _____    ______ ____
ROOT
ATOM      1  C   UNL     1       1.389   8.982  19.854  0.00  0.00    +0.000 A 
ATOM      2  C   UNL     1       1.601   7.789  20.545  0.00  0.00    +0.000 A 
ATOM      3  C   UNL     1       2.117   6.673  19.879  0.00  0.00    +0.000 A 
ATOM      4  C   UNL     1       2.424   6.736  18.516  0.00  0.00    +0.000 A 
ATOM      5  C   UNL     1       2.117   7.910  17.817  0.00  0.00    +0.000 A 
ATOM      6  C   UNL     1       1.622   9.030  18.482  0.00  0.00    +0.000 A 
ENDROOT
BRANCH   4   7
ATOM      7  C   UNL     1       3.059   5.590  17.866  0.00  0.00    +0.000 A 
ATOM      8  N   UNL     1       2.569   4.365  17.827  0.00  0.00    +0.000 NA
ATOM      9  N   UNL     1       3.436   3.567  17.132  0.00  0.00    +0.000 NA
ATOM     10  C   UNL     1       4.470   4.294  16.772  0.00  0.00    +0.000 A 
ATOM     11  N   UNL     1       4.294   5.573  17.248  0.00  0.00    +0.000 N 
ATOM     12  C   UNL     1       5.236   6.672  17.165  0.00  0.00    +0.000 C 
ATOM     13  C   UNL     1       6.692   6.276  17.344  0.00  0.00    +0.000 C 
ATOM     14  C   UNL     1       7.326   5.704  16.080  0.00  0.00    +0.000 C 
ATOM     15  C   UNL     1       6.406   4.837  15.219  0.00  0.00    +0.000 C 
ATOM     16  C   UNL     1       5.648   3.781  16.014  0.00  0.00    +0.000 C 
ENDBRANCH   4   7
BRANCH   1  19
ATOM     17  O   UNL     1      -1.158  10.442  19.514  0.00  0.00    +0.000 OA
ATOM     18  C   UNL     1      -0.246  10.817  20.240  0.00  0.00    +0.000 C 
ATOM     19  N   UNL     1       0.948  10.170  20.465  0.00  0.00    +0.000 N 
ATOM     20  H   UNL     1       1.559  10.549  21.176  0.00  0.00    +0.000 HD
BRANCH  18  21
ATOM     21  C   UNL     1      -0.471  12.032  21.068  0.00  0.00    +0.000 A 
ATOM     22  C   UNL     1      -0.228  13.263  20.435  0.00  0.00    +0.000 A 
ATOM     23  C   UNL     1      -0.453  14.463  21.114  0.00  0.00    +0.000 A 
ATOM     24  C   UNL     1      -0.911  14.429  22.428  0.00  0.00    +0.000 A 
ATOM     25 CL   UNL     1      -1.205  15.904  23.263  0.00  0.00    +0.000 Cl
ATOM     26  C   UNL     1      -1.137  13.216  23.073  0.00  0.00    +0.000 A 
ATOM     27  C   UNL     1      -0.907  12.014  22.400  0.00  0.00    +0.000 A 
ATOM     28 CL   UNL     1      -1.173  10.559  23.299  0.00  0.00    +0.000 Cl
ENDBRANCH  18  21
ENDBRANCH   1  19
TORSDOF 3
ENDMDL
MODEL 9
REMARK VINA RESULT:      -8.2      1.730      2.568
REMARK  Name = 
REMARK  3 active torsions:
REMARK  status: ('A' for Active; 'I' for Inactive)
REMARK    1  A    between atoms: C_2  and  C_20
REMARK    2  A    between atoms: N_3  and  C_4
REMARK    3  A    between atoms: C_7  and  C_8
REMARK                            x       y       z     vdW  Elec       q    Type
REMARK                         _______ _______ _______ _____ _____    ______ ____
ROOT
ATOM      1  C   UNL     1       1.416   9.182  19.687  0.00  0.00    +0.000 A 
ATOM      2  C   UNL     1       1.794   9.187  18.345  0.00  0.00    +0.000 A 
ATOM      3  C   UNL     1       2.356   8.043  17.769  0.00  0.00    +0.000 A 
ATOM      4  C   UNL     1       2.549   6.885  18.528  0.00  0.00    +0.000 A 
ATOM      5  C   UNL     1       2.252   6.927  19.896  0.00  0.00    +0.000 A 
ATOM      6  C   UNL     1       1.673   8.058  20.467  0.00  0.00    +0.000 A 
ENDROOT
BRANCH   4   7
ATOM      7  C   UNL     1       3.042   5.670  17.878  0.00  0.00    +0.000 A 
ATOM      8  N   UNL     1       2.431   4.501  17.881  0.00  0.00    +0.000 NA
ATOM      9  N   UNL     1       3.188   3.608  17.170  0.00  0.00    +0.000 NA
ATOM     10  C   UNL     1       4.275   4.223  16.759  0.00  0.00    +0.000 A 
ATOM     11  N   UNL     1       4.246   5.520  17.216  0.00  0.00    +0.000 N 
ATOM     12  C   UNL     1       5.288   6.518  17.078  0.00  0.00    +0.000 C 
ATOM     13  C   UNL     1       6.703   5.981  17.213  0.00  0.00    +0.000 C 
ATOM     14  C   UNL     1       7.229   5.329  15.939  0.00  0.00    +0.000 C 
ATOM     15  C   UNL     1       6.196   4.545  15.128  0.00  0.00    +0.000 C 
ATOM     16  C   UNL     1       5.367   3.583  15.970  0.00  0.00    +0.000 C 
ENDBRANCH   4   7
BRANCH   1  19
ATOM     17  O   UNL     1      -1.306  10.256  19.275  0.00  0.00    +0.000 OA
ATOM     18  C   UNL     1      -0.495  10.731  20.059  0.00  0.00    +0.000 C 
ATOM     19  N   UNL     1       0.773  10.261  20.320  0.00  0.00    +0.000 N 
ATOM     20  H   UNL     1       1.287  10.696  21.075  0.00  0.00    +0.000 HD
BRANCH  18  21
ATOM     21  C   UNL     1      -0.938  11.860  20.921  0.00  0.00    +0.000 A 
ATOM     22  C   UNL     1      -1.298  11.527  22.237  0.00  0.00    +0.000 A 
ATOM     23  C   UNL     1      -1.685  12.522  23.138  0.00  0.00    +0.000 A 
ATOM     24  C   UNL     1      -1.723  13.849  22.716  0.00  0.00    +0.000 A 
ATOM     25 CL   UNL     1      -2.183  15.080  23.824  0.00  0.00    +0.000 Cl
ATOM     26  C   UNL     1      -1.387  14.190  21.408  0.00  0.00    +0.000 A 
ATOM     27  C   UNL     1      -1.006  13.196  20.503  0.00  0.00    +0.000 A 
ATOM     28 CL   UNL     1      -0.653  13.713  18.889  0.00  0.00    +0.000 Cl
ENDBRANCH  18  21
ENDBRANCH   1  19
TORSDOF 3
ENDMDL
