MODEL 1
REMARK VINA RESULT:      -8.5      0.000      0.000
REMARK  Name = 
REMARK  5 active torsions:
REMARK  status: ('A' for Active; 'I' for Inactive)
REMARK    1  A    between atoms: N_6  and  C_7
REMARK    2  A    between atoms: C_7  and  C_8
REMARK    3  A    between atoms: C_12  and  C_13
REMARK    4  A    between atoms: C_13  and  N_14
REMARK    5  A    between atoms: N_14  and  C_15
REMARK                            x       y       z     vdW  Elec       q    Type
REMARK                         _______ _______ _______ _____ _____    ______ ____
ROOT
ATOM      1  C   UNL     1       1.400   5.826  19.908  0.00  0.00    +0.000 C 
ENDROOT
BRANCH   1   6
ATOM      2  C   UNL     1       3.741   3.841  17.611  0.00  0.00    +0.000 A 
ATOM      3  C   UNL     1       3.221   2.546  17.774  0.00  0.00    +0.000 A 
ATOM      4  C   UNL     1       2.127   2.323  18.609  0.00  0.00    +0.000 A 
ATOM      5  C   UNL     1       1.535   3.390  19.281  0.00  0.00    +0.000 A 
ATOM      6  C   UNL     1       2.033   4.692  19.140  0.00  0.00    +0.000 A 
ATOM      7  C   UNL     1       3.146   4.903  18.305  0.00  0.00    +0.000 A 
BRANCH   2   8
ATOM      8  C   UNL     1       4.878   4.066  16.650  0.00  0.00    +0.000 C 
BRANCH   8  14
ATOM      9  O   UNL     1       5.415   6.813  15.743  0.00  0.00    +0.000 OA
ATOM     10  C   UNL     1       6.068   6.267  16.617  0.00  0.00    +0.000 C 
ATOM     11  C   UNL     1       7.332   6.817  17.232  0.00  0.00    +0.000 C 
ATOM     12  C   UNL     1       7.492   5.973  18.490  0.00  0.00    +0.000 C 
ATOM     13  C   UNL     1       6.879   4.642  18.103  0.00  0.00    +0.000 C 
ATOM     14  N   UNL     1       5.845   5.016  17.169  0.00  0.00    +0.000 N 
ENDBRANCH   8  14
ENDBRANCH   2   8
ENDBRANCH   1   6
BRANCH   1  15
ATOM     15  N   UNL     1       2.341   6.827  20.412  0.00  0.00    +0.000 NA
ATOM     16  H   UNL     1       2.276   6.846  21.429  0.00  0.00    +0.000 HD
BRANCH  15  17
ATOM     17  C   UNL     1       2.145   8.210  19.921  0.00  0.00    +0.000 C 
ATOM     18  C   UNL     1       1.846   8.221  18.409  0.00  0.00    +0.000 C 
ATOM     19  C   UNL     1       0.939   9.306  17.839  0.00  0.00    +0.000 C 
ATOM     20  C   UNL     1       0.302  10.296  18.799  0.00  0.00    +0.000 C 
ATOM     21  C   UNL     1       0.274   9.914  20.246  0.00  0.00    +0.000 A 
ATOM     22  C   UNL     1      -0.566  10.655  21.100  0.00  0.00    +0.000 A 
ATOM     23  C   UNL     1      -0.607  10.386  22.461  0.00  0.00    +0.000 A 
ATOM     24  F   UNL     1      -1.408  11.108  23.253  0.00  0.00    +0.000 F 
ATOM     25  C   UNL     1       0.187   9.393  23.006  0.00  0.00    +0.000 A 
ATOM     26  C   UNL     1       1.049   8.676  22.173  0.00  0.00    +0.000 A 
ATOM     27  C   UNL     1       1.105   8.919  20.781  0.00  0.00    +0.000 A 
ENDBRANCH  15  17
ENDBRANCH   1  15
TORSDOF 5
ENDMDL
MODEL 2
REMARK VINA RESULT:      -8.3      2.974      4.993
REMARK  Name = 
REMARK  5 active torsions:
REMARK  status: ('A' for Active; 'I' for Inactive)
REMARK    1  A    between atoms: N_6  and  C_7
REMARK    2  A    between atoms: C_7  and  C_8
REMARK    3  A    between atoms: C_12  and  C_13
REMARK    4  A    between atoms: C_13  and  N_14
REMARK    5  A    between atoms: N_14  and  C_15
REMARK                            x       y       z     vdW  Elec       q    Type
REMARK                         _______ _______ _______ _____ _____    ______ ____
ROOT
ATOM      1  C   UNL     1       3.362   1.954  17.784  0.00  0.00    +0.000 C 
ENDROOT
BRANCH   1   6
ATOM      2  C   UNL     1       5.331   4.954  16.434  0.00  0.00    +0.000 A 
ATOM      3  C   UNL     1       6.063   5.316  17.578  0.00  0.00    +0.000 A 
ATOM      4  C   UNL     1       5.924   4.595  18.763  0.00  0.00    +0.000 A 
ATOM      5  C   UNL     1       5.062   3.502  18.816  0.00  0.00    +0.000 A 
ATOM      6  C   UNL     1       4.319   3.118  17.692  0.00  0.00    +0.000 A 
ATOM      7  C   UNL     1       4.457   3.861  16.506  0.00  0.00    +0.000 A 
BRANCH   2   8
ATOM      8  C   UNL     1       5.552   5.705  15.148  0.00  0.00    +0.000 C 
BRANCH   8  14
ATOM      9  O   UNL     1       8.204   5.680  13.873  0.00  0.00    +0.000 OA
ATOM     10  C   UNL     1       7.290   4.959  13.509  0.00  0.00    +0.000 C 
ATOM     11  C   UNL     1       7.302   4.094  12.271  0.00  0.00    +0.000 C 
ATOM     12  C   UNL     1       6.136   3.144  12.511  0.00  0.00    +0.000 C 
ATOM     13  C   UNL     1       5.169   3.971  13.333  0.00  0.00    +0.000 C 
ATOM     14  N   UNL     1       6.039   4.836  14.091  0.00  0.00    +0.000 N 
ENDBRANCH   8  14
ENDBRANCH   2   8
ENDBRANCH   1   6
BRANCH   1  15
ATOM     15  N   UNL     1       1.947   2.321  17.782  0.00  0.00    +0.000 NA
ATOM     16  H   UNL     1       1.783   2.972  17.016  0.00  0.00    +0.000 HD
BRANCH  15  17
ATOM     17  C   UNL     1       1.435   2.946  19.023  0.00  0.00    +0.000 C 
ATOM     18  C   UNL     1       1.887   2.155  20.267  0.00  0.00    +0.000 C 
ATOM     19  C   UNL     1       2.139   2.902  21.572  0.00  0.00    +0.000 C 
ATOM     20  C   UNL     1       2.005   4.415  21.578  0.00  0.00    +0.000 C 
ATOM     21  C   UNL     1       2.032   5.103  20.248  0.00  0.00    +0.000 A 
ATOM     22  C   UNL     1       2.216   6.499  20.240  0.00  0.00    +0.000 A 
ATOM     23  C   UNL     1       2.206   7.208  19.047  0.00  0.00    +0.000 A 
ATOM     24  F   UNL     1       2.375   8.536  19.066  0.00  0.00    +0.000 F 
ATOM     25  C   UNL     1       2.002   6.557  17.844  0.00  0.00    +0.000 A 
ATOM     26  C   UNL     1       1.784   5.177  17.844  0.00  0.00    +0.000 A 
ATOM     27  C   UNL     1       1.801   4.426  19.043  0.00  0.00    +0.000 A 
ENDBRANCH  15  17
ENDBRANCH   1  15
TORSDOF 5
ENDMDL
MODEL 3
REMARK VINA RESULT:      -8.3      2.224      3.721
REMARK  Name = 
REMARK  5 active torsions:
REMARK  status: ('A' for Active; 'I' for Inactive)
REMARK    1  A    between atoms: N_6  and  C_7
REMARK    2  A    between atoms: C_7  and  C_8
REMARK    3  A    between atoms: C_12  and  C_13
REMARK    4  A    between atoms: C_13  and  N_14
REMARK    5  A    between atoms: N_14  and  C_15
REMARK                            x       y       z     vdW  Elec       q    Type
REMARK                         _______ _______ _______ _____ _____    ______ ____
ROOT
ATOM      1  C   UNL     1       3.425   7.737  17.912  0.00  0.00    +0.000 C 
ENDROOT
BRANCH   1   6
ATOM      2  C   UNL     1       3.570   3.958  17.289  0.00  0.00    +0.000 A 
ATOM      3  C   UNL     1       4.728   3.873  16.498  0.00  0.00    +0.000 A 
ATOM      4  C   UNL     1       5.452   5.021  16.178  0.00  0.00    +0.000 A 
ATOM      5  C   UNL     1       5.033   6.262  16.652  0.00  0.00    +0.000 A 
ATOM      6  C   UNL     1       3.881   6.378  17.442  0.00  0.00    +0.000 A 
ATOM      7  C   UNL     1       3.152   5.214  17.747  0.00  0.00    +0.000 A 
BRANCH   2   8
ATOM      8  C   UNL     1       2.847   2.696  17.679  0.00  0.00    +0.000 C 
BRANCH   8  14
ATOM      9  O   UNL     1       0.169   2.464  18.874  0.00  0.00    +0.000 OA
ATOM     10  C   UNL     1       1.174   2.651  19.539  0.00  0.00    +0.000 C 
ATOM     11  C   UNL     1       1.196   2.969  21.015  0.00  0.00    +0.000 C 
ATOM     12  C   UNL     1       2.648   2.709  21.396  0.00  0.00    +0.000 C 
ATOM     13  C   UNL     1       3.411   3.044  20.130  0.00  0.00    +0.000 C 
ATOM     14  N   UNL     1       2.482   2.693  19.084  0.00  0.00    +0.000 N 
ENDBRANCH   8  14
ENDBRANCH   2   8
ENDBRANCH   1   6
BRANCH   1  15
ATOM     15  N   UNL     1       2.119   7.754  18.569  0.00  0.00    +0.000 NA
ATOM     16  H   UNL     1       1.488   7.147  18.047  0.00  0.00    +0.000 HD
BRANCH  15  17
ATOM     17  C   UNL     1       1.469   9.079  18.694  0.00  0.00    +0.000 C 
ATOM     18  C   UNL     1       0.470   9.315  17.544  0.00  0.00    +0.000 C 
ATOM     19  C   UNL     1      -0.773  10.159  17.801  0.00  0.00    +0.000 C 
ATOM     20  C   UNL     1      -1.018  10.678  19.208  0.00  0.00    +0.000 C 
ATOM     21  C   UNL     1      -0.265  10.011  20.317  0.00  0.00    +0.000 A 
ATOM     22  C   UNL     1      -0.692  10.258  21.635  0.00  0.00    +0.000 A 
ATOM     23  C   UNL     1      -0.012   9.710  22.714  0.00  0.00    +0.000 A 
ATOM     24  F   UNL     1      -0.433   9.966  23.959  0.00  0.00    +0.000 F 
ATOM     25  C   UNL     1       1.106   8.922  22.514  0.00  0.00    +0.000 A 
ATOM     26  C   UNL     1       1.558   8.699  21.212  0.00  0.00    +0.000 A 
ATOM     27  C   UNL     1       0.880   9.234  20.092  0.00  0.00    +0.000 A 
ENDBRANCH  15  17
ENDBRANCH   1  15
TORSDOF 5
ENDMDL
MODEL 4
REMARK VINA RESULT:      -8.3      2.124      3.770
REMARK  Name = 
REMARK  5 active torsions:
REMARK  status: ('A' for Active; 'I' for Inactive)
REMARK    1  A    between atoms: N_6  and  C_7
REMARK    2  A    between atoms: C_7  and  C_8
REMARK    3  A    between atoms: C_12  and  C_13
REMARK    4  A    between atoms: C_13  and  N_14
REMARK    5  A    between atoms: N_14  and  C_15
REMARK                            x       y       z     vdW  Elec       q    Type
REMARK                         _______ _______ _______ _____ _____    ______ ____
ROOT
ATOM      1  C   UNL     1       3.135   8.078  18.055  0.00  0.00    +0.000 C 
ENDROOT
BRANCH   1   6
ATOM      2  C   UNL     1       3.567   4.329  17.385  0.00  0.00    +0.000 A 
ATOM      3  C   UNL     1       4.668   4.350  16.511  0.00  0.00    +0.000 A 
ATOM      4  C   UNL     1       5.262   5.559  16.152  0.00  0.00    +0.000 A 
ATOM      5  C   UNL     1       4.771   6.757  16.667  0.00  0.00    +0.000 A 
ATOM      6  C   UNL     1       3.674   6.767  17.539  0.00  0.00    +0.000 A 
ATOM      7  C   UNL     1       3.074   5.542  17.884  0.00  0.00    +0.000 A 
BRANCH   2   8
ATOM      8  C   UNL     1       2.989   3.006  17.812  0.00  0.00    +0.000 C 
BRANCH   8  14
ATOM      9  O   UNL     1       4.672   2.464  20.164  0.00  0.00    +0.000 OA
ATOM     10  C   UNL     1       3.471   2.665  20.244  0.00  0.00    +0.000 C 
ATOM     11  C   UNL     1       2.640   2.496  21.493  0.00  0.00    +0.000 C 
ATOM     12  C   UNL     1       1.356   3.239  21.149  0.00  0.00    +0.000 C 
ATOM     13  C   UNL     1       1.236   3.063  19.649  0.00  0.00    +0.000 C 
ATOM     14  N   UNL     1       2.610   3.009  19.214  0.00  0.00    +0.000 N 
ENDBRANCH   8  14
ENDBRANCH   2   8
ENDBRANCH   1   6
BRANCH   1  15
ATOM     15  N   UNL     1       1.678   8.141  18.170  0.00  0.00    +0.000 NA
ATOM     16  H   UNL     1       1.273   7.897  17.268  0.00  0.00    +0.000 HD
BRANCH  15  17
ATOM     17  C   UNL     1       1.113   9.448  18.579  0.00  0.00    +0.000 C 
ATOM     18  C   UNL     1      -0.023   9.879  17.630  0.00  0.00    +0.000 C 
ATOM     19  C   UNL     1      -1.179  10.705  18.183  0.00  0.00    +0.000 C 
ATOM     20  C   UNL     1      -1.205  11.011  19.670  0.00  0.00    +0.000 C 
ATOM     21  C   UNL     1      -0.337  10.166  20.551  0.00  0.00    +0.000 A 
ATOM     22  C   UNL     1      -0.568  10.222  21.939  0.00  0.00    +0.000 A 
ATOM     23  C   UNL     1       0.228   9.501  22.818  0.00  0.00    +0.000 A 
ATOM     24  F   UNL     1      -0.005   9.575  24.134  0.00  0.00    +0.000 F 
ATOM     25  C   UNL     1       1.271   8.724  22.347  0.00  0.00    +0.000 A 
ATOM     26  C   UNL     1       1.530   8.690  20.975  0.00  0.00    +0.000 A 
ATOM     27  C   UNL     1       0.729   9.404  20.053  0.00  0.00    +0.000 A 
ENDBRANCH  15  17
ENDBRANCH   1  15
TORSDOF 5
ENDMDL
MODEL 5
REMARK VINA RESULT:      -8.3      1.398      1.670
REMARK  Name = 
REMARK  5 active torsions:
REMARK  status: ('A' for Active; 'I' for Inactive)
REMARK    1  A    between atoms: N_6  and  C_7
REMARK    2  A    between atoms: C_7  and  C_8
REMARK    3  A    between atoms: C_12  and  C_13
REMARK    4  A    between atoms: C_13  and  N_14
REMARK    5  A    between atoms: N_14  and  C_15
REMARK                            x       y       z     vdW  Elec       q    Type
REMARK                         _______ _______ _______ _____ _____    ______ ____
ROOT
ATOM      1  C   UNL     1       2.376   5.791  20.777  0.00  0.00    +0.000 C 
ENDROOT
BRANCH   1   6
ATOM      2  C   UNL     1       4.700   4.298  18.119  0.00  0.00    +0.000 A 
ATOM      3  C   UNL     1       3.757   3.835  17.185  0.00  0.00    +0.000 A 
ATOM      4  C   UNL     1       2.393   4.010  17.412  0.00  0.00    +0.000 A 
ATOM      5  C   UNL     1       1.957   4.656  18.566  0.00  0.00    +0.000 A 
ATOM      6  C   UNL     1       2.873   5.128  19.516  0.00  0.00    +0.000 A 
ATOM      7  C   UNL     1       4.247   4.934  19.282  0.00  0.00    +0.000 A 
BRANCH   2   8
ATOM      8  C   UNL     1       6.169   4.160  17.816  0.00  0.00    +0.000 C 
BRANCH   8  14
ATOM      9  O   UNL     1       8.249   5.121  19.661  0.00  0.00    +0.000 OA
ATOM     10  C   UNL     1       7.765   5.823  18.790  0.00  0.00    +0.000 C 
ATOM     11  C   UNL     1       8.006   7.305  18.630  0.00  0.00    +0.000 C 
ATOM     12  C   UNL     1       7.514   7.578  17.214  0.00  0.00    +0.000 C 
ATOM     13  C   UNL     1       6.408   6.560  17.022  0.00  0.00    +0.000 C 
ATOM     14  N   UNL     1       6.846   5.444  17.824  0.00  0.00    +0.000 N 
ENDBRANCH   8  14
ENDBRANCH   2   8
ENDBRANCH   1   6
BRANCH   1  15
ATOM     15  N   UNL     1       1.305   6.767  20.577  0.00  0.00    +0.000 NA
ATOM     16  H   UNL     1       0.725   6.453  19.801  0.00  0.00    +0.000 HD
BRANCH  15  17
ATOM     17  C   UNL     1       1.734   8.155  20.288  0.00  0.00    +0.000 C 
ATOM     18  C   UNL     1       1.840   8.394  18.769  0.00  0.00    +0.000 C 
ATOM     19  C   UNL     1       1.540   9.783  18.214  0.00  0.00    +0.000 C 
ATOM     20  C   UNL     1       1.077  10.863  19.175  0.00  0.00    +0.000 C 
ATOM     21  C   UNL     1       0.562  10.410  20.507  0.00  0.00    +0.000 A 
ATOM     22  C   UNL     1      -0.146  11.346  21.284  0.00  0.00    +0.000 A 
ATOM     23  C   UNL     1      -0.612  11.009  22.547  0.00  0.00    +0.000 A 
ATOM     24  F   UNL     1      -1.277  11.918  23.271  0.00  0.00    +0.000 F 
ATOM     25  C   UNL     1      -0.377   9.751  23.071  0.00  0.00    +0.000 A 
ATOM     26  C   UNL     1       0.355   8.827  22.322  0.00  0.00    +0.000 A 
ATOM     27  C   UNL     1       0.832   9.137  21.027  0.00  0.00    +0.000 A 
ENDBRANCH  15  17
ENDBRANCH   1  15
TORSDOF 5
ENDMDL
MODEL 6
REMARK VINA RESULT:      -8.2      1.050      1.346
REMARK  Name = 
REMARK  5 active torsions:
REMARK  status: ('A' for Active; 'I' for Inactive)
REMARK    1  A    between atoms: N_6  and  C_7
REMARK    2  A    between atoms: C_7  and  C_8
REMARK    3  A    between atoms: C_12  and  C_13
REMARK    4  A    between atoms: C_13  and  N_14
REMARK    5  A    between atoms: N_14  and  C_15
REMARK                            x       y       z     vdW  Elec       q    Type
REMARK                         _______ _______ _______ _____ _____    ______ ____
ROOT
ATOM      1  C   UNL     1       1.619   5.869  19.386  0.00  0.00    +0.000 C 
ENDROOT
BRANCH   1   6
ATOM      2  C   UNL     1       4.453   4.589  17.144  0.00  0.00    +0.000 A 
ATOM      3  C   UNL     1       4.241   3.203  17.230  0.00  0.00    +0.000 A 
ATOM      4  C   UNL     1       3.193   2.694  17.995  0.00  0.00    +0.000 A 
ATOM      5  C   UNL     1       2.342   3.562  18.675  0.00  0.00    +0.000 A 
ATOM      6  C   UNL     1       2.530   4.950  18.610  0.00  0.00    +0.000 A 
ATOM      7  C   UNL     1       3.599   5.451  17.845  0.00  0.00    +0.000 A 
BRANCH   2   8
ATOM      8  C   UNL     1       5.548   5.116  16.255  0.00  0.00    +0.000 C 
BRANCH   8  14
ATOM      9  O   UNL     1       7.646   4.230  18.118  0.00  0.00    +0.000 OA
ATOM     10  C   UNL     1       7.406   5.407  17.905  0.00  0.00    +0.000 C 
ATOM     11  C   UNL     1       7.996   6.569  18.668  0.00  0.00    +0.000 C 
ATOM     12  C   UNL     1       7.691   7.757  17.766  0.00  0.00    +0.000 C 
ATOM     13  C   UNL     1       6.398   7.360  17.083  0.00  0.00    +0.000 C 
ATOM     14  N   UNL     1       6.502   5.925  16.992  0.00  0.00    +0.000 N 
ENDBRANCH   8  14
ENDBRANCH   2   8
ENDBRANCH   1   6
BRANCH   1  15
ATOM     15  N   UNL     1       2.307   6.870  20.202  0.00  0.00    +0.000 NA
ATOM     16  H   UNL     1       1.980   6.781  21.163  0.00  0.00    +0.000 HD
BRANCH  15  17
ATOM     17  C   UNL     1       2.125   8.281  19.791  0.00  0.00    +0.000 C 
ATOM     18  C   UNL     1       1.806   8.381  18.286  0.00  0.00    +0.000 C 
ATOM     19  C   UNL     1       0.907   9.508  17.790  0.00  0.00    +0.000 C 
ATOM     20  C   UNL     1       0.297  10.452  18.812  0.00  0.00    +0.000 C 
ATOM     21  C   UNL     1       0.283   9.990  20.237  0.00  0.00    +0.000 A 
ATOM     22  C   UNL     1      -0.534  10.693  21.142  0.00  0.00    +0.000 A 
ATOM     23  C   UNL     1      -0.562  10.349  22.486  0.00  0.00    +0.000 A 
ATOM     24  F   UNL     1      -1.342  11.038  23.328  0.00  0.00    +0.000 F 
ATOM     25  C   UNL     1       0.225   9.317  22.964  0.00  0.00    +0.000 A 
ATOM     26  C   UNL     1       1.066   8.636  22.081  0.00  0.00    +0.000 A 
ATOM     27  C   UNL     1       1.106   8.955  20.703  0.00  0.00    +0.000 A 
ENDBRANCH  15  17
ENDBRANCH   1  15
TORSDOF 5
ENDMDL
MODEL 7
REMARK VINA RESULT:      -8.2      3.616      8.091
REMARK  Name = 
REMARK  5 active torsions:
REMARK  status: ('A' for Active; 'I' for Inactive)
REMARK    1  A    between atoms: N_6  and  C_7
REMARK    2  A    between atoms: C_7  and  C_8
REMARK    3  A    between atoms: C_12  and  C_13
REMARK    4  A    between atoms: C_13  and  N_14
REMARK    5  A    between atoms: N_14  and  C_15
REMARK                            x       y       z     vdW  Elec       q    Type
REMARK                         _______ _______ _______ _____ _____    ______ ____
ROOT
ATOM      1  C   UNL     1       2.305   8.297  17.788  0.00  0.00    +0.000 C 
ENDROOT
BRANCH   1   6
ATOM      2  C   UNL     1      -0.385  10.818  18.839  0.00  0.00    +0.000 A 
ATOM      3  C   UNL     1      -0.512  10.503  20.202  0.00  0.00    +0.000 A 
ATOM      4  C   UNL     1       0.267   9.497  20.771  0.00  0.00    +0.000 A 
ATOM      5  C   UNL     1       1.185   8.801  19.988  0.00  0.00    +0.000 A 
ATOM      6  C   UNL     1       1.333   9.091  18.625  0.00  0.00    +0.000 A 
ATOM      7  C   UNL     1       0.532  10.099  18.060  0.00  0.00    +0.000 A 
BRANCH   2   8
ATOM      8  C   UNL     1      -1.186  11.956  18.265  0.00  0.00    +0.000 C 
BRANCH   8  14
ATOM      9  O   UNL     1      -2.330  10.777  15.824  0.00  0.00    +0.000 OA
ATOM     10  C   UNL     1      -3.010  11.090  16.786  0.00  0.00    +0.000 C 
ATOM     11  C   UNL     1      -4.520  11.097  16.821  0.00  0.00    +0.000 C 
ATOM     12  C   UNL     1      -4.824  11.166  18.312  0.00  0.00    +0.000 C 
ATOM     13  C   UNL     1      -3.651  11.942  18.877  0.00  0.00    +0.000 C 
ATOM     14  N   UNL     1      -2.563  11.572  18.006  0.00  0.00    +0.000 N 
ENDBRANCH   8  14
ENDBRANCH   2   8
ENDBRANCH   1   6
BRANCH   1  15
ATOM     15  N   UNL     1       3.030   7.253  18.512  0.00  0.00    +0.000 NA
ATOM     16  H   UNL     1       4.009   7.526  18.576  0.00  0.00    +0.000 HD
BRANCH  15  17
ATOM     17  C   UNL     1       2.977   5.896  17.922  0.00  0.00    +0.000 C 
ATOM     18  C   UNL     1       4.224   5.622  17.058  0.00  0.00    +0.000 C 
ATOM     19  C   UNL     1       4.765   4.199  16.964  0.00  0.00    +0.000 C 
ATOM     20  C   UNL     1       4.093   3.113  17.787  0.00  0.00    +0.000 C 
ATOM     21  C   UNL     1       3.226   3.562  18.922  0.00  0.00    +0.000 A 
ATOM     22  C   UNL     1       2.845   2.596  19.873  0.00  0.00    +0.000 A 
ATOM     23  C   UNL     1       2.005   2.932  20.926  0.00  0.00    +0.000 A 
ATOM     24  F   UNL     1       1.651   1.994  21.813  0.00  0.00    +0.000 F 
ATOM     25  C   UNL     1       1.516   4.219  21.053  0.00  0.00    +0.000 A 
ATOM     26  C   UNL     1       1.860   5.176  20.095  0.00  0.00    +0.000 A 
ATOM     27  C   UNL     1       2.723   4.867  19.018  0.00  0.00    +0.000 A 
ENDBRANCH  15  17
ENDBRANCH   1  15
TORSDOF 5
ENDMDL
MODEL 8
REMARK VINA RESULT:      -8.1      1.327      1.593
REMARK  Name = 
REMARK  5 active torsions:
REMARK  status: ('A' for Active; 'I' for Inactive)
REMARK    1  A    between atoms: N_6  and  C_7
REMARK    2  A    between atoms: C_7  and  C_8
REMARK    3  A    between atoms: C_12  and  C_13
REMARK    4  A    between atoms: C_13  and  N_14
REMARK    5  A    between atoms: N_14  and  C_15
REMARK                            x       y       z     vdW  Elec       q    Type
REMARK                         _______ _______ _______ _____ _____    ______ ____
ROOT
ATOM      1  C   UNL     1       0.970   5.988  20.557  0.00  0.00    +0.000 C 
ENDROOT
BRANCH   1   6
ATOM      2  C   UNL     1       3.608   3.417  19.495  0.00  0.00    +0.000 A 
ATOM      3  C   UNL     1       2.787   2.316  19.198  0.00  0.00    +0.000 A 
ATOM      4  C   UNL     1       1.402   2.409  19.333  0.00  0.00    +0.000 A 
ATOM      5  C   UNL     1       0.823   3.603  19.757  0.00  0.00    +0.000 A 
ATOM      6  C   UNL     1       1.616   4.717  20.062  0.00  0.00    +0.000 A 
ATOM      7  C   UNL     1       3.013   4.607  19.935  0.00  0.00    +0.000 A 
BRANCH   2   8
ATOM      8  C   UNL     1       5.093   3.312  19.274  0.00  0.00    +0.000 C 
BRANCH   8  14
ATOM      9  O   UNL     1       7.094   5.389  19.857  0.00  0.00    +0.000 OA
ATOM     10  C   UNL     1       6.482   5.340  18.804  0.00  0.00    +0.000 C 
ATOM     11  C   UNL     1       6.508   6.402  17.730  0.00  0.00    +0.000 C 
ATOM     12  C   UNL     1       5.925   5.678  16.523  0.00  0.00    +0.000 C 
ATOM     13  C   UNL     1       4.964   4.681  17.139  0.00  0.00    +0.000 C 
ATOM     14  N   UNL     1       5.586   4.363  18.401  0.00  0.00    +0.000 N 
ENDBRANCH   8  14
ENDBRANCH   2   8
ENDBRANCH   1   6
BRANCH   1  15
ATOM     15  N   UNL     1       1.899   6.978  21.102  0.00  0.00    +0.000 NA
ATOM     16  H   UNL     1       1.672   7.125  22.085  0.00  0.00    +0.000 HD
BRANCH  15  17
ATOM     17  C   UNL     1       1.904   8.301  20.437  0.00  0.00    +0.000 C 
ATOM     18  C   UNL     1       1.825   8.148  18.905  0.00  0.00    +0.000 C 
ATOM     19  C   UNL     1       1.112   9.220  18.088  0.00  0.00    +0.000 C 
ATOM     20  C   UNL     1       0.441  10.367  18.824  0.00  0.00    +0.000 C 
ATOM     21  C   UNL     1       0.174  10.169  20.285  0.00  0.00    +0.000 A 
ATOM     22  C   UNL     1      -0.705  11.071  20.914  0.00  0.00    +0.000 A 
ATOM     23  C   UNL     1      -0.963  10.976  22.274  0.00  0.00    +0.000 A 
ATOM     24  F   UNL     1      -1.797  11.850  22.851  0.00  0.00    +0.000 F 
ATOM     25  C   UNL     1      -0.351  10.001  23.040  0.00  0.00    +0.000 A 
ATOM     26  C   UNL     1       0.550   9.123  22.432  0.00  0.00    +0.000 A 
ATOM     27  C   UNL     1       0.824   9.188  21.046  0.00  0.00    +0.000 A 
ENDBRANCH  15  17
ENDBRANCH   1  15
TORSDOF 5
ENDMDL
MODEL 9
REMARK VINA RESULT:      -8.1      3.153      5.442
REMARK  Name = 
REMARK  5 active torsions:
REMARK  status: ('A' for Active; 'I' for Inactive)
REMARK    1  A    between atoms: N_6  and  C_7
REMARK    2  A    between atoms: C_7  and  C_8
REMARK    3  A    between atoms: C_12  and  C_13
REMARK    4  A    between atoms: C_13  and  N_14
REMARK    5  A    between atoms: N_14  and  C_15
REMARK                            x       y       z     vdW  Elec       q    Type
REMARK                         _______ _______ _______ _____ _____    ______ ____
ROOT
ATOM      1  C   UNL     1       0.673   9.386  20.524  0.00  0.00    +0.000 C 
ENDROOT
BRANCH   1   6
ATOM      2  C   UNL     1       2.926   6.575  19.217  0.00  0.00    +0.000 A 
ATOM      3  C   UNL     1       3.169   7.029  17.909  0.00  0.00    +0.000 A 
ATOM      4  C   UNL     1       2.618   8.229  17.463  0.00  0.00    +0.000 A 
ATOM      5  C   UNL     1       1.826   8.991  18.319  0.00  0.00    +0.000 A 
ATOM      6  C   UNL     1       1.565   8.563  19.628  0.00  0.00    +0.000 A 
ATOM      7  C   UNL     1       2.116   7.344  20.062  0.00  0.00    +0.000 A 
BRANCH   2   8
ATOM      8  C   UNL     1       3.591   5.311  19.696  0.00  0.00    +0.000 C 
BRANCH   8  14
ATOM      9  O   UNL     1       1.919   3.737  17.856  0.00  0.00    +0.000 OA
ATOM     10  C   UNL     1       1.831   3.647  19.069  0.00  0.00    +0.000 C 
ATOM     11  C   UNL     1       0.764   2.877  19.811  0.00  0.00    +0.000 C 
ATOM     12  C   UNL     1       1.341   2.765  21.216  0.00  0.00    +0.000 C 
ATOM     13  C   UNL     1       2.167   4.028  21.361  0.00  0.00    +0.000 C 
ATOM     14  N   UNL     1       2.622   4.278  20.015  0.00  0.00    +0.000 N 
ENDBRANCH   8  14
ENDBRANCH   2   8
ENDBRANCH   1   6
BRANCH   1  15
ATOM     15  N   UNL     1       0.111  10.584  19.900  0.00  0.00    +0.000 NA
ATOM     16  H   UNL     1       0.586  11.400  20.284  0.00  0.00    +0.000 HD
BRANCH  15  17
ATOM     17  C   UNL     1      -1.346  10.786  20.074  0.00  0.00    +0.000 C 
ATOM     18  C   UNL     1      -1.630  12.002  20.979  0.00  0.00    +0.000 C 
ATOM     19  C   UNL     1      -2.888  12.829  20.738  0.00  0.00    +0.000 C 
ATOM     20  C   UNL     1      -3.781  12.465  19.564  0.00  0.00    +0.000 C 
ATOM     21  C   UNL     1      -3.181  11.599  18.499  0.00  0.00    +0.000 A 
ATOM     22  C   UNL     1      -3.869  11.501  17.275  0.00  0.00    +0.000 A 
ATOM     23  C   UNL     1      -3.395  10.681  16.260  0.00  0.00    +0.000 A 
ATOM     24  F   UNL     1      -4.071  10.598  15.108  0.00  0.00    +0.000 F 
ATOM     25  C   UNL     1      -2.244   9.935  16.439  0.00  0.00    +0.000 A 
ATOM     26  C   UNL     1      -1.574   9.999  17.662  0.00  0.00    +0.000 A 
ATOM     27  C   UNL     1      -2.025  10.834  18.710  0.00  0.00    +0.000 A 
ENDBRANCH  15  17
ENDBRANCH   1  15
TORSDOF 5
ENDMDL
