MODEL 1
REMARK VINA RESULT:      -9.7      0.000      0.000
REMARK  Name = 
REMARK  7 active torsions:
REMARK  status: ('A' for Active; 'I' for Inactive)
REMARK    1  A    between atoms: C_1  and  C_2
REMARK    2  A    between atoms: C_2  and  C_3
REMARK    3  A    between atoms: C_2  and  C_10
REMARK    4  A    between atoms: C_3  and  C_4
REMARK    5  A    between atoms: N_8  and  C_9
REMARK    6  A    between atoms: C_14  and  N_15
REMARK    7  A    between atoms: C_16  and  C_18
REMARK                            x       y       z     vdW  Elec       q    Type
REMARK                         _______ _______ _______ _____ _____    ______ ____
ROOT
ATOM      1  C   UNL     1       2.424   6.810  18.678  0.00  0.00    +0.000 A 
ATOM      2  C   UNL     1       2.253   6.677  20.034  0.00  0.00    +0.000 A 
ATOM      3  C   UNL     1       1.601   7.745  20.725  0.00  0.00    +0.000 A 
ATOM      4  C   UNL     1       1.069   9.069  20.226  0.00  0.00    +0.000 A 
ATOM      5  C   UNL     1       1.134   9.499  18.916  0.00  0.00    +0.000 A 
ATOM      6  C   UNL     1       1.854   8.258  18.104  0.00  0.00    +0.000 A 
ENDROOT
BRANCH   5   7
ATOM      7  N   UNL     1       0.542  11.076  18.494  0.00  0.00    +0.000 N 
ATOM      8  C   UNL     1      -0.542  12.279  18.747  0.00  0.00    +0.000 C 
ATOM      9  O   UNL     1      -0.328  13.285  17.976  0.00  0.00    +0.000 OA
ATOM     10  H   UNL     1       1.156  11.442  17.747  0.00  0.00    +0.000 HD
BRANCH   8  11
ATOM     11  C   UNL     1      -2.171  12.531  19.633  0.00  0.00    +0.000 A 
ATOM     12  C   UNL     1      -3.498  12.741  20.316  0.00  0.00    +0.000 A 
ATOM     13  C   UNL     1      -5.072  13.080  19.903  0.00  0.00    +0.000 A 
ATOM     14  C   UNL     1      -6.166  12.258  19.793  0.00  0.00    +0.000 A 
ATOM     15  C   UNL     1      -6.174  11.759  18.401  0.00  0.00    +0.000 A 
ATOM     16  C   UNL     1      -5.381  10.678  18.221  0.00  0.00    +0.000 A 
ATOM     17  C   UNL     1      -4.241  10.840  17.312  0.00  0.00    +0.000 A 
ATOM     18  C   UNL     1      -3.087  10.955  17.992  0.00  0.00    +0.000 A 
ATOM     19  N   UNL     1      -2.834  12.271  18.397  0.00  0.00    +0.000 N 
ATOM     20  H   UNL     1      -2.473  12.866  17.648  0.00  0.00    +0.000 HD
ENDBRANCH   8  11
ENDBRANCH   5   7
BRANCH   1  22
ATOM     21  C   UNL     1       2.309   4.220  17.423  0.00  0.00    +0.000 C 
ATOM     22  C   UNL     1       3.218   5.383  18.041  0.00  0.00    +0.000 C 
BRANCH  22  23
ATOM     23  C   UNL     1       4.461   5.500  16.981  0.00  0.00    +0.000 C 
BRANCH  23  24
ATOM     24  C   UNL     1       5.748   6.315  17.246  0.00  0.00    +0.000 A 
ATOM     25  N   UNL     1       6.349   7.206  16.467  0.00  0.00    +0.000 NA
ATOM     26  N   UNL     1       7.564   7.571  17.042  0.00  0.00    +0.000 NA
ATOM     27  C   UNL     1       7.717   6.860  18.133  0.00  0.00    +0.000 A 
ATOM     28  N   UNL     1       6.632   6.046  18.279  0.00  0.00    +0.000 N 
ATOM     29  C   UNL     1       6.417   5.133  19.367  0.00  0.00    +0.000 C 
ENDBRANCH  23  24
ENDBRANCH  22  23
ENDBRANCH   1  22
TORSDOF 5
ENDMDL
MODEL 2
REMARK VINA RESULT:      -9.6      2.248      3.026
REMARK  Name = 
REMARK  7 active torsions:
REMARK  status: ('A' for Active; 'I' for Inactive)
REMARK    1  A    between atoms: C_1  and  C_2
REMARK    2  A    between atoms: C_2  and  C_3
REMARK    3  A    between atoms: C_2  and  C_10
REMARK    4  A    between atoms: C_3  and  C_4
REMARK    5  A    between atoms: N_8  and  C_9
REMARK    6  A    between atoms: C_14  and  N_15
REMARK    7  A    between atoms: C_16  and  C_18
REMARK                            x       y       z     vdW  Elec       q    Type
REMARK                         _______ _______ _______ _____ _____    ______ ____
ROOT
ATOM      1  C   UNL     1       2.800   7.383  18.135  0.00  0.00    +0.000 A 
ATOM      2  C   UNL     1       2.504   6.993  19.418  0.00  0.00    +0.000 A 
ATOM      3  C   UNL     1       1.682   7.863  20.199  0.00  0.00    +0.000 A 
ATOM      4  C   UNL     1       1.075   9.209  19.875  0.00  0.00    +0.000 A 
ATOM      5  C   UNL     1       1.232   9.874  18.675  0.00  0.00    +0.000 A 
ATOM      6  C   UNL     1       2.151   8.861  17.754  0.00  0.00    +0.000 A 
ENDROOT
BRANCH   5   7
ATOM      7  N   UNL     1       0.533  11.449  18.463  0.00  0.00    +0.000 N 
ATOM      8  C   UNL     1      -0.623  12.535  18.872  0.00  0.00    +0.000 C 
ATOM      9  O   UNL     1      -0.485  13.644  18.237  0.00  0.00    +0.000 OA
ATOM     10  H   UNL     1       1.113  11.948  17.766  0.00  0.00    +0.000 HD
BRANCH   8  11
ATOM     11  C   UNL     1      -2.255  12.563  19.790  0.00  0.00    +0.000 A 
ATOM     12  C   UNL     1      -3.584  12.595  20.499  0.00  0.00    +0.000 A 
ATOM     13  C   UNL     1      -5.183  12.869  20.138  0.00  0.00    +0.000 A 
ATOM     14  C   UNL     1      -6.218  11.992  19.934  0.00  0.00    +0.000 A 
ATOM     15  C   UNL     1      -6.210  11.664  18.491  0.00  0.00    +0.000 A 
ATOM     16  C   UNL     1      -5.346  10.672  18.178  0.00  0.00    +0.000 A 
ATOM     17  C   UNL     1      -4.232  11.022  17.290  0.00  0.00    +0.000 A 
ATOM     18  C   UNL     1      -3.080  11.136  17.974  0.00  0.00    +0.000 A 
ATOM     19  N   UNL     1      -2.914  12.407  18.535  0.00  0.00    +0.000 N 
ATOM     20  H   UNL     1      -2.605  13.112  17.862  0.00  0.00    +0.000 HD
ENDBRANCH   8  11
ENDBRANCH   5   7
BRANCH   1  22
ATOM     21  C   UNL     1       5.273   6.563  16.906  0.00  0.00    +0.000 C 
ATOM     22  C   UNL     1       3.792   6.163  17.362  0.00  0.00    +0.000 C 
BRANCH  22  23
ATOM     23  C   UNL     1       3.985   4.676  18.023  0.00  0.00    +0.000 C 
BRANCH  23  24
ATOM     24  C   UNL     1       2.832   3.668  18.234  0.00  0.00    +0.000 A 
ATOM     25  N   UNL     1       1.652   3.610  17.630  0.00  0.00    +0.000 NA
ATOM     26  N   UNL     1       0.869   2.636  18.246  0.00  0.00    +0.000 NA
ATOM     27  C   UNL     1       1.558   2.150  19.251  0.00  0.00    +0.000 A 
ATOM     28  N   UNL     1       2.765   2.784  19.300  0.00  0.00    +0.000 N 
ATOM     29  C   UNL     1       3.810   2.512  20.246  0.00  0.00    +0.000 C 
ENDBRANCH  23  24
ENDBRANCH  22  23
ENDBRANCH   1  22
TORSDOF 5
ENDMDL
MODEL 3
REMARK VINA RESULT:      -9.5      0.839      1.373
REMARK  Name = 
REMARK  7 active torsions:
REMARK  status: ('A' for Active; 'I' for Inactive)
REMARK    1  A    between atoms: C_1  and  C_2
REMARK    2  A    between atoms: C_2  and  C_3
REMARK    3  A    between atoms: C_2  and  C_10
REMARK    4  A    between atoms: C_3  and  C_4
REMARK    5  A    between atoms: N_8  and  C_9
REMARK    6  A    between atoms: C_14  and  N_15
REMARK    7  A    between atoms: C_16  and  C_18
REMARK                            x       y       z     vdW  Elec       q    Type
REMARK                         _______ _______ _______ _____ _____    ______ ____
ROOT
ATOM      1  C   UNL     1       2.307   7.189  19.215  0.00  0.00    +0.000 A 
ATOM      2  C   UNL     1       2.014   7.015  20.545  0.00  0.00    +0.000 A 
ATOM      3  C   UNL     1       1.282   8.054  21.200  0.00  0.00    +0.000 A 
ATOM      4  C   UNL     1       0.775   9.383  20.689  0.00  0.00    +0.000 A 
ATOM      5  C   UNL     1       0.954   9.851  19.402  0.00  0.00    +0.000 A 
ATOM      6  C   UNL     1       1.767   8.643  18.629  0.00  0.00    +0.000 A 
ENDROOT
BRANCH   5   7
ATOM      7  N   UNL     1       0.376  11.430  18.969  0.00  0.00    +0.000 N 
ATOM      8  C   UNL     1      -0.768  12.593  19.122  0.00  0.00    +0.000 C 
ATOM      9  O   UNL     1      -0.484  13.637  18.428  0.00  0.00    +0.000 OA
ATOM     10  H   UNL     1       1.073  11.843  18.327  0.00  0.00    +0.000 HD
BRANCH   8  11
ATOM     11  C   UNL     1      -2.508  12.765  19.790  0.00  0.00    +0.000 A 
ATOM     12  C   UNL     1      -3.921  12.908  20.294  0.00  0.00    +0.000 A 
ATOM     13  C   UNL     1      -5.452  13.094  19.676  0.00  0.00    +0.000 A 
ATOM     14  C   UNL     1      -6.461  12.182  19.494  0.00  0.00    +0.000 A 
ATOM     15  C   UNL     1      -6.262  11.601  18.148  0.00  0.00    +0.000 A 
ATOM     16  C   UNL     1      -5.376  10.579  18.139  0.00  0.00    +0.000 A 
ATOM     17  C   UNL     1      -4.147  10.778  17.362  0.00  0.00    +0.000 A 
ATOM     18  C   UNL     1      -3.098  11.026  18.164  0.00  0.00    +0.000 A 
ATOM     19  N   UNL     1      -2.993  12.379  18.505  0.00  0.00    +0.000 N 
ATOM     20  H   UNL     1      -2.587  12.955  17.765  0.00  0.00    +0.000 HD
ENDBRANCH   8  11
ENDBRANCH   5   7
BRANCH   1  22
ATOM     21  C   UNL     1       2.401   4.747  17.691  0.00  0.00    +0.000 C 
ATOM     22  C   UNL     1       3.181   5.792  18.617  0.00  0.00    +0.000 C 
BRANCH  22  23
ATOM     23  C   UNL     1       4.634   5.948  17.877  0.00  0.00    +0.000 C 
BRANCH  23  24
ATOM     24  C   UNL     1       5.991   5.711  18.580  0.00  0.00    +0.000 A 
ATOM     25  N   UNL     1       6.247   5.057  19.706  0.00  0.00    +0.000 NA
ATOM     26  N   UNL     1       7.587   5.233  20.044  0.00  0.00    +0.000 NA
ATOM     27  C   UNL     1       8.119   6.035  19.153  0.00  0.00    +0.000 A 
ATOM     28  N   UNL     1       7.159   6.381  18.248  0.00  0.00    +0.000 N 
ATOM     29  C   UNL     1       7.358   7.228  17.105  0.00  0.00    +0.000 C 
ENDBRANCH  23  24
ENDBRANCH  22  23
ENDBRANCH   1  22
TORSDOF 5
ENDMDL
MODEL 4
REMARK VINA RESULT:      -9.4      1.399      1.900
REMARK  Name = 
REMARK  7 active torsions:
REMARK  status: ('A' for Active; 'I' for Inactive)
REMARK    1  A    between atoms: C_1  and  C_2
REMARK    2  A    between atoms: C_2  and  C_3
REMARK    3  A    between atoms: C_2  and  C_10
REMARK    4  A    between atoms: C_3  and  C_4
REMARK    5  A    between atoms: N_8  and  C_9
REMARK    6  A    between atoms: C_14  and  N_15
REMARK    7  A    between atoms: C_16  and  C_18
REMARK                            x       y       z     vdW  Elec       q    Type
REMARK                         _______ _______ _______ _____ _____    ______ ____
ROOT
ATOM      1  C   UNL     1       2.677   5.462  18.881  0.00  0.00    +0.000 A 
ATOM      2  C   UNL     1       2.317   5.294  20.196  0.00  0.00    +0.000 A 
ATOM      3  C   UNL     1       1.788   6.429  20.885  0.00  0.00    +0.000 A 
ATOM      4  C   UNL     1       1.572   7.853  20.428  0.00  0.00    +0.000 A 
ATOM      5  C   UNL     1       1.878   8.331  19.169  0.00  0.00    +0.000 A 
ATOM      6  C   UNL     1       2.456   7.019  18.355  0.00  0.00    +0.000 A 
ENDROOT
BRANCH   5   7
ATOM      7  N   UNL     1       1.640  10.011  18.801  0.00  0.00    +0.000 N 
ATOM      8  C   UNL     1       0.695  11.346  18.898  0.00  0.00    +0.000 C 
ATOM      9  O   UNL     1       1.248  12.365  18.343  0.00  0.00    +0.000 OA
ATOM     10  H   UNL     1       2.483  10.334  18.296  0.00  0.00    +0.000 HD
BRANCH   8  11
ATOM     11  C   UNL     1      -1.072  11.780  19.339  0.00  0.00    +0.000 A 
ATOM     12  C   UNL     1      -2.501  12.136  19.659  0.00  0.00    +0.000 A 
ATOM     13  C   UNL     1      -3.891  12.556  18.852  0.00  0.00    +0.000 A 
ATOM     14  C   UNL     1      -4.994  11.809  18.519  0.00  0.00    +0.000 A 
ATOM     15  C   UNL     1      -4.709  11.208  17.198  0.00  0.00    +0.000 A 
ATOM     16  C   UNL     1      -3.994  10.063  17.280  0.00  0.00    +0.000 A 
ATOM     17  C   UNL     1      -2.658  10.074  16.674  0.00  0.00    +0.000 A 
ATOM     18  C   UNL     1      -1.698  10.156  17.611  0.00  0.00    +0.000 A 
ATOM     19  N   UNL     1      -1.436  11.477  17.993  0.00  0.00    +0.000 N 
ATOM     20  H   UNL     1      -0.853  11.986  17.326  0.00  0.00    +0.000 HD
ENDBRANCH   8  11
ENDBRANCH   5   7
BRANCH   1  22
ATOM     21  C   UNL     1       2.444   3.244  17.058  0.00  0.00    +0.000 C 
ATOM     22  C   UNL     1       3.271   3.945  18.235  0.00  0.00    +0.000 C 
BRANCH  22  23
ATOM     23  C   UNL     1       4.830   3.771  17.760  0.00  0.00    +0.000 C 
BRANCH  23  24
ATOM     24  C   UNL     1       6.018   4.514  18.413  0.00  0.00    +0.000 A 
ATOM     25  N   UNL     1       6.281   4.703  19.700  0.00  0.00    +0.000 NA
ATOM     26  N   UNL     1       7.371   5.563  19.824  0.00  0.00    +0.000 NA
ATOM     27  C   UNL     1       7.725   5.932  18.617  0.00  0.00    +0.000 A 
ATOM     28  N   UNL     1       6.893   5.333  17.716  0.00  0.00    +0.000 N 
ATOM     29  C   UNL     1       6.976   5.469  16.288  0.00  0.00    +0.000 C 
ENDBRANCH  23  24
ENDBRANCH  22  23
ENDBRANCH   1  22
TORSDOF 5
ENDMDL
MODEL 5
REMARK VINA RESULT:      -9.3      2.999     10.132
REMARK  Name = 
REMARK  7 active torsions:
REMARK  status: ('A' for Active; 'I' for Inactive)
REMARK    1  A    between atoms: C_1  and  C_2
REMARK    2  A    between atoms: C_2  and  C_3
REMARK    3  A    between atoms: C_2  and  C_10
REMARK    4  A    between atoms: C_3  and  C_4
REMARK    5  A    between atoms: N_8  and  C_9
REMARK    6  A    between atoms: C_14  and  N_15
REMARK    7  A    between atoms: C_16  and  C_18
REMARK                            x       y       z     vdW  Elec       q    Type
REMARK                         _______ _______ _______ _____ _____    ______ ____
ROOT
ATOM      1  C   UNL     1      -2.117  11.090  17.890  0.00  0.00    +0.000 A 
ATOM      2  C   UNL     1      -1.711  12.111  18.715  0.00  0.00    +0.000 A 
ATOM      3  C   UNL     1      -0.348  12.107  19.146  0.00  0.00    +0.000 A 
ATOM      4  C   UNL     1       0.774  11.130  18.880  0.00  0.00    +0.000 A 
ATOM      5  C   UNL     1       0.654   9.985  18.117  0.00  0.00    +0.000 A 
ATOM      6  C   UNL     1      -0.907   9.998  17.586  0.00  0.00    +0.000 A 
ENDROOT
BRANCH   5   7
ATOM      7  N   UNL     1       2.010   8.913  17.950  0.00  0.00    +0.000 N 
ATOM      8  C   UNL     1       2.737   7.500  18.350  0.00  0.00    +0.000 C 
ATOM      9  O   UNL     1       3.862   7.353  17.747  0.00  0.00    +0.000 OA
ATOM     10  H   UNL     1       2.665   9.353  17.280  0.00  0.00    +0.000 HD
BRANCH   8  11
ATOM     11  C   UNL     1       2.556   6.148  19.633  0.00  0.00    +0.000 A 
ATOM     12  C   UNL     1       2.383   5.046  20.646  0.00  0.00    +0.000 A 
ATOM     13  C   UNL     1       1.445   3.692  20.868  0.00  0.00    +0.000 A 
ATOM     14  C   UNL     1       1.726   2.365  20.660  0.00  0.00    +0.000 A 
ATOM     15  C   UNL     1       1.365   2.077  19.255  0.00  0.00    +0.000 A 
ATOM     16  C   UNL     1       2.348   2.391  18.381  0.00  0.00    +0.000 A 
ATOM     17  C   UNL     1       2.050   3.445  17.404  0.00  0.00    +0.000 A 
ATOM     18  C   UNL     1       2.654   4.599  17.733  0.00  0.00    +0.000 A 
ATOM     19  N   UNL     1       1.905   5.356  18.642  0.00  0.00    +0.000 N 
ATOM     20  H   UNL     1       1.131   5.863  18.208  0.00  0.00    +0.000 HD
ENDBRANCH   8  11
ENDBRANCH   5   7
BRANCH   1  22
ATOM     21  C   UNL     1      -4.223  11.214  15.929  0.00  0.00    +0.000 C 
ATOM     22  C   UNL     1      -3.805  11.308  17.471  0.00  0.00    +0.000 C 
BRANCH  22  23
ATOM     23  C   UNL     1      -4.989  10.476  18.239  0.00  0.00    +0.000 C 
BRANCH  23  24
ATOM     24  C   UNL     1      -6.076  11.134  19.119  0.00  0.00    +0.000 A 
ATOM     25  N   UNL     1      -6.202  12.405  19.481  0.00  0.00    +0.000 NA
ATOM     26  N   UNL     1      -7.239  12.517  20.405  0.00  0.00    +0.000 NA
ATOM     27  C   UNL     1      -7.696  11.311  20.637  0.00  0.00    +0.000 A 
ATOM     28  N   UNL     1      -6.983  10.422  19.887  0.00  0.00    +0.000 N 
ATOM     29  C   UNL     1      -7.202   9.003  19.847  0.00  0.00    +0.000 C 
ENDBRANCH  23  24
ENDBRANCH  22  23
ENDBRANCH   1  22
TORSDOF 5
ENDMDL
MODEL 6
REMARK VINA RESULT:      -9.3      3.655     10.718
REMARK  Name = 
REMARK  7 active torsions:
REMARK  status: ('A' for Active; 'I' for Inactive)
REMARK    1  A    between atoms: C_1  and  C_2
REMARK    2  A    between atoms: C_2  and  C_3
REMARK    3  A    between atoms: C_2  and  C_10
REMARK    4  A    between atoms: C_3  and  C_4
REMARK    5  A    between atoms: N_8  and  C_9
REMARK    6  A    between atoms: C_14  and  N_15
REMARK    7  A    between atoms: C_16  and  C_18
REMARK                            x       y       z     vdW  Elec       q    Type
REMARK                         _______ _______ _______ _____ _____    ______ ____
ROOT
ATOM      1  C   UNL     1       0.079  10.730  20.480  0.00  0.00    +0.000 A 
ATOM      2  C   UNL     1       0.611  11.097  19.267  0.00  0.00    +0.000 A 
ATOM      3  C   UNL     1       1.397  10.127  18.571  0.00  0.00    +0.000 A 
ATOM      4  C   UNL     1       1.800   8.721  18.951  0.00  0.00    +0.000 A 
ATOM      5  C   UNL     1       1.448   8.093  20.130  0.00  0.00    +0.000 A 
ATOM      6  C   UNL     1       0.511   9.192  20.924  0.00  0.00    +0.000 A 
ENDROOT
BRANCH   5   7
ATOM      7  N   UNL     1       2.039   6.495  20.467  0.00  0.00    +0.000 N 
ATOM      8  C   UNL     1       2.851   5.166  19.959  0.00  0.00    +0.000 C 
ATOM      9  O   UNL     1       2.916   4.266  20.875  0.00  0.00    +0.000 OA
ATOM     10  H   UNL     1       1.771   6.271  21.441  0.00  0.00    +0.000 HD
BRANCH   8  11
ATOM     11  C   UNL     1       3.486   4.443  18.354  0.00  0.00    +0.000 A 
ATOM     12  C   UNL     1       4.015   3.891  17.055  0.00  0.00    +0.000 A 
ATOM     13  C   UNL     1       5.046   4.348  15.834  0.00  0.00    +0.000 A 
ATOM     14  C   UNL     1       6.350   4.000  15.586  0.00  0.00    +0.000 A 
ATOM     15  C   UNL     1       7.188   4.976  16.317  0.00  0.00    +0.000 A 
ATOM     16  C   UNL     1       7.377   4.644  17.615  0.00  0.00    +0.000 A 
ATOM     17  C   UNL     1       6.833   5.566  18.617  0.00  0.00    +0.000 A 
ATOM     18  C   UNL     1       5.710   5.077  19.171  0.00  0.00    +0.000 A 
ATOM     19  N   UNL     1       4.569   5.369  18.415  0.00  0.00    +0.000 N 
ATOM     20  H   UNL     1       4.234   6.327  18.538  0.00  0.00    +0.000 HD
ENDBRANCH   8  11
ENDBRANCH   5   7
BRANCH   1  22
ATOM     21  C   UNL     1      -2.316  12.329  20.529  0.00  0.00    +0.000 C 
ATOM     22  C   UNL     1      -0.861  12.056  21.136  0.00  0.00    +0.000 C 
BRANCH  22  23
ATOM     23  C   UNL     1      -1.081  12.228  22.750  0.00  0.00    +0.000 C 
BRANCH  23  24
ATOM     24  C   UNL     1      -1.453  13.565  23.433  0.00  0.00    +0.000 A 
ATOM     25  N   UNL     1      -0.674  14.595  23.734  0.00  0.00    +0.000 NA
ATOM     26  N   UNL     1      -1.401  15.517  24.484  0.00  0.00    +0.000 NA
ATOM     27  C   UNL     1      -2.597  15.015  24.679  0.00  0.00    +0.000 A 
ATOM     28  N   UNL     1      -2.661  13.794  24.073  0.00  0.00    +0.000 N 
ATOM     29  C   UNL     1      -3.816  12.940  24.042  0.00  0.00    +0.000 C 
ENDBRANCH  23  24
ENDBRANCH  22  23
ENDBRANCH   1  22
TORSDOF 5
ENDMDL
MODEL 7
REMARK VINA RESULT:      -9.2      2.284      3.373
REMARK  Name = 
REMARK  7 active torsions:
REMARK  status: ('A' for Active; 'I' for Inactive)
REMARK    1  A    between atoms: C_1  and  C_2
REMARK    2  A    between atoms: C_2  and  C_3
REMARK    3  A    between atoms: C_2  and  C_10
REMARK    4  A    between atoms: C_3  and  C_4
REMARK    5  A    between atoms: N_8  and  C_9
REMARK    6  A    between atoms: C_14  and  N_15
REMARK    7  A    between atoms: C_16  and  C_18
REMARK                            x       y       z     vdW  Elec       q    Type
REMARK                         _______ _______ _______ _____ _____    ______ ____
ROOT
ATOM      1  C   UNL     1       2.800   7.343  18.153  0.00  0.00    +0.000 A 
ATOM      2  C   UNL     1       2.581   6.969  19.457  0.00  0.00    +0.000 A 
ATOM      3  C   UNL     1       1.748   7.814  20.254  0.00  0.00    +0.000 A 
ATOM      4  C   UNL     1       1.057   9.118  19.927  0.00  0.00    +0.000 A 
ATOM      5  C   UNL     1       1.127   9.760  18.707  0.00  0.00    +0.000 A 
ATOM      6  C   UNL     1       2.058   8.775  17.769  0.00  0.00    +0.000 A 
ENDROOT
BRANCH   5   7
ATOM      7  N   UNL     1       0.336  11.292  18.491  0.00  0.00    +0.000 N 
ATOM      8  C   UNL     1      -1.055  12.134  18.288  0.00  0.00    +0.000 C 
ATOM      9  O   UNL     1      -0.841  13.398  18.210  0.00  0.00    +0.000 OA
ATOM     10  H   UNL     1       1.072  12.018  18.508  0.00  0.00    +0.000 HD
BRANCH   8  11
ATOM     11  C   UNL     1      -2.846  11.794  17.864  0.00  0.00    +0.000 A 
ATOM     12  C   UNL     1      -4.293  11.506  17.554  0.00  0.00    +0.000 A 
ATOM     13  C   UNL     1      -5.621  10.847  18.305  0.00  0.00    +0.000 A 
ATOM     14  C   UNL     1      -6.701  11.447  18.903  0.00  0.00    +0.000 A 
ATOM     15  C   UNL     1      -6.326  11.668  20.317  0.00  0.00    +0.000 A 
ATOM     16  C   UNL     1      -5.624  12.809  20.507  0.00  0.00    +0.000 A 
ATOM     17  C   UNL     1      -4.249  12.664  20.996  0.00  0.00    +0.000 A 
ATOM     18  C   UNL     1      -3.357  12.866  20.011  0.00  0.00    +0.000 A 
ATOM     19  N   UNL     1      -3.116  11.708  19.262  0.00  0.00    +0.000 N 
ATOM     20  H   UNL     1      -2.485  11.049  19.723  0.00  0.00    +0.000 HD
ENDBRANCH   8  11
ENDBRANCH   5   7
BRANCH   1  22
ATOM     21  C   UNL     1       5.296   6.596  16.926  0.00  0.00    +0.000 C 
ATOM     22  C   UNL     1       3.821   6.157  17.364  0.00  0.00    +0.000 C 
BRANCH  22  23
ATOM     23  C   UNL     1       4.041   4.663  17.999  0.00  0.00    +0.000 C 
BRANCH  23  24
ATOM     24  C   UNL     1       2.902   3.639  18.212  0.00  0.00    +0.000 A 
ATOM     25  N   UNL     1       1.682   3.626  17.691  0.00  0.00    +0.000 NA
ATOM     26  N   UNL     1       0.942   2.605  18.283  0.00  0.00    +0.000 NA
ATOM     27  C   UNL     1       1.698   2.043  19.195  0.00  0.00    +0.000 A 
ATOM     28  N   UNL     1       2.908   2.674  19.207  0.00  0.00    +0.000 N 
ATOM     29  C   UNL     1       4.017   2.331  20.053  0.00  0.00    +0.000 C 
ENDBRANCH  23  24
ENDBRANCH  22  23
ENDBRANCH   1  22
TORSDOF 5
ENDMDL
MODEL 8
REMARK VINA RESULT:      -9.2      1.183      1.553
REMARK  Name = 
REMARK  7 active torsions:
REMARK  status: ('A' for Active; 'I' for Inactive)
REMARK    1  A    between atoms: C_1  and  C_2
REMARK    2  A    between atoms: C_2  and  C_3
REMARK    3  A    between atoms: C_2  and  C_10
REMARK    4  A    between atoms: C_3  and  C_4
REMARK    5  A    between atoms: N_8  and  C_9
REMARK    6  A    between atoms: C_14  and  N_15
REMARK    7  A    between atoms: C_16  and  C_18
REMARK                            x       y       z     vdW  Elec       q    Type
REMARK                         _______ _______ _______ _____ _____    ______ ____
ROOT
ATOM      1  C   UNL     1       2.167   7.446  19.365  0.00  0.00    +0.000 A 
ATOM      2  C   UNL     1       1.805   7.152  20.657  0.00  0.00    +0.000 A 
ATOM      3  C   UNL     1       0.980   8.097  21.342  0.00  0.00    +0.000 A 
ATOM      4  C   UNL     1       0.433   9.437  20.904  0.00  0.00    +0.000 A 
ATOM      5  C   UNL     1       0.663  10.014  19.671  0.00  0.00    +0.000 A 
ATOM      6  C   UNL     1       1.585   8.914  18.860  0.00  0.00    +0.000 A 
ENDROOT
BRANCH   5   7
ATOM      7  N   UNL     1       0.028  11.593  19.325  0.00  0.00    +0.000 N 
ATOM      8  C   UNL     1      -1.165  12.698  19.528  0.00  0.00    +0.000 C 
ATOM      9  O   UNL     1      -0.913  13.794  18.905  0.00  0.00    +0.000 OA
ATOM     10  H   UNL     1       0.717  12.073  18.721  0.00  0.00    +0.000 HD
BRANCH   8  11
ATOM     11  C   UNL     1      -2.921  12.759  20.174  0.00  0.00    +0.000 A 
ATOM     12  C   UNL     1      -4.346  12.816  20.662  0.00  0.00    +0.000 A 
ATOM     13  C   UNL     1      -5.868  13.051  20.038  0.00  0.00    +0.000 A 
ATOM     14  C   UNL     1      -6.856  12.151  19.725  0.00  0.00    +0.000 A 
ATOM     15  C   UNL     1      -6.619  11.742  18.323  0.00  0.00    +0.000 A 
ATOM     16  C   UNL     1      -5.714  10.743  18.209  0.00  0.00    +0.000 A 
ATOM     17  C   UNL     1      -4.475  11.055  17.488  0.00  0.00    +0.000 A 
ATOM     18  C   UNL     1      -3.446  11.221  18.337  0.00  0.00    +0.000 A 
ATOM     19  N   UNL     1      -3.373  12.525  18.842  0.00  0.00    +0.000 N 
ATOM     20  H   UNL     1      -2.964  13.193  18.186  0.00  0.00    +0.000 HD
ENDBRANCH   8  11
ENDBRANCH   5   7
BRANCH   1  22
ATOM     21  C   UNL     1       2.426   4.995  17.875  0.00  0.00    +0.000 C 
ATOM     22  C   UNL     1       3.149   6.146  18.718  0.00  0.00    +0.000 C 
BRANCH  22  23
ATOM     23  C   UNL     1       4.510   6.452  17.858  0.00  0.00    +0.000 C 
BRANCH  23  24
ATOM     24  C   UNL     1       5.772   5.561  17.894  0.00  0.00    +0.000 A 
ATOM     25  N   UNL     1       6.555   5.260  18.923  0.00  0.00    +0.000 NA
ATOM     26  N   UNL     1       7.665   4.555  18.464  0.00  0.00    +0.000 NA
ATOM     27  C   UNL     1       7.576   4.481  17.157  0.00  0.00    +0.000 A 
ATOM     28  N   UNL     1       6.438   5.119  16.761  0.00  0.00    +0.000 N 
ATOM     29  C   UNL     1       5.976   5.232  15.405  0.00  0.00    +0.000 C 
ENDBRANCH  23  24
ENDBRANCH  22  23
ENDBRANCH   1  22
TORSDOF 5
ENDMDL
MODEL 9
REMARK VINA RESULT:      -9.2      1.665      2.392
REMARK  Name = 
REMARK  7 active torsions:
REMARK  status: ('A' for Active; 'I' for Inactive)
REMARK    1  A    between atoms: C_1  and  C_2
REMARK    2  A    between atoms: C_2  and  C_3
REMARK    3  A    between atoms: C_2  and  C_10
REMARK    4  A    between atoms: C_3  and  C_4
REMARK    5  A    between atoms: N_8  and  C_9
REMARK    6  A    between atoms: C_14  and  N_15
REMARK    7  A    between atoms: C_16  and  C_18
REMARK                            x       y       z     vdW  Elec       q    Type
REMARK                         _______ _______ _______ _____ _____    ______ ____
ROOT
ATOM      1  C   UNL     1       2.278   6.539  19.721  0.00  0.00    +0.000 A 
ATOM      2  C   UNL     1       2.502   6.586  18.367  0.00  0.00    +0.000 A 
ATOM      3  C   UNL     1       2.296   7.837  17.708  0.00  0.00    +0.000 A 
ATOM      4  C   UNL     1       1.825   9.172  18.239  0.00  0.00    +0.000 A 
ATOM      5  C   UNL     1       1.485   9.419  19.555  0.00  0.00    +0.000 A 
ATOM      6  C   UNL     1       1.754   7.989  20.331  0.00  0.00    +0.000 A 
ENDROOT
BRANCH   5   7
ATOM      7  N   UNL     1       0.893  10.985  20.014  0.00  0.00    +0.000 N 
ATOM      8  C   UNL     1      -0.383  11.981  20.270  0.00  0.00    +0.000 C 
ATOM      9  O   UNL     1      -0.010  13.144  20.669  0.00  0.00    +0.000 OA
ATOM     10  H   UNL     1       1.717  11.564  20.250  0.00  0.00    +0.000 HD
BRANCH   8  11
ATOM     11  C   UNL     1      -2.217  12.028  19.898  0.00  0.00    +0.000 A 
ATOM     12  C   UNL     1      -3.686  12.074  19.565  0.00  0.00    +0.000 A 
ATOM     13  C   UNL     1      -4.656  12.312  18.238  0.00  0.00    +0.000 A 
ATOM     14  C   UNL     1      -5.324  11.414  17.443  0.00  0.00    +0.000 A 
ATOM     15  C   UNL     1      -4.382  11.024  16.371  0.00  0.00    +0.000 A 
ATOM     16  C   UNL     1      -3.542  10.030  16.739  0.00  0.00    +0.000 A 
ATOM     17  C   UNL     1      -2.112  10.356  16.780  0.00  0.00    +0.000 A 
ATOM     18  C   UNL     1      -1.684  10.513  18.044  0.00  0.00    +0.000 A 
ATOM     19  N   UNL     1      -1.900  11.810  18.525  0.00  0.00    +0.000 N 
ATOM     20  H   UNL     1      -1.214  12.489  18.188  0.00  0.00    +0.000 HD
ENDBRANCH   8  11
ENDBRANCH   5   7
BRANCH   1  22
ATOM     21  C   UNL     1       1.379   3.996  20.734  0.00  0.00    +0.000 C 
ATOM     22  C   UNL     1       2.614   4.925  20.318  0.00  0.00    +0.000 C 
BRANCH  22  23
ATOM     23  C   UNL     1       3.602   3.903  19.503  0.00  0.00    +0.000 C 
BRANCH  23  24
ATOM     24  C   UNL     1       5.038   4.263  19.057  0.00  0.00    +0.000 A 
ATOM     25  N   UNL     1       6.046   4.732  19.782  0.00  0.00    +0.000 NA
ATOM     26  N   UNL     1       7.104   5.062  18.937  0.00  0.00    +0.000 NA
ATOM     27  C   UNL     1       6.711   4.844  17.705  0.00  0.00    +0.000 A 
ATOM     28  N   UNL     1       5.428   4.381  17.732  0.00  0.00    +0.000 N 
ATOM     29  C   UNL     1       4.655   4.004  16.581  0.00  0.00    +0.000 C 
ENDBRANCH  23  24
ENDBRANCH  22  23
ENDBRANCH   1  22
TORSDOF 5
ENDMDL
