MODEL 1
REMARK VINA RESULT:      -8.6      0.000      0.000
REMARK  Name = 
REMARK  4 active torsions:
REMARK  status: ('A' for Active; 'I' for Inactive)
REMARK    1  A    between atoms: C_2  and  C_14
REMARK    2  A    between atoms: N_3  and  C_4
REMARK    3  A    between atoms: C_19  and  O_20
REMARK    4  A    between atoms: O_20  and  C_21
REMARK                            x       y       z     vdW  Elec       q    Type
REMARK                         _______ _______ _______ _____ _____    ______ ____
ROOT
ATOM      1  O   UNL     1       5.057   7.725  17.796  0.00  0.00    +0.000 OA
ATOM      2  C   UNL     1       4.293   6.830  17.437  0.00  0.00    +0.000 C 
ATOM      3  N   UNL     1       2.927   6.840  17.665  0.00  0.00    +0.000 N 
ATOM      4  H   UNL     1       2.371   6.147  17.176  0.00  0.00    +0.000 HD
ENDROOT
BRANCH   3   5
ATOM      5  C   UNL     1       2.233   7.762  18.491  0.00  0.00    +0.000 A 
ATOM      6  C   UNL     1       1.657   8.955  17.991  0.00  0.00    +0.000 A 
ATOM      7  C   UNL     1       1.006   9.874  18.824  0.00  0.00    +0.000 A 
ATOM      8  C   UNL     1       0.949   9.571  20.163  0.00  0.00    +0.000 A 
ATOM      9  O   UNL     1       0.370  10.357  21.146  0.00  0.00    +0.000 OA
ATOM     10  C   UNL     1       0.607   9.598  22.298  0.00  0.00    +0.000 A 
ATOM     11  O   UNL     1       0.258   9.941  23.420  0.00  0.00    +0.000 OA
ATOM     12  N   UNL     1       1.283   8.440  22.004  0.00  0.00    +0.000 N 
ATOM     13  C   UNL     1       1.510   8.416  20.658  0.00  0.00    +0.000 A 
ATOM     14  C   UNL     1       2.159   7.490  19.865  0.00  0.00    +0.000 A 
ATOM     15  H   UNL     1       1.555   7.761  22.697  0.00  0.00    +0.000 HD
ENDBRANCH   3   5
BRANCH   2  16
ATOM     16  C   UNL     1       4.894   5.673  16.693  0.00  0.00    +0.000 A 
ATOM     17  C   UNL     1       5.255   5.947  15.353  0.00  0.00    +0.000 A 
ATOM     18  C   UNL     1       5.851   4.986  14.540  0.00  0.00    +0.000 A 
ATOM     19  C   UNL     1       6.058   3.708  15.033  0.00  0.00    +0.000 A 
ATOM     20  C   UNL     1       5.674   3.403  16.338  0.00  0.00    +0.000 A 
ATOM     21  C   UNL     1       5.147   4.388  17.202  0.00  0.00    +0.000 A 
BRANCH  21  22
ATOM     22  O   UNL     1       4.846   4.105  18.524  0.00  0.00    +0.000 OA
BRANCH  22  23
ATOM     23  C   UNL     1       3.547   3.760  18.846  0.00  0.00    +0.000 A 
ATOM     24  C   UNL     1       2.669   3.171  17.929  0.00  0.00    +0.000 A 
ATOM     25  C   UNL     1       1.335   2.959  18.277  0.00  0.00    +0.000 A 
ATOM     26  C   UNL     1       0.893   3.267  19.563  0.00  0.00    +0.000 A 
ATOM     27  C   UNL     1       1.790   3.773  20.506  0.00  0.00    +0.000 A 
ATOM     28  C   UNL     1       3.118   4.021  20.148  0.00  0.00    +0.000 A 
ENDBRANCH  22  23
ENDBRANCH  21  22
ENDBRANCH   2  16
TORSDOF 4
ENDMDL
MODEL 2
REMARK VINA RESULT:      -8.3      2.266      4.276
REMARK  Name = 
REMARK  4 active torsions:
REMARK  status: ('A' for Active; 'I' for Inactive)
REMARK    1  A    between atoms: C_2  and  C_14
REMARK    2  A    between atoms: N_3  and  C_4
REMARK    3  A    between atoms: C_19  and  O_20
REMARK    4  A    between atoms: O_20  and  C_21
REMARK                            x       y       z     vdW  Elec       q    Type
REMARK                         _______ _______ _______ _____ _____    ______ ____
ROOT
ATOM      1  O   UNL     1       1.462   5.455  20.714  0.00  0.00    +0.000 OA
ATOM      2  C   UNL     1       2.117   5.606  19.684  0.00  0.00    +0.000 C 
ATOM      3  N   UNL     1       2.393   6.839  19.116  0.00  0.00    +0.000 N 
ATOM      4  H   UNL     1       3.085   6.864  18.376  0.00  0.00    +0.000 HD
ENDROOT
BRANCH   3   5
ATOM      5  C   UNL     1       1.821   8.077  19.509  0.00  0.00    +0.000 A 
ATOM      6  C   UNL     1       1.432   8.352  20.843  0.00  0.00    +0.000 A 
ATOM      7  C   UNL     1       0.836   9.565  21.210  0.00  0.00    +0.000 A 
ATOM      8  C   UNL     1       0.637  10.489  20.214  0.00  0.00    +0.000 A 
ATOM      9  O   UNL     1       0.047  11.733  20.370  0.00  0.00    +0.000 OA
ATOM     10  C   UNL     1       0.083  12.236  19.064  0.00  0.00    +0.000 A 
ATOM     11  O   UNL     1      -0.356  13.333  18.747  0.00  0.00    +0.000 OA
ATOM     12  N   UNL     1       0.660  11.339  18.198  0.00  0.00    +0.000 N 
ATOM     13  C   UNL     1       1.008  10.229  18.914  0.00  0.00    +0.000 A 
ATOM     14  C   UNL     1       1.597   9.044  18.518  0.00  0.00    +0.000 A 
ATOM     15  H   UNL     1       0.773  11.509  17.213  0.00  0.00    +0.000 HD
ENDBRANCH   3   5
BRANCH   2  16
ATOM     16  C   UNL     1       2.659   4.370  19.027  0.00  0.00    +0.000 A 
ATOM     17  C   UNL     1       2.088   3.156  19.476  0.00  0.00    +0.000 A 
ATOM     18  C   UNL     1       2.463   1.924  18.942  0.00  0.00    +0.000 A 
ATOM     19  C   UNL     1       3.456   1.873  17.979  0.00  0.00    +0.000 A 
ATOM     20  C   UNL     1       4.063   3.053  17.551  0.00  0.00    +0.000 A 
ATOM     21  C   UNL     1       3.635   4.314  18.018  0.00  0.00    +0.000 A 
BRANCH  21  22
ATOM     22  O   UNL     1       4.179   5.491  17.528  0.00  0.00    +0.000 OA
BRANCH  22  23
ATOM     23  C   UNL     1       5.474   5.819  17.886  0.00  0.00    +0.000 A 
ATOM     24  C   UNL     1       6.124   5.247  18.986  0.00  0.00    +0.000 A 
ATOM     25  C   UNL     1       7.383   5.709  19.368  0.00  0.00    +0.000 A 
ATOM     26  C   UNL     1       8.025   6.689  18.613  0.00  0.00    +0.000 A 
ATOM     27  C   UNL     1       7.413   7.196  17.465  0.00  0.00    +0.000 A 
ATOM     28  C   UNL     1       6.136   6.762  17.101  0.00  0.00    +0.000 A 
ENDBRANCH  22  23
ENDBRANCH  21  22
ENDBRANCH   2  16
TORSDOF 4
ENDMDL
MODEL 3
REMARK VINA RESULT:      -8.3      2.202      4.315
REMARK  Name = 
REMARK  4 active torsions:
REMARK  status: ('A' for Active; 'I' for Inactive)
REMARK    1  A    between atoms: C_2  and  C_14
REMARK    2  A    between atoms: N_3  and  C_4
REMARK    3  A    between atoms: C_19  and  O_20
REMARK    4  A    between atoms: O_20  and  C_21
REMARK                            x       y       z     vdW  Elec       q    Type
REMARK                         _______ _______ _______ _____ _____    ______ ____
ROOT
ATOM      1  O   UNL     1       0.730   5.279  20.571  0.00  0.00    +0.000 OA
ATOM      2  C   UNL     1       1.811   5.434  20.005  0.00  0.00    +0.000 C 
ATOM      3  N   UNL     1       2.411   6.665  19.804  0.00  0.00    +0.000 N 
ATOM      4  H   UNL     1       3.375   6.666  19.491  0.00  0.00    +0.000 HD
ENDROOT
BRANCH   3   5
ATOM      5  C   UNL     1       1.806   7.928  20.039  0.00  0.00    +0.000 A 
ATOM      6  C   UNL     1       1.361   8.338  21.319  0.00  0.00    +0.000 A 
ATOM      7  C   UNL     1       0.733   9.572  21.530  0.00  0.00    +0.000 A 
ATOM      8  C   UNL     1       0.560  10.379  20.432  0.00  0.00    +0.000 A 
ATOM      9  O   UNL     1      -0.054  11.621  20.430  0.00  0.00    +0.000 OA
ATOM     10  C   UNL     1       0.027  11.980  19.078  0.00  0.00    +0.000 A 
ATOM     11  O   UNL     1      -0.416  13.029  18.628  0.00  0.00    +0.000 OA
ATOM     12  N   UNL     1       0.649  11.006  18.338  0.00  0.00    +0.000 N 
ATOM     13  C   UNL     1       0.985   9.987  19.182  0.00  0.00    +0.000 A 
ATOM     14  C   UNL     1       1.607   8.778  18.941  0.00  0.00    +0.000 A 
ATOM     15  H   UNL     1       0.799  11.071  17.345  0.00  0.00    +0.000 HD
ENDBRANCH   3   5
BRANCH   2  16
ATOM     16  C   UNL     1       2.518   4.198  19.527  0.00  0.00    +0.000 A 
ATOM     17  C   UNL     1       1.672   3.185  19.019  0.00  0.00    +0.000 A 
ATOM     18  C   UNL     1       2.178   1.990  18.510  0.00  0.00    +0.000 A 
ATOM     19  C   UNL     1       3.543   1.759  18.542  0.00  0.00    +0.000 A 
ATOM     20  C   UNL     1       4.394   2.727  19.075  0.00  0.00    +0.000 A 
ATOM     21  C   UNL     1       3.905   3.976  19.516  0.00  0.00    +0.000 A 
BRANCH  21  22
ATOM     22  O   UNL     1       4.761   4.970  19.965  0.00  0.00    +0.000 OA
BRANCH  22  23
ATOM     23  C   UNL     1       5.662   5.518  19.072  0.00  0.00    +0.000 A 
ATOM     24  C   UNL     1       7.035   5.598  19.333  0.00  0.00    +0.000 A 
ATOM     25  C   UNL     1       7.875   6.272  18.447  0.00  0.00    +0.000 A 
ATOM     26  C   UNL     1       7.360   6.802  17.265  0.00  0.00    +0.000 A 
ATOM     27  C   UNL     1       6.007   6.646  16.963  0.00  0.00    +0.000 A 
ATOM     28  C   UNL     1       5.156   6.004  17.866  0.00  0.00    +0.000 A 
ENDBRANCH  22  23
ENDBRANCH  21  22
ENDBRANCH   2  16
TORSDOF 4
ENDMDL
MODEL 4
REMARK VINA RESULT:      -8.2      1.164      1.750
REMARK  Name = 
REMARK  4 active torsions:
REMARK  status: ('A' for Active; 'I' for Inactive)
REMARK    1  A    between atoms: C_2  and  C_14
REMARK    2  A    between atoms: N_3  and  C_4
REMARK    3  A    between atoms: C_19  and  O_20
REMARK    4  A    between atoms: O_20  and  C_21
REMARK                            x       y       z     vdW  Elec       q    Type
REMARK                         _______ _______ _______ _____ _____    ______ ____
ROOT
ATOM      1  O   UNL     1       4.983   7.850  17.689  0.00  0.00    +0.000 OA
ATOM      2  C   UNL     1       4.240   6.901  17.443  0.00  0.00    +0.000 C 
ATOM      3  N   UNL     1       2.890   6.874  17.752  0.00  0.00    +0.000 N 
ATOM      4  H   UNL     1       2.337   6.126  17.349  0.00  0.00    +0.000 HD
ENDROOT
BRANCH   3   5
ATOM      5  C   UNL     1       2.205   7.828  18.549  0.00  0.00    +0.000 A 
ATOM      6  C   UNL     1       1.979   7.646  19.936  0.00  0.00    +0.000 A 
ATOM      7  C   UNL     1       1.271   8.578  20.704  0.00  0.00    +0.000 A 
ATOM      8  C   UNL     1       0.793   9.689  20.052  0.00  0.00    +0.000 A 
ATOM      9  O   UNL     1       0.055  10.710  20.629  0.00  0.00    +0.000 OA
ATOM     10  C   UNL     1      -0.175  11.553  19.534  0.00  0.00    +0.000 A 
ATOM     11  O   UNL     1      -0.813  12.595  19.603  0.00  0.00    +0.000 OA
ATOM     12  N   UNL     1       0.394  11.053  18.389  0.00  0.00    +0.000 N 
ATOM     13  C   UNL     1       1.004   9.872  18.704  0.00  0.00    +0.000 A 
ATOM     14  C   UNL     1       1.697   8.973  17.918  0.00  0.00    +0.000 A 
ATOM     15  H   UNL     1       0.335  11.507  17.493  0.00  0.00    +0.000 HD
ENDBRANCH   3   5
BRANCH   2  16
ATOM     16  C   UNL     1       4.847   5.716  16.750  0.00  0.00    +0.000 A 
ATOM     17  C   UNL     1       5.229   5.940  15.407  0.00  0.00    +0.000 A 
ATOM     18  C   UNL     1       5.833   4.948  14.637  0.00  0.00    +0.000 A 
ATOM     19  C   UNL     1       6.027   3.689  15.179  0.00  0.00    +0.000 A 
ATOM     20  C   UNL     1       5.621   3.431  16.488  0.00  0.00    +0.000 A 
ATOM     21  C   UNL     1       5.086   4.448  17.308  0.00  0.00    +0.000 A 
BRANCH  21  22
ATOM     22  O   UNL     1       4.764   4.214  18.635  0.00  0.00    +0.000 OA
BRANCH  22  23
ATOM     23  C   UNL     1       3.466   3.854  18.945  0.00  0.00    +0.000 A 
ATOM     24  C   UNL     1       2.618   3.214  18.034  0.00  0.00    +0.000 A 
ATOM     25  C   UNL     1       1.282   2.988  18.365  0.00  0.00    +0.000 A 
ATOM     26  C   UNL     1       0.810   3.332  19.630  0.00  0.00    +0.000 A 
ATOM     27  C   UNL     1       1.678   3.890  20.570  0.00  0.00    +0.000 A 
ATOM     28  C   UNL     1       3.007   4.152  20.229  0.00  0.00    +0.000 A 
ENDBRANCH  22  23
ENDBRANCH  21  22
ENDBRANCH   2  16
TORSDOF 4
ENDMDL
MODEL 5
REMARK VINA RESULT:      -8.2      2.594      4.447
REMARK  Name = 
REMARK  4 active torsions:
REMARK  status: ('A' for Active; 'I' for Inactive)
REMARK    1  A    between atoms: C_2  and  C_14
REMARK    2  A    between atoms: N_3  and  C_4
REMARK    3  A    between atoms: C_19  and  O_20
REMARK    4  A    between atoms: O_20  and  C_21
REMARK                            x       y       z     vdW  Elec       q    Type
REMARK                         _______ _______ _______ _____ _____    ______ ____
ROOT
ATOM      1  O   UNL     1       2.582   6.837  20.199  0.00  0.00    +0.000 OA
ATOM      2  C   UNL     1       2.382   6.687  18.995  0.00  0.00    +0.000 C 
ATOM      3  N   UNL     1       2.065   7.719  18.128  0.00  0.00    +0.000 N 
ATOM      4  H   UNL     1       2.097   7.518  17.135  0.00  0.00    +0.000 HD
ENDROOT
BRANCH   3   5
ATOM      5  C   UNL     1       1.739   9.047  18.509  0.00  0.00    +0.000 A 
ATOM      6  C   UNL     1       0.749   9.346  19.477  0.00  0.00    +0.000 A 
ATOM      7  C   UNL     1       0.412  10.662  19.817  0.00  0.00    +0.000 A 
ATOM      8  C   UNL     1       1.084  11.666  19.164  0.00  0.00    +0.000 A 
ATOM      9  O   UNL     1       0.881  13.025  19.344  0.00  0.00    +0.000 OA
ATOM     10  C   UNL     1       1.797  13.575  18.439  0.00  0.00    +0.000 A 
ATOM     11  O   UNL     1       1.942  14.779  18.268  0.00  0.00    +0.000 OA
ATOM     12  N   UNL     1       2.491  12.597  17.772  0.00  0.00    +0.000 N 
ATOM     13  C   UNL     1       2.044  11.386  18.219  0.00  0.00    +0.000 A 
ATOM     14  C   UNL     1       2.400  10.101  17.860  0.00  0.00    +0.000 A 
ATOM     15  H   UNL     1       3.191  12.787  17.074  0.00  0.00    +0.000 HD
ENDBRANCH   3   5
BRANCH   2  16
ATOM     16  C   UNL     1       2.514   5.296  18.446  0.00  0.00    +0.000 A 
ATOM     17  C   UNL     1       1.593   4.358  18.967  0.00  0.00    +0.000 A 
ATOM     18  C   UNL     1       1.567   3.033  18.536  0.00  0.00    +0.000 A 
ATOM     19  C   UNL     1       2.498   2.601  17.606  0.00  0.00    +0.000 A 
ATOM     20  C   UNL     1       3.442   3.498  17.108  0.00  0.00    +0.000 A 
ATOM     21  C   UNL     1       3.427   4.862  17.470  0.00  0.00    +0.000 A 
BRANCH  21  22
ATOM     22  O   UNL     1       4.311   5.769  16.908  0.00  0.00    +0.000 OA
BRANCH  22  23
ATOM     23  C   UNL     1       5.537   5.961  17.518  0.00  0.00    +0.000 A 
ATOM     24  C   UNL     1       5.952   5.224  18.634  0.00  0.00    +0.000 A 
ATOM     25  C   UNL     1       7.146   5.547  19.278  0.00  0.00    +0.000 A 
ATOM     26  C   UNL     1       7.962   6.556  18.768  0.00  0.00    +0.000 A 
ATOM     27  C   UNL     1       7.590   7.232  17.604  0.00  0.00    +0.000 A 
ATOM     28  C   UNL     1       6.376   6.935  16.978  0.00  0.00    +0.000 A 
ENDBRANCH  22  23
ENDBRANCH  21  22
ENDBRANCH   2  16
TORSDOF 4
ENDMDL
MODEL 6
REMARK VINA RESULT:      -8.2      1.937      3.899
REMARK  Name = 
REMARK  4 active torsions:
REMARK  status: ('A' for Active; 'I' for Inactive)
REMARK    1  A    between atoms: C_2  and  C_14
REMARK    2  A    between atoms: N_3  and  C_4
REMARK    3  A    between atoms: C_19  and  O_20
REMARK    4  A    between atoms: O_20  and  C_21
REMARK                            x       y       z     vdW  Elec       q    Type
REMARK                         _______ _______ _______ _____ _____    ______ ____
ROOT
ATOM      1  O   UNL     1       0.629   5.039  20.518  0.00  0.00    +0.000 OA
ATOM      2  C   UNL     1       1.748   5.240  20.048  0.00  0.00    +0.000 C 
ATOM      3  N   UNL     1       2.332   6.492  19.948  0.00  0.00    +0.000 N 
ATOM      4  H   UNL     1       3.317   6.526  19.713  0.00  0.00    +0.000 HD
ENDROOT
BRANCH   3   5
ATOM      5  C   UNL     1       1.680   7.730  20.186  0.00  0.00    +0.000 A 
ATOM      6  C   UNL     1       1.571   8.741  19.200  0.00  0.00    +0.000 A 
ATOM      7  C   UNL     1       0.957   9.972  19.459  0.00  0.00    +0.000 A 
ATOM      8  C   UNL     1       0.459  10.167  20.725  0.00  0.00    +0.000 A 
ATOM      9  O   UNL     1      -0.161  11.318  21.182  0.00  0.00    +0.000 OA
ATOM     10  C   UNL     1      -0.444  10.984  22.512  0.00  0.00    +0.000 A 
ATOM     11  O   UNL     1      -0.997  11.742  23.298  0.00  0.00    +0.000 OA
ATOM     12  N   UNL     1      -0.014   9.716  22.812  0.00  0.00    +0.000 N 
ATOM     13  C   UNL     1       0.565   9.192  21.691  0.00  0.00    +0.000 A 
ATOM     14  C   UNL     1       1.164   7.968  21.468  0.00  0.00    +0.000 A 
ATOM     15  H   UNL     1      -0.117   9.292  23.719  0.00  0.00    +0.000 HD
ENDBRANCH   3   5
BRANCH   2  16
ATOM     16  C   UNL     1       2.519   4.042  19.576  0.00  0.00    +0.000 A 
ATOM     17  C   UNL     1       1.727   2.969  19.105  0.00  0.00    +0.000 A 
ATOM     18  C   UNL     1       2.296   1.798  18.606  0.00  0.00    +0.000 A 
ATOM     19  C   UNL     1       3.673   1.653  18.611  0.00  0.00    +0.000 A 
ATOM     20  C   UNL     1       4.473   2.681  19.109  0.00  0.00    +0.000 A 
ATOM     21  C   UNL     1       3.917   3.906  19.538  0.00  0.00    +0.000 A 
BRANCH  21  22
ATOM     22  O   UNL     1       4.718   4.959  19.950  0.00  0.00    +0.000 OA
BRANCH  22  23
ATOM     23  C   UNL     1       5.543   5.564  19.021  0.00  0.00    +0.000 A 
ATOM     24  C   UNL     1       5.068   6.091  17.814  0.00  0.00    +0.000 A 
ATOM     25  C   UNL     1       5.965   6.579  16.864  0.00  0.00    +0.000 A 
ATOM     26  C   UNL     1       7.330   6.609  17.146  0.00  0.00    +0.000 A 
ATOM     27  C   UNL     1       7.796   6.164  18.385  0.00  0.00    +0.000 A 
ATOM     28  C   UNL     1       6.903   5.640  19.323  0.00  0.00    +0.000 A 
ENDBRANCH  22  23
ENDBRANCH  21  22
ENDBRANCH   2  16
TORSDOF 4
ENDMDL
MODEL 7
REMARK VINA RESULT:      -8.1      1.962      3.867
REMARK  Name = 
REMARK  4 active torsions:
REMARK  status: ('A' for Active; 'I' for Inactive)
REMARK    1  A    between atoms: C_2  and  C_14
REMARK    2  A    between atoms: N_3  and  C_4
REMARK    3  A    between atoms: C_19  and  O_20
REMARK    4  A    between atoms: O_20  and  C_21
REMARK                            x       y       z     vdW  Elec       q    Type
REMARK                         _______ _______ _______ _____ _____    ______ ____
ROOT
ATOM      1  O   UNL     1       1.451   5.392  20.665  0.00  0.00    +0.000 OA
ATOM      2  C   UNL     1       2.115   5.573  19.647  0.00  0.00    +0.000 C 
ATOM      3  N   UNL     1       2.360   6.818  19.092  0.00  0.00    +0.000 N 
ATOM      4  H   UNL     1       3.061   6.871  18.362  0.00  0.00    +0.000 HD
ENDROOT
BRANCH   3   5
ATOM      5  C   UNL     1       1.743   8.034  19.487  0.00  0.00    +0.000 A 
ATOM      6  C   UNL     1       1.567   9.126  18.601  0.00  0.00    +0.000 A 
ATOM      7  C   UNL     1       0.989  10.333  19.013  0.00  0.00    +0.000 A 
ATOM      8  C   UNL     1       0.597  10.422  20.327  0.00  0.00    +0.000 A 
ATOM      9  O   UNL     1       0.028  11.532  20.928  0.00  0.00    +0.000 OA
ATOM     10  C   UNL     1      -0.150  11.088  22.244  0.00  0.00    +0.000 A 
ATOM     11  O   UNL     1      -0.630  11.778  23.134  0.00  0.00    +0.000 OA
ATOM     12  N   UNL     1       0.289   9.796  22.400  0.00  0.00    +0.000 N 
ATOM     13  C   UNL     1       0.769   9.368  21.196  0.00  0.00    +0.000 A 
ATOM     14  C   UNL     1       1.335   8.165  20.822  0.00  0.00    +0.000 A 
ATOM     15  H   UNL     1       0.255   9.297  23.273  0.00  0.00    +0.000 HD
ENDBRANCH   3   5
BRANCH   2  16
ATOM     16  C   UNL     1       2.705   4.360  18.988  0.00  0.00    +0.000 A 
ATOM     17  C   UNL     1       2.154   3.126  19.406  0.00  0.00    +0.000 A 
ATOM     18  C   UNL     1       2.575   1.911  18.867  0.00  0.00    +0.000 A 
ATOM     19  C   UNL     1       3.594   1.898  17.930  0.00  0.00    +0.000 A 
ATOM     20  C   UNL     1       4.181   3.099  17.532  0.00  0.00    +0.000 A 
ATOM     21  C   UNL     1       3.709   4.343  18.005  0.00  0.00    +0.000 A 
BRANCH  21  22
ATOM     22  O   UNL     1       4.235   5.539  17.544  0.00  0.00    +0.000 OA
BRANCH  22  23
ATOM     23  C   UNL     1       5.530   5.870  17.897  0.00  0.00    +0.000 A 
ATOM     24  C   UNL     1       6.199   5.273  18.972  0.00  0.00    +0.000 A 
ATOM     25  C   UNL     1       7.458   5.736  19.353  0.00  0.00    +0.000 A 
ATOM     26  C   UNL     1       8.081   6.745  18.620  0.00  0.00    +0.000 A 
ATOM     27  C   UNL     1       7.450   7.280  17.496  0.00  0.00    +0.000 A 
ATOM     28  C   UNL     1       6.173   6.844  17.133  0.00  0.00    +0.000 A 
ENDBRANCH  22  23
ENDBRANCH  21  22
ENDBRANCH   2  16
TORSDOF 4
ENDMDL
MODEL 8
REMARK VINA RESULT:      -8.1      1.288      1.603
REMARK  Name = 
REMARK  4 active torsions:
REMARK  status: ('A' for Active; 'I' for Inactive)
REMARK    1  A    between atoms: C_2  and  C_14
REMARK    2  A    between atoms: N_3  and  C_4
REMARK    3  A    between atoms: C_19  and  O_20
REMARK    4  A    between atoms: O_20  and  C_21
REMARK                            x       y       z     vdW  Elec       q    Type
REMARK                         _______ _______ _______ _____ _____    ______ ____
ROOT
ATOM      1  O   UNL     1       3.431   8.254  16.940  0.00  0.00    +0.000 OA
ATOM      2  C   UNL     1       3.514   7.297  17.708  0.00  0.00    +0.000 C 
ATOM      3  N   UNL     1       2.717   7.134  18.830  0.00  0.00    +0.000 N 
ATOM      4  H   UNL     1       2.744   6.231  19.289  0.00  0.00    +0.000 HD
ENDROOT
BRANCH   3   5
ATOM      5  C   UNL     1       1.836   8.108  19.367  0.00  0.00    +0.000 A 
ATOM      6  C   UNL     1       1.268   9.142  18.584  0.00  0.00    +0.000 A 
ATOM      7  C   UNL     1       0.429  10.118  19.135  0.00  0.00    +0.000 A 
ATOM      8  C   UNL     1       0.176  10.036  20.482  0.00  0.00    +0.000 A 
ATOM      9  O   UNL     1      -0.608  10.914  21.214  0.00  0.00    +0.000 OA
ATOM     10  C   UNL     1      -0.509  10.380  22.505  0.00  0.00    +0.000 A 
ATOM     11  O   UNL     1      -1.059  10.868  23.484  0.00  0.00    +0.000 OA
ATOM     12  N   UNL     1       0.284   9.260  22.525  0.00  0.00    +0.000 N 
ATOM     13  C   UNL     1       0.728   9.037  21.253  0.00  0.00    +0.000 A 
ATOM     14  C   UNL     1       1.559   8.060  20.741  0.00  0.00    +0.000 A 
ATOM     15  H   UNL     1       0.486   8.734  23.359  0.00  0.00    +0.000 HD
ENDBRANCH   3   5
BRANCH   2  16
ATOM     16  C   UNL     1       4.531   6.242  17.384  0.00  0.00    +0.000 A 
ATOM     17  C   UNL     1       5.862   6.709  17.277  0.00  0.00    +0.000 A 
ATOM     18  C   UNL     1       6.925   5.848  17.010  0.00  0.00    +0.000 A 
ATOM     19  C   UNL     1       6.675   4.503  16.794  0.00  0.00    +0.000 A 
ATOM     20  C   UNL     1       5.366   4.027  16.854  0.00  0.00    +0.000 A 
ATOM     21  C   UNL     1       4.290   4.869  17.207  0.00  0.00    +0.000 A 
BRANCH  21  22
ATOM     22  O   UNL     1       3.002   4.377  17.351  0.00  0.00    +0.000 OA
BRANCH  22  23
ATOM     23  C   UNL     1       2.631   3.847  18.572  0.00  0.00    +0.000 A 
ATOM     24  C   UNL     1       3.560   3.397  19.518  0.00  0.00    +0.000 A 
ATOM     25  C   UNL     1       3.121   2.760  20.678  0.00  0.00    +0.000 A 
ATOM     26  C   UNL     1       1.756   2.636  20.932  0.00  0.00    +0.000 A 
ATOM     27  C   UNL     1       0.830   3.163  20.030  0.00  0.00    +0.000 A 
ATOM     28  C   UNL     1       1.266   3.769  18.849  0.00  0.00    +0.000 A 
ENDBRANCH  22  23
ENDBRANCH  21  22
ENDBRANCH   2  16
TORSDOF 4
ENDMDL
MODEL 9
REMARK VINA RESULT:      -8.0      0.875      1.174
REMARK  Name = 
REMARK  4 active torsions:
REMARK  status: ('A' for Active; 'I' for Inactive)
REMARK    1  A    between atoms: C_2  and  C_14
REMARK    2  A    between atoms: N_3  and  C_4
REMARK    3  A    between atoms: C_19  and  O_20
REMARK    4  A    between atoms: O_20  and  C_21
REMARK                            x       y       z     vdW  Elec       q    Type
REMARK                         _______ _______ _______ _____ _____    ______ ____
ROOT
ATOM      1  O   UNL     1       4.979   7.771  18.034  0.00  0.00    +0.000 OA
ATOM      2  C   UNL     1       4.202   6.915  17.615  0.00  0.00    +0.000 C 
ATOM      3  N   UNL     1       2.825   6.992  17.738  0.00  0.00    +0.000 N 
ATOM      4  H   UNL     1       2.274   6.329  17.205  0.00  0.00    +0.000 HD
ENDROOT
BRANCH   3   5
ATOM      5  C   UNL     1       2.116   7.945  18.515  0.00  0.00    +0.000 A 
ATOM      6  C   UNL     1       1.593   9.143  17.968  0.00  0.00    +0.000 A 
ATOM      7  C   UNL     1       0.927  10.092  18.753  0.00  0.00    +0.000 A 
ATOM      8  C   UNL     1       0.802   9.816  20.093  0.00  0.00    +0.000 A 
ATOM      9  O   UNL     1       0.198  10.634  21.034  0.00  0.00    +0.000 OA
ATOM     10  C   UNL     1       0.363   9.891  22.210  0.00  0.00    +0.000 A 
ATOM     11  O   UNL     1      -0.029  10.263  23.308  0.00  0.00    +0.000 OA
ATOM     12  N   UNL     1       1.023   8.712  21.968  0.00  0.00    +0.000 N 
ATOM     13  C   UNL     1       1.311   8.657  20.634  0.00  0.00    +0.000 A 
ATOM     14  C   UNL     1       1.973   7.701  19.889  0.00  0.00    +0.000 A 
ATOM     15  H   UNL     1       1.246   8.040  22.684  0.00  0.00    +0.000 HD
ENDBRANCH   3   5
BRANCH   2  16
ATOM     16  C   UNL     1       4.800   5.731  16.911  0.00  0.00    +0.000 A 
ATOM     17  C   UNL     1       6.091   5.944  16.375  0.00  0.00    +0.000 A 
ATOM     18  C   UNL     1       6.792   4.934  15.719  0.00  0.00    +0.000 A 
ATOM     19  C   UNL     1       6.197   3.697  15.539  0.00  0.00    +0.000 A 
ATOM     20  C   UNL     1       4.908   3.475  16.024  0.00  0.00    +0.000 A 
ATOM     21  C   UNL     1       4.219   4.460  16.764  0.00  0.00    +0.000 A 
BRANCH  21  22
ATOM     22  O   UNL     1       2.974   4.209  17.319  0.00  0.00    +0.000 OA
BRANCH  22  23
ATOM     23  C   UNL     1       2.912   3.757  18.624  0.00  0.00    +0.000 A 
ATOM     24  C   UNL     1       3.959   3.058  19.235  0.00  0.00    +0.000 A 
ATOM     25  C   UNL     1       3.789   2.522  20.511  0.00  0.00    +0.000 A 
ATOM     26  C   UNL     1       2.602   2.744  21.207  0.00  0.00    +0.000 A 
ATOM     27  C   UNL     1       1.590   3.516  20.632  0.00  0.00    +0.000 A 
ATOM     28  C   UNL     1       1.744   4.023  19.340  0.00  0.00    +0.000 A 
ENDBRANCH  22  23
ENDBRANCH  21  22
ENDBRANCH   2  16
TORSDOF 4
ENDMDL
