MODEL 1
REMARK VINA RESULT:      -9.0      0.000      0.000
REMARK  Name = 
REMARK  6 active torsions:
REMARK  status: ('A' for Active; 'I' for Inactive)
REMARK    1  A    between atoms: C_1  and  C_2
REMARK    2  A    between atoms: C_6  and  C_7
REMARK    3  A    between atoms: N_9  and  C_10
REMARK    4  A    between atoms: C_10  and  C_11
REMARK    5  A    between atoms: N_19  and  C_20
REMARK    6  A    between atoms: C_20  and  C_21
REMARK                            x       y       z     vdW  Elec       q    Type
REMARK                         _______ _______ _______ _____ _____    ______ ____
ROOT
ATOM      1  C   UNL     1       3.964   5.272  17.895  0.00  0.00    +0.000 A 
ATOM      2  N   UNL     1       3.669   4.079  17.401  0.00  0.00    +0.000 NA
ATOM      3  C   UNL     1       2.631   3.599  18.159  0.00  0.00    +0.000 A 
ATOM      4  C   UNL     1       1.942   2.380  18.074  0.00  0.00    +0.000 A 
ATOM      5  C   UNL     1       0.917   2.117  18.995  0.00  0.00    +0.000 A 
ATOM      6  C   UNL     1       0.571   3.054  19.968  0.00  0.00    +0.000 A 
ATOM      7  C   UNL     1       1.237   4.278  20.059  0.00  0.00    +0.000 A 
ATOM      8  C   UNL     1       2.271   4.512  19.142  0.00  0.00    +0.000 A 
ATOM      9  N   UNL     1       3.129   5.574  18.953  0.00  0.00    +0.000 N 
ENDROOT
BRANCH   1  10
ATOM     10  C   UNL     1       5.040   6.167  17.370  0.00  0.00    +0.000 C 
BRANCH  10  13
ATOM     11  C   UNL     1       6.515   5.095  15.694  0.00  0.00    +0.000 C 
ATOM     12  O   UNL     1       7.323   4.698  16.522  0.00  0.00    +0.000 OA
ATOM     13  N   UNL     1       5.370   5.785  16.011  0.00  0.00    +0.000 N 
ATOM     14  H   UNL     1       4.649   5.927  15.313  0.00  0.00    +0.000 HD
BRANCH  11  20
ATOM     15  C   UNL     1       5.461   2.353  11.648  0.00  0.00    +0.000 C 
ATOM     16  C   UNL     1       6.251   3.456  12.295  0.00  0.00    +0.000 A 
ATOM     17  C   UNL     1       7.224   4.160  11.577  0.00  0.00    +0.000 A 
ATOM     18  C   UNL     1       7.959   5.178  12.191  0.00  0.00    +0.000 A 
ATOM     19  C   UNL     1       7.721   5.509  13.527  0.00  0.00    +0.000 A 
ATOM     20  C   UNL     1       6.746   4.818  14.251  0.00  0.00    +0.000 A 
ATOM     21  C   UNL     1       6.021   3.787  13.638  0.00  0.00    +0.000 A 
ENDBRANCH  11  20
ENDBRANCH  10  13
ENDBRANCH   1  10
BRANCH   9  22
ATOM     22  C   UNL     1       3.175   6.742  19.822  0.00  0.00    +0.000 C 
BRANCH  22  23
ATOM     23  C   UNL     1       2.224   7.850  19.432  0.00  0.00    +0.000 A 
ATOM     24  C   UNL     1       2.071   8.319  18.118  0.00  0.00    +0.000 A 
ATOM     25  C   UNL     1       1.168   9.345  17.828  0.00  0.00    +0.000 A 
ATOM     26  C   UNL     1       0.387   9.898  18.839  0.00  0.00    +0.000 A 
ATOM     27  C   UNL     1       0.492   9.411  20.139  0.00  0.00    +0.000 A 
ATOM     28  C   UNL     1       1.397   8.390  20.431  0.00  0.00    +0.000 A 
ENDBRANCH  22  23
ENDBRANCH   9  22
TORSDOF 5
ENDMDL
MODEL 2
REMARK VINA RESULT:      -8.8      0.990      1.415
REMARK  Name = 
REMARK  6 active torsions:
REMARK  status: ('A' for Active; 'I' for Inactive)
REMARK    1  A    between atoms: C_1  and  C_2
REMARK    2  A    between atoms: C_6  and  C_7
REMARK    3  A    between atoms: N_9  and  C_10
REMARK    4  A    between atoms: C_10  and  C_11
REMARK    5  A    between atoms: N_19  and  C_20
REMARK    6  A    between atoms: C_20  and  C_21
REMARK                            x       y       z     vdW  Elec       q    Type
REMARK                         _______ _______ _______ _____ _____    ______ ____
ROOT
ATOM      1  C   UNL     1       4.688   5.420  18.430  0.00  0.00    +0.000 A 
ATOM      2  N   UNL     1       4.931   4.377  19.208  0.00  0.00    +0.000 NA
ATOM      3  C   UNL     1       3.705   3.860  19.545  0.00  0.00    +0.000 A 
ATOM      4  C   UNL     1       3.381   2.761  20.356  0.00  0.00    +0.000 A 
ATOM      5  C   UNL     1       2.031   2.447  20.562  0.00  0.00    +0.000 A 
ATOM      6  C   UNL     1       1.021   3.198  19.960  0.00  0.00    +0.000 A 
ATOM      7  C   UNL     1       1.325   4.287  19.139  0.00  0.00    +0.000 A 
ATOM      8  C   UNL     1       2.680   4.595  18.963  0.00  0.00    +0.000 A 
ATOM      9  N   UNL     1       3.328   5.582  18.252  0.00  0.00    +0.000 N 
ENDROOT
BRANCH   1  10
ATOM     10  C   UNL     1       5.741   6.291  17.823  0.00  0.00    +0.000 C 
BRANCH  10  13
ATOM     11  C   UNL     1       6.863   5.078  15.977  0.00  0.00    +0.000 C 
ATOM     12  O   UNL     1       7.626   4.471  16.715  0.00  0.00    +0.000 OA
ATOM     13  N   UNL     1       5.901   5.953  16.421  0.00  0.00    +0.000 N 
ATOM     14  H   UNL     1       5.180   6.284  15.791  0.00  0.00    +0.000 HD
BRANCH  11  20
ATOM     15  C   UNL     1       5.322   2.580  11.929  0.00  0.00    +0.000 C 
ATOM     16  C   UNL     1       6.210   3.624  12.546  0.00  0.00    +0.000 A 
ATOM     17  C   UNL     1       7.132   4.333  11.770  0.00  0.00    +0.000 A 
ATOM     18  C   UNL     1       7.959   5.296  12.356  0.00  0.00    +0.000 A 
ATOM     19  C   UNL     1       7.865   5.565  13.723  0.00  0.00    +0.000 A 
ATOM     20  C   UNL     1       6.941   4.868  14.507  0.00  0.00    +0.000 A 
ATOM     21  C   UNL     1       6.124   3.893  13.920  0.00  0.00    +0.000 A 
ENDBRANCH  11  20
ENDBRANCH  10  13
ENDBRANCH   1  10
BRANCH   9  22
ATOM     22  C   UNL     1       2.642   6.652  17.542  0.00  0.00    +0.000 C 
BRANCH  22  23
ATOM     23  C   UNL     1       2.063   7.725  18.434  0.00  0.00    +0.000 A 
ATOM     24  C   UNL     1       2.012   7.630  19.834  0.00  0.00    +0.000 A 
ATOM     25  C   UNL     1       1.466   8.664  20.599  0.00  0.00    +0.000 A 
ATOM     26  C   UNL     1       0.989   9.816  19.981  0.00  0.00    +0.000 A 
ATOM     27  C   UNL     1       1.076   9.947  18.598  0.00  0.00    +0.000 A 
ATOM     28  C   UNL     1       1.616   8.913  17.832  0.00  0.00    +0.000 A 
ENDBRANCH  22  23
ENDBRANCH   9  22
TORSDOF 5
ENDMDL
MODEL 3
REMARK VINA RESULT:      -8.7      3.263      8.123
REMARK  Name = 
REMARK  6 active torsions:
REMARK  status: ('A' for Active; 'I' for Inactive)
REMARK    1  A    between atoms: C_1  and  C_2
REMARK    2  A    between atoms: C_6  and  C_7
REMARK    3  A    between atoms: N_9  and  C_10
REMARK    4  A    between atoms: C_10  and  C_11
REMARK    5  A    between atoms: N_19  and  C_20
REMARK    6  A    between atoms: C_20  and  C_21
REMARK                            x       y       z     vdW  Elec       q    Type
REMARK                         _______ _______ _______ _____ _____    ______ ____
ROOT
ATOM      1  C   UNL     1       2.662   6.257  18.337  0.00  0.00    +0.000 A 
ATOM      2  N   UNL     1       1.765   5.544  19.001  0.00  0.00    +0.000 NA
ATOM      3  C   UNL     1       2.095   4.228  18.793  0.00  0.00    +0.000 A 
ATOM      4  C   UNL     1       1.473   3.059  19.256  0.00  0.00    +0.000 A 
ATOM      5  C   UNL     1       2.002   1.816  18.879  0.00  0.00    +0.000 A 
ATOM      6  C   UNL     1       3.138   1.737  18.074  0.00  0.00    +0.000 A 
ATOM      7  C   UNL     1       3.779   2.890  17.615  0.00  0.00    +0.000 A 
ATOM      8  C   UNL     1       3.221   4.120  17.987  0.00  0.00    +0.000 A 
ATOM      9  N   UNL     1       3.570   5.425  17.712  0.00  0.00    +0.000 N 
ENDROOT
BRANCH   1  10
ATOM     10  C   UNL     1       2.692   7.751  18.286  0.00  0.00    +0.000 C 
BRANCH  10  13
ATOM     11  C   UNL     1       0.990   9.256  19.272  0.00  0.00    +0.000 C 
ATOM     12  O   UNL     1       0.627   9.705  18.193  0.00  0.00    +0.000 OA
ATOM     13  N   UNL     1       1.957   8.290  19.413  0.00  0.00    +0.000 N 
ATOM     14  H   UNL     1       2.088   7.824  20.304  0.00  0.00    +0.000 HD
BRANCH  11  20
ATOM     15  C   UNL     1      -0.414  13.128  22.105  0.00  0.00    +0.000 C 
ATOM     16  C   UNL     1      -0.292  11.644  21.911  0.00  0.00    +0.000 A 
ATOM     17  C   UNL     1      -0.702  10.752  22.908  0.00  0.00    +0.000 A 
ATOM     18  C   UNL     1      -0.576   9.372  22.720  0.00  0.00    +0.000 A 
ATOM     19  C   UNL     1      -0.048   8.871  21.529  0.00  0.00    +0.000 A 
ATOM     20  C   UNL     1       0.358   9.752  20.523  0.00  0.00    +0.000 A 
ATOM     21  C   UNL     1       0.245  11.135  20.720  0.00  0.00    +0.000 A 
ENDBRANCH  11  20
ENDBRANCH  10  13
ENDBRANCH   1  10
BRANCH   9  22
ATOM     22  C   UNL     1       4.657   5.801  16.817  0.00  0.00    +0.000 C 
BRANCH  22  23
ATOM     23  C   UNL     1       5.930   6.216  17.517  0.00  0.00    +0.000 A 
ATOM     24  C   UNL     1       6.548   5.458  18.523  0.00  0.00    +0.000 A 
ATOM     25  C   UNL     1       7.729   5.900  19.126  0.00  0.00    +0.000 A 
ATOM     26  C   UNL     1       8.321   7.091  18.715  0.00  0.00    +0.000 A 
ATOM     27  C   UNL     1       7.746   7.831  17.686  0.00  0.00    +0.000 A 
ATOM     28  C   UNL     1       6.565   7.393  17.087  0.00  0.00    +0.000 A 
ENDBRANCH  22  23
ENDBRANCH   9  22
TORSDOF 5
ENDMDL
MODEL 4
REMARK VINA RESULT:      -8.7      3.268      7.436
REMARK  Name = 
REMARK  6 active torsions:
REMARK  status: ('A' for Active; 'I' for Inactive)
REMARK    1  A    between atoms: C_1  and  C_2
REMARK    2  A    between atoms: C_6  and  C_7
REMARK    3  A    between atoms: N_9  and  C_10
REMARK    4  A    between atoms: C_10  and  C_11
REMARK    5  A    between atoms: N_19  and  C_20
REMARK    6  A    between atoms: C_20  and  C_21
REMARK                            x       y       z     vdW  Elec       q    Type
REMARK                         _______ _______ _______ _____ _____    ______ ____
ROOT
ATOM      1  C   UNL     1       2.676   6.658  18.125  0.00  0.00    +0.000 A 
ATOM      2  N   UNL     1       1.675   6.056  18.749  0.00  0.00    +0.000 NA
ATOM      3  C   UNL     1       1.867   4.710  18.567  0.00  0.00    +0.000 A 
ATOM      4  C   UNL     1       1.098   3.622  19.008  0.00  0.00    +0.000 A 
ATOM      5  C   UNL     1       1.504   2.324  18.666  0.00  0.00    +0.000 A 
ATOM      6  C   UNL     1       2.661   2.110  17.918  0.00  0.00    +0.000 A 
ATOM      7  C   UNL     1       3.446   3.180  17.483  0.00  0.00    +0.000 A 
ATOM      8  C   UNL     1       3.011   4.469  17.818  0.00  0.00    +0.000 A 
ATOM      9  N   UNL     1       3.515   5.723  17.551  0.00  0.00    +0.000 N 
ENDROOT
BRANCH   1  10
ATOM     10  C   UNL     1       2.873   8.138  18.065  0.00  0.00    +0.000 C 
BRANCH  10  13
ATOM     11  C   UNL     1       0.944   9.477  18.855  0.00  0.00    +0.000 C 
ATOM     12  O   UNL     1       1.402   9.645  19.976  0.00  0.00    +0.000 OA
ATOM     13  N   UNL     1       1.595   8.791  17.857  0.00  0.00    +0.000 N 
ATOM     14  H   UNL     1       1.261   8.839  16.902  0.00  0.00    +0.000 HD
BRANCH  11  20
ATOM     15  C   UNL     1      -2.879   9.768  15.647  0.00  0.00    +0.000 C 
ATOM     16  C   UNL     1      -2.226  10.210  16.925  0.00  0.00    +0.000 A 
ATOM     17  C   UNL     1      -2.819  11.182  17.737  0.00  0.00    +0.000 A 
ATOM     18  C   UNL     1      -2.199  11.592  18.921  0.00  0.00    +0.000 A 
ATOM     19  C   UNL     1      -0.982  11.027  19.309  0.00  0.00    +0.000 A 
ATOM     20  C   UNL     1      -0.384  10.049  18.510  0.00  0.00    +0.000 A 
ATOM     21  C   UNL     1      -1.000   9.651  17.316  0.00  0.00    +0.000 A 
ENDBRANCH  11  20
ENDBRANCH  10  13
ENDBRANCH   1  10
BRANCH   9  22
ATOM     22  C   UNL     1       4.678   5.966  16.708  0.00  0.00    +0.000 C 
BRANCH  22  23
ATOM     23  C   UNL     1       5.944   6.293  17.465  0.00  0.00    +0.000 A 
ATOM     24  C   UNL     1       6.504   5.456  18.443  0.00  0.00    +0.000 A 
ATOM     25  C   UNL     1       7.681   5.818  19.103  0.00  0.00    +0.000 A 
ATOM     26  C   UNL     1       8.329   7.006  18.776  0.00  0.00    +0.000 A 
ATOM     27  C   UNL     1       7.814   7.823  17.774  0.00  0.00    +0.000 A 
ATOM     28  C   UNL     1       6.635   7.465  17.119  0.00  0.00    +0.000 A 
ENDBRANCH  22  23
ENDBRANCH   9  22
TORSDOF 5
ENDMDL
MODEL 5
REMARK VINA RESULT:      -8.6      0.930      1.021
REMARK  Name = 
REMARK  6 active torsions:
REMARK  status: ('A' for Active; 'I' for Inactive)
REMARK    1  A    between atoms: C_1  and  C_2
REMARK    2  A    between atoms: C_6  and  C_7
REMARK    3  A    between atoms: N_9  and  C_10
REMARK    4  A    between atoms: C_10  and  C_11
REMARK    5  A    between atoms: N_19  and  C_20
REMARK    6  A    between atoms: C_20  and  C_21
REMARK                            x       y       z     vdW  Elec       q    Type
REMARK                         _______ _______ _______ _____ _____    ______ ____
ROOT
ATOM      1  C   UNL     1       4.613   3.930  18.273  0.00  0.00    +0.000 A 
ATOM      2  N   UNL     1       4.073   2.781  17.898  0.00  0.00    +0.000 NA
ATOM      3  C   UNL     1       2.812   2.758  18.439  0.00  0.00    +0.000 A 
ATOM      4  C   UNL     1       1.815   1.773  18.363  0.00  0.00    +0.000 A 
ATOM      5  C   UNL     1       0.602   1.986  19.032  0.00  0.00    +0.000 A 
ATOM      6  C   UNL     1       0.375   3.162  19.747  0.00  0.00    +0.000 A 
ATOM      7  C   UNL     1       1.350   4.159  19.822  0.00  0.00    +0.000 A 
ATOM      8  C   UNL     1       2.562   3.917  19.163  0.00  0.00    +0.000 A 
ATOM      9  N   UNL     1       3.721   4.653  19.040  0.00  0.00    +0.000 N 
ENDROOT
BRANCH   1  10
ATOM     10  C   UNL     1       5.990   4.382  17.906  0.00  0.00    +0.000 C 
BRANCH  10  13
ATOM     11  C   UNL     1       6.857   5.151  15.717  0.00  0.00    +0.000 C 
ATOM     12  O   UNL     1       7.385   6.155  16.174  0.00  0.00    +0.000 OA
ATOM     13  N   UNL     1       6.189   4.222  16.478  0.00  0.00    +0.000 N 
ATOM     14  H   UNL     1       5.935   3.325  16.083  0.00  0.00    +0.000 HD
BRANCH  11  20
ATOM     15  C   UNL     1       5.331   2.473  11.781  0.00  0.00    +0.000 C 
ATOM     16  C   UNL     1       6.213   3.546  12.352  0.00  0.00    +0.000 A 
ATOM     17  C   UNL     1       7.133   4.226  11.546  0.00  0.00    +0.000 A 
ATOM     18  C   UNL     1       7.955   5.218  12.090  0.00  0.00    +0.000 A 
ATOM     19  C   UNL     1       7.858   5.545  13.445  0.00  0.00    +0.000 A 
ATOM     20  C   UNL     1       6.938   4.879  14.257  0.00  0.00    +0.000 A 
ATOM     21  C   UNL     1       6.126   3.874  13.713  0.00  0.00    +0.000 A 
ENDBRANCH  11  20
ENDBRANCH  10  13
ENDBRANCH   1  10
BRANCH   9  22
ATOM     22  C   UNL     1       3.950   5.922  19.718  0.00  0.00    +0.000 C 
BRANCH  22  23
ATOM     23  C   UNL     1       3.061   7.051  19.251  0.00  0.00    +0.000 A 
ATOM     24  C   UNL     1       3.069   7.558  17.942  0.00  0.00    +0.000 A 
ATOM     25  C   UNL     1       2.216   8.602  17.576  0.00  0.00    +0.000 A 
ATOM     26  C   UNL     1       1.325   9.135  18.503  0.00  0.00    +0.000 A 
ATOM     27  C   UNL     1       1.269   8.611  19.791  0.00  0.00    +0.000 A 
ATOM     28  C   UNL     1       2.125   7.572  20.160  0.00  0.00    +0.000 A 
ENDBRANCH  22  23
ENDBRANCH   9  22
TORSDOF 5
ENDMDL
MODEL 6
REMARK VINA RESULT:      -8.6      3.446      7.525
REMARK  Name = 
REMARK  6 active torsions:
REMARK  status: ('A' for Active; 'I' for Inactive)
REMARK    1  A    between atoms: C_1  and  C_2
REMARK    2  A    between atoms: C_6  and  C_7
REMARK    3  A    between atoms: N_9  and  C_10
REMARK    4  A    between atoms: C_10  and  C_11
REMARK    5  A    between atoms: N_19  and  C_20
REMARK    6  A    between atoms: C_20  and  C_21
REMARK                            x       y       z     vdW  Elec       q    Type
REMARK                         _______ _______ _______ _____ _____    ______ ____
ROOT
ATOM      1  C   UNL     1       2.760   6.379  18.667  0.00  0.00    +0.000 A 
ATOM      2  N   UNL     1       1.890   6.076  19.619  0.00  0.00    +0.000 NA
ATOM      3  C   UNL     1       2.249   4.835  20.082  0.00  0.00    +0.000 A 
ATOM      4  C   UNL     1       1.662   4.041  21.079  0.00  0.00    +0.000 A 
ATOM      5  C   UNL     1       2.216   2.783  21.354  0.00  0.00    +0.000 A 
ATOM      6  C   UNL     1       3.341   2.330  20.667  0.00  0.00    +0.000 A 
ATOM      7  C   UNL     1       3.947   3.113  19.681  0.00  0.00    +0.000 A 
ATOM      8  C   UNL     1       3.365   4.357  19.408  0.00  0.00    +0.000 A 
ATOM      9  N   UNL     1       3.679   5.359  18.514  0.00  0.00    +0.000 N 
ENDROOT
BRANCH   1  10
ATOM     10  C   UNL     1       2.753   7.650  17.882  0.00  0.00    +0.000 C 
BRANCH  10  13
ATOM     11  C   UNL     1       1.460   9.757  18.041  0.00  0.00    +0.000 C 
ATOM     12  O   UNL     1       2.374  10.458  17.632  0.00  0.00    +0.000 OA
ATOM     13  N   UNL     1       1.540   8.391  18.167  0.00  0.00    +0.000 N 
ATOM     14  H   UNL     1       0.703   7.843  18.331  0.00  0.00    +0.000 HD
BRANCH  11  20
ATOM     15  C   UNL     1      -3.470  10.152  17.310  0.00  0.00    +0.000 C 
ATOM     16  C   UNL     1      -2.229  10.595  18.032  0.00  0.00    +0.000 A 
ATOM     17  C   UNL     1      -2.279  11.615  18.989  0.00  0.00    +0.000 A 
ATOM     18  C   UNL     1      -1.116  12.024  19.649  0.00  0.00    +0.000 A 
ATOM     19  C   UNL     1       0.106  11.410  19.366  0.00  0.00    +0.000 A 
ATOM     20  C   UNL     1       0.166  10.384  18.419  0.00  0.00    +0.000 A 
ATOM     21  C   UNL     1      -0.998   9.986  17.747  0.00  0.00    +0.000 A 
ENDBRANCH  11  20
ENDBRANCH  10  13
ENDBRANCH   1  10
BRANCH   9  22
ATOM     22  C   UNL     1       4.743   5.256  17.524  0.00  0.00    +0.000 C 
BRANCH  22  23
ATOM     23  C   UNL     1       6.016   5.981  17.896  0.00  0.00    +0.000 A 
ATOM     24  C   UNL     1       6.930   5.510  18.850  0.00  0.00    +0.000 A 
ATOM     25  C   UNL     1       8.091   6.230  19.142  0.00  0.00    +0.000 A 
ATOM     26  C   UNL     1       8.369   7.415  18.466  0.00  0.00    +0.000 A 
ATOM     27  C   UNL     1       7.497   7.871  17.482  0.00  0.00    +0.000 A 
ATOM     28  C   UNL     1       6.334   7.156  17.194  0.00  0.00    +0.000 A 
ENDBRANCH  22  23
ENDBRANCH   9  22
TORSDOF 5
ENDMDL
MODEL 7
REMARK VINA RESULT:      -8.5      3.295      6.230
REMARK  Name = 
REMARK  6 active torsions:
REMARK  status: ('A' for Active; 'I' for Inactive)
REMARK    1  A    between atoms: C_1  and  C_2
REMARK    2  A    between atoms: C_6  and  C_7
REMARK    3  A    between atoms: N_9  and  C_10
REMARK    4  A    between atoms: C_10  and  C_11
REMARK    5  A    between atoms: N_19  and  C_20
REMARK    6  A    between atoms: C_20  and  C_21
REMARK                            x       y       z     vdW  Elec       q    Type
REMARK                         _______ _______ _______ _____ _____    ______ ____
ROOT
ATOM      1  C   UNL     1       1.164   9.301  19.355  0.00  0.00    +0.000 A 
ATOM      2  N   UNL     1       1.367   8.704  20.519  0.00  0.00    +0.000 NA
ATOM      3  C   UNL     1       0.590   9.372  21.431  0.00  0.00    +0.000 A 
ATOM      4  C   UNL     1       0.433   9.162  22.809  0.00  0.00    +0.000 A 
ATOM      5  C   UNL     1      -0.420  10.009  23.530  0.00  0.00    +0.000 A 
ATOM      6  C   UNL     1      -1.119  11.034  22.892  0.00  0.00    +0.000 A 
ATOM      7  C   UNL     1      -0.986  11.249  21.519  0.00  0.00    +0.000 A 
ATOM      8  C   UNL     1      -0.113  10.404  20.821  0.00  0.00    +0.000 A 
ATOM      9  N   UNL     1       0.263  10.338  19.497  0.00  0.00    +0.000 N 
ENDROOT
BRANCH   1  10
ATOM     10  C   UNL     1       1.812   8.899  18.068  0.00  0.00    +0.000 C 
BRANCH  10  13
ATOM     11  C   UNL     1       3.152   6.834  17.792  0.00  0.00    +0.000 C 
ATOM     12  O   UNL     1       4.212   7.429  17.657  0.00  0.00    +0.000 OA
ATOM     13  N   UNL     1       1.949   7.456  18.024  0.00  0.00    +0.000 N 
ATOM     14  H   UNL     1       1.141   6.916  18.311  0.00  0.00    +0.000 HD
BRANCH  11  20
ATOM     15  C   UNL     1       0.766   2.548  18.757  0.00  0.00    +0.000 C 
ATOM     16  C   UNL     1       1.975   3.266  18.227  0.00  0.00    +0.000 A 
ATOM     17  C   UNL     1       3.078   2.555  17.742  0.00  0.00    +0.000 A 
ATOM     18  C   UNL     1       4.202   3.232  17.259  0.00  0.00    +0.000 A 
ATOM     19  C   UNL     1       4.229   4.629  17.248  0.00  0.00    +0.000 A 
ATOM     20  C   UNL     1       3.130   5.349  17.723  0.00  0.00    +0.000 A 
ATOM     21  C   UNL     1       2.011   4.668  18.221  0.00  0.00    +0.000 A 
ENDBRANCH  11  20
ENDBRANCH  10  13
ENDBRANCH   1  10
BRANCH   9  22
ATOM     22  C   UNL     1      -0.164  11.295  18.485  0.00  0.00    +0.000 C 
BRANCH  22  23
ATOM     23  C   UNL     1      -1.532  11.022  17.903  0.00  0.00    +0.000 A 
ATOM     24  C   UNL     1      -1.795   9.999  16.979  0.00  0.00    +0.000 A 
ATOM     25  C   UNL     1      -3.087   9.799  16.485  0.00  0.00    +0.000 A 
ATOM     26  C   UNL     1      -4.136  10.600  16.925  0.00  0.00    +0.000 A 
ATOM     27  C   UNL     1      -3.902  11.587  17.878  0.00  0.00    +0.000 A 
ATOM     28  C   UNL     1      -2.611  11.791  18.368  0.00  0.00    +0.000 A 
ENDBRANCH  22  23
ENDBRANCH   9  22
TORSDOF 5
ENDMDL
MODEL 8
REMARK VINA RESULT:      -8.5      2.568      7.591
REMARK  Name = 
REMARK  6 active torsions:
REMARK  status: ('A' for Active; 'I' for Inactive)
REMARK    1  A    between atoms: C_1  and  C_2
REMARK    2  A    between atoms: C_6  and  C_7
REMARK    3  A    between atoms: N_9  and  C_10
REMARK    4  A    between atoms: C_10  and  C_11
REMARK    5  A    between atoms: N_19  and  C_20
REMARK    6  A    between atoms: C_20  and  C_21
REMARK                            x       y       z     vdW  Elec       q    Type
REMARK                         _______ _______ _______ _____ _____    ______ ____
ROOT
ATOM      1  C   UNL     1       2.198   6.505  19.743  0.00  0.00    +0.000 A 
ATOM      2  N   UNL     1       1.483   5.635  20.438  0.00  0.00    +0.000 NA
ATOM      3  C   UNL     1       1.589   4.438  19.775  0.00  0.00    +0.000 A 
ATOM      4  C   UNL     1       1.022   3.189  20.071  0.00  0.00    +0.000 A 
ATOM      5  C   UNL     1       1.272   2.112  19.209  0.00  0.00    +0.000 A 
ATOM      6  C   UNL     1       2.084   2.266  18.086  0.00  0.00    +0.000 A 
ATOM      7  C   UNL     1       2.668   3.498  17.784  0.00  0.00    +0.000 A 
ATOM      8  C   UNL     1       2.389   4.566  18.646  0.00  0.00    +0.000 A 
ATOM      9  N   UNL     1       2.772   5.890  18.648  0.00  0.00    +0.000 N 
ENDROOT
BRANCH   1  10
ATOM     10  C   UNL     1       2.369   7.946  20.104  0.00  0.00    +0.000 C 
BRANCH  10  13
ATOM     11  C   UNL     1       0.989   9.480  18.733  0.00  0.00    +0.000 C 
ATOM     12  O   UNL     1       1.845   9.631  17.873  0.00  0.00    +0.000 OA
ATOM     13  N   UNL     1       1.140   8.665  19.829  0.00  0.00    +0.000 N 
ATOM     14  H   UNL     1       0.341   8.432  20.408  0.00  0.00    +0.000 HD
BRANCH  11  20
ATOM     15  C   UNL     1      -3.212  10.287  16.146  0.00  0.00    +0.000 C 
ATOM     16  C   UNL     1      -2.337  10.605  17.325  0.00  0.00    +0.000 A 
ATOM     17  C   UNL     1      -2.702  11.591  18.247  0.00  0.00    +0.000 A 
ATOM     18  C   UNL     1      -1.877  11.884  19.337  0.00  0.00    +0.000 A 
ATOM     19  C   UNL     1      -0.681  11.186  19.520  0.00  0.00    +0.000 A 
ATOM     20  C   UNL     1      -0.309  10.193  18.610  0.00  0.00    +0.000 A 
ATOM     21  C   UNL     1      -1.132   9.912  17.510  0.00  0.00    +0.000 A 
ENDBRANCH  11  20
ENDBRANCH  10  13
ENDBRANCH   1  10
BRANCH   9  22
ATOM     22  C   UNL     1       3.558   6.507  17.588  0.00  0.00    +0.000 C 
BRANCH  22  23
ATOM     23  C   UNL     1       4.923   5.892  17.382  0.00  0.00    +0.000 A 
ATOM     24  C   UNL     1       5.840   5.669  18.420  0.00  0.00    +0.000 A 
ATOM     25  C   UNL     1       7.086   5.092  18.159  0.00  0.00    +0.000 A 
ATOM     26  C   UNL     1       7.421   4.705  16.865  0.00  0.00    +0.000 A 
ATOM     27  C   UNL     1       6.503   4.875  15.832  0.00  0.00    +0.000 A 
ATOM     28  C   UNL     1       5.262   5.457  16.090  0.00  0.00    +0.000 A 
ENDBRANCH  22  23
ENDBRANCH   9  22
TORSDOF 5
ENDMDL
MODEL 9
REMARK VINA RESULT:      -8.5      3.354      7.672
REMARK  Name = 
REMARK  6 active torsions:
REMARK  status: ('A' for Active; 'I' for Inactive)
REMARK    1  A    between atoms: C_1  and  C_2
REMARK    2  A    between atoms: C_6  and  C_7
REMARK    3  A    between atoms: N_9  and  C_10
REMARK    4  A    between atoms: C_10  and  C_11
REMARK    5  A    between atoms: N_19  and  C_20
REMARK    6  A    between atoms: C_20  and  C_21
REMARK                            x       y       z     vdW  Elec       q    Type
REMARK                         _______ _______ _______ _____ _____    ______ ____
ROOT
ATOM      1  C   UNL     1       2.275   6.431  19.534  0.00  0.00    +0.000 A 
ATOM      2  N   UNL     1       1.460   5.640  20.214  0.00  0.00    +0.000 NA
ATOM      3  C   UNL     1       1.557   4.401  19.632  0.00  0.00    +0.000 A 
ATOM      4  C   UNL     1       0.902   3.201  19.950  0.00  0.00    +0.000 A 
ATOM      5  C   UNL     1       1.165   2.062  19.176  0.00  0.00    +0.000 A 
ATOM      6  C   UNL     1       2.073   2.108  18.119  0.00  0.00    +0.000 A 
ATOM      7  C   UNL     1       2.745   3.290  17.797  0.00  0.00    +0.000 A 
ATOM      8  C   UNL     1       2.452   4.421  18.571  0.00  0.00    +0.000 A 
ATOM      9  N   UNL     1       2.903   5.723  18.528  0.00  0.00    +0.000 N 
ENDROOT
BRANCH   1  10
ATOM     10  C   UNL     1       2.492   7.881  19.825  0.00  0.00    +0.000 C 
BRANCH  10  13
ATOM     11  C   UNL     1       1.062   9.381  18.467  0.00  0.00    +0.000 C 
ATOM     12  O   UNL     1       1.869   9.474  17.552  0.00  0.00    +0.000 OA
ATOM     13  N   UNL     1       1.262   8.613  19.589  0.00  0.00    +0.000 N 
ATOM     14  H   UNL     1       0.495   8.424  20.223  0.00  0.00    +0.000 HD
BRANCH  11  20
ATOM     15  C   UNL     1      -2.057  12.762  20.425  0.00  0.00    +0.000 C 
ATOM     16  C   UNL     1      -1.755  11.739  19.366  0.00  0.00    +0.000 A 
ATOM     17  C   UNL     1      -2.689  11.439  18.369  0.00  0.00    +0.000 A 
ATOM     18  C   UNL     1      -2.401  10.480  17.393  0.00  0.00    +0.000 A 
ATOM     19  C   UNL     1      -1.171   9.818  17.400  0.00  0.00    +0.000 A 
ATOM     20  C   UNL     1      -0.228  10.115  18.386  0.00  0.00    +0.000 A 
ATOM     21  C   UNL     1      -0.524  11.066  19.372  0.00  0.00    +0.000 A 
ENDBRANCH  11  20
ENDBRANCH  10  13
ENDBRANCH   1  10
BRANCH   9  22
ATOM     22  C   UNL     1       3.805   6.234  17.505  0.00  0.00    +0.000 C 
BRANCH  22  23
ATOM     23  C   UNL     1       5.259   6.273  17.915  0.00  0.00    +0.000 A 
ATOM     24  C   UNL     1       5.807   5.462  18.921  0.00  0.00    +0.000 A 
ATOM     25  C   UNL     1       7.163   5.547  19.247  0.00  0.00    +0.000 A 
ATOM     26  C   UNL     1       7.995   6.422  18.555  0.00  0.00    +0.000 A 
ATOM     27  C   UNL     1       7.479   7.198  17.521  0.00  0.00    +0.000 A 
ATOM     28  C   UNL     1       6.123   7.118  17.199  0.00  0.00    +0.000 A 
ENDBRANCH  22  23
ENDBRANCH   9  22
TORSDOF 5
ENDMDL
