MODEL 1
REMARK VINA RESULT:      -8.4      0.000      0.000
REMARK  Name = 
REMARK  8 active torsions:
REMARK  status: ('A' for Active; 'I' for Inactive)
REMARK    1  A    between atoms: C_1  and  N_2
REMARK    2  A    between atoms: C_6  and  C_7
REMARK    3  A    between atoms: C_8  and  C_9
REMARK    4  A    between atoms: C_8  and  C_11
REMARK    5  A    between atoms: C_9  and  O_10
REMARK    6  A    between atoms: C_15  and  N_16
REMARK    7  A    between atoms: C_21  and  C_22
REMARK    8  A    between atoms: C_25  and  C_26
REMARK                            x       y       z     vdW  Elec       q    Type
REMARK                         _______ _______ _______ _____ _____    ______ ____
ROOT
ATOM      1  C   UNL     1       1.846   8.186  19.257  0.00  0.00    +0.000 A 
ATOM      2  C   UNL     1       2.474   8.862  18.203  0.00  0.00    +0.000 A 
ATOM      3  C   UNL     1       3.189   8.150  17.246  0.00  0.00    +0.000 A 
ATOM      4  C   UNL     1       3.368   6.778  17.393  0.00  0.00    +0.000 A 
ATOM      5  C   UNL     1       2.943   6.144  18.572  0.00  0.00    +0.000 A 
ATOM      6  C   UNL     1       2.043   6.810  19.412  0.00  0.00    +0.000 A 
ENDROOT
BRANCH   5   7
ATOM      7  N   UNL     1       3.772   5.096  19.166  0.00  0.00    +0.000 N 
ATOM      8  C   UNL     1       5.167   5.583  19.338  0.00  0.00    +0.000 C 
ATOM      9  C   UNL     1       5.788   5.199  18.027  0.00  0.00    +0.000 A 
ATOM     10  C   UNL     1       5.103   4.073  17.562  0.00  0.00    +0.000 A 
ATOM     11  C   UNL     1       5.279   3.552  16.290  0.00  0.00    +0.000 A 
ATOM     12  C   UNL     1       6.161   4.219  15.432  0.00  0.00    +0.000 A 
ATOM     13  C   UNL     1       6.852   5.364  15.896  0.00  0.00    +0.000 A 
ATOM     14  C   UNL     1       6.679   5.875  17.202  0.00  0.00    +0.000 A 
ATOM     15  C   UNL     1       3.892   3.905  18.402  0.00  0.00    +0.000 C 
ATOM     16  O   UNL     1       3.082   3.008  18.258  0.00  0.00    +0.000 OA
BRANCH  14  17
ATOM     17  C   UNL     1       7.347   7.175  17.576  0.00  0.00    +0.000 C 
ATOM     18  F   UNL     1       8.091   7.112  18.711  0.00  0.00    +0.000 F 
ATOM     19  F   UNL     1       8.195   7.612  16.605  0.00  0.00    +0.000 F 
ATOM     20  F   UNL     1       6.450   8.181  17.770  0.00  0.00    +0.000 F 
ENDBRANCH  14  17
BRANCH  12  21
ATOM     21  C   UNL     1       6.285   3.776  13.997  0.00  0.00    +0.000 C 
ATOM     22  F   UNL     1       5.160   4.010  13.263  0.00  0.00    +0.000 F 
ENDBRANCH  12  21
ENDBRANCH   5   7
BRANCH   1  24
ATOM     23  C   UNL     1       0.717  10.197  19.997  0.00  0.00    +0.000 C 
ATOM     24  C   UNL     1       1.154   8.960  20.309  0.00  0.00    +0.000 C 
BRANCH  23  30
ATOM     25  C   UNL     1      -1.876  11.725  19.423  0.00  0.00    +0.000 C 
ATOM     26  N   UNL     1      -1.076  11.747  20.623  0.00  0.00    +0.000 N 
ATOM     27  C   UNL     1      -1.381  12.491  21.725  0.00  0.00    +0.000 A 
ATOM     28  N   UNL     1      -0.494  12.272  22.664  0.00  0.00    +0.000 NA
ATOM     29  N   UNL     1       0.404  11.365  22.169  0.00  0.00    +0.000 NA
ATOM     30  C   UNL     1       0.075  11.054  20.926  0.00  0.00    +0.000 A 
ENDBRANCH  23  30
BRANCH  24  31
ATOM     31  C   UNL     1       1.081   8.233  21.632  0.00  0.00    +0.000 C 
BRANCH  31  32
ATOM     32  O   UNL     1       2.015   8.824  22.530  0.00  0.00    +0.000 OA
ATOM     33  H   UNL     1       2.363   9.603  22.062  0.00  0.00    +0.000 HD
ENDBRANCH  31  32
ENDBRANCH  24  31
ENDBRANCH   1  24
TORSDOF 7
ENDMDL
MODEL 2
REMARK VINA RESULT:      -8.0      4.031      8.836
REMARK  Name = 
REMARK  8 active torsions:
REMARK  status: ('A' for Active; 'I' for Inactive)
REMARK    1  A    between atoms: C_1  and  N_2
REMARK    2  A    between atoms: C_6  and  C_7
REMARK    3  A    between atoms: C_8  and  C_9
REMARK    4  A    between atoms: C_8  and  C_11
REMARK    5  A    between atoms: C_9  and  O_10
REMARK    6  A    between atoms: C_15  and  N_16
REMARK    7  A    between atoms: C_21  and  C_22
REMARK    8  A    between atoms: C_25  and  C_26
REMARK                            x       y       z     vdW  Elec       q    Type
REMARK                         _______ _______ _______ _____ _____    ______ ____
ROOT
ATOM      1  C   UNL     1       2.254   6.940  19.583  0.00  0.00    +0.000 A 
ATOM      2  C   UNL     1       2.292   7.425  18.270  0.00  0.00    +0.000 A 
ATOM      3  C   UNL     1       1.894   8.730  17.997  0.00  0.00    +0.000 A 
ATOM      4  C   UNL     1       1.359   9.518  19.012  0.00  0.00    +0.000 A 
ATOM      5  C   UNL     1       1.100   8.950  20.270  0.00  0.00    +0.000 A 
ATOM      6  C   UNL     1       1.698   7.728  20.597  0.00  0.00    +0.000 A 
ENDROOT
BRANCH   5   7
ATOM      7  N   UNL     1      -0.118   9.320  20.991  0.00  0.00    +0.000 N 
ATOM      8  C   UNL     1      -1.286   9.289  20.071  0.00  0.00    +0.000 C 
ATOM      9  C   UNL     1      -1.290  10.692  19.537  0.00  0.00    +0.000 A 
ATOM     10  C   UNL     1      -0.733  11.509  20.524  0.00  0.00    +0.000 A 
ATOM     11  C   UNL     1      -0.404  12.838  20.310  0.00  0.00    +0.000 A 
ATOM     12  C   UNL     1      -0.613  13.359  19.028  0.00  0.00    +0.000 A 
ATOM     13  C   UNL     1      -1.171  12.534  18.022  0.00  0.00    +0.000 A 
ATOM     14  C   UNL     1      -1.520  11.185  18.258  0.00  0.00    +0.000 A 
ATOM     15  C   UNL     1      -0.125  10.625  21.549  0.00  0.00    +0.000 C 
ATOM     16  O   UNL     1       0.440  11.029  22.549  0.00  0.00    +0.000 OA
BRANCH  14  17
ATOM     17  C   UNL     1      -1.982  10.333  17.101  0.00  0.00    +0.000 C 
ATOM     18  F   UNL     1      -1.107   9.358  16.743  0.00  0.00    +0.000 F 
ATOM     19  F   UNL     1      -3.153   9.695  17.373  0.00  0.00    +0.000 F 
ATOM     20  F   UNL     1      -2.209  11.067  15.976  0.00  0.00    +0.000 F 
ENDBRANCH  14  17
BRANCH  12  21
ATOM     21  C   UNL     1      -0.146  14.755  18.704  0.00  0.00    +0.000 C 
ATOM     22  F   UNL     1       1.209  14.856  18.592  0.00  0.00    +0.000 F 
ENDBRANCH  12  21
ENDBRANCH   5   7
BRANCH   1  24
ATOM     23  C   UNL     1       3.566   4.966  19.087  0.00  0.00    +0.000 C 
ATOM     24  C   UNL     1       2.607   5.530  19.849  0.00  0.00    +0.000 C 
BRANCH  23  30
ATOM     25  C   UNL     1       2.288   2.638  17.558  0.00  0.00    +0.000 C 
ATOM     26  N   UNL     1       3.351   2.588  18.530  0.00  0.00    +0.000 N 
ATOM     27  C   UNL     1       3.965   1.435  18.924  0.00  0.00    +0.000 A 
ATOM     28  N   UNL     1       4.914   1.713  19.783  0.00  0.00    +0.000 NA
ATOM     29  N   UNL     1       4.924   3.071  19.952  0.00  0.00    +0.000 NA
ATOM     30  C   UNL     1       3.968   3.612  19.214  0.00  0.00    +0.000 A 
ENDBRANCH  23  30
BRANCH  24  31
ATOM     31  C   UNL     1       1.774   4.903  20.943  0.00  0.00    +0.000 C 
BRANCH  31  32
ATOM     32  O   UNL     1       0.683   4.209  20.348  0.00  0.00    +0.000 OA
ATOM     33  H   UNL     1       0.793   4.332  19.389  0.00  0.00    +0.000 HD
ENDBRANCH  31  32
ENDBRANCH  24  31
ENDBRANCH   1  24
TORSDOF 7
ENDMDL
MODEL 3
REMARK VINA RESULT:      -7.7      5.416     10.397
REMARK  Name = 
REMARK  8 active torsions:
REMARK  status: ('A' for Active; 'I' for Inactive)
REMARK    1  A    between atoms: C_1  and  N_2
REMARK    2  A    between atoms: C_6  and  C_7
REMARK    3  A    between atoms: C_8  and  C_9
REMARK    4  A    between atoms: C_8  and  C_11
REMARK    5  A    between atoms: C_9  and  O_10
REMARK    6  A    between atoms: C_15  and  N_16
REMARK    7  A    between atoms: C_21  and  C_22
REMARK    8  A    between atoms: C_25  and  C_26
REMARK                            x       y       z     vdW  Elec       q    Type
REMARK                         _______ _______ _______ _____ _____    ______ ____
ROOT
ATOM      1  C   UNL     1       0.667   9.216  20.319  0.00  0.00    +0.000 A 
ATOM      2  C   UNL     1       1.014   8.905  21.639  0.00  0.00    +0.000 A 
ATOM      3  C   UNL     1       0.394   9.562  22.697  0.00  0.00    +0.000 A 
ATOM      4  C   UNL     1      -0.494  10.602  22.442  0.00  0.00    +0.000 A 
ATOM      5  C   UNL     1      -0.657  11.070  21.127  0.00  0.00    +0.000 A 
ATOM      6  C   UNL     1      -0.213  10.274  20.065  0.00  0.00    +0.000 A 
ENDROOT
BRANCH   5   7
ATOM      7  N   UNL     1      -0.791  12.506  20.885  0.00  0.00    +0.000 N 
ATOM      8  C   UNL     1      -1.462  13.159  22.040  0.00  0.00    +0.000 C 
ATOM      9  C   UNL     1      -2.908  13.057  21.651  0.00  0.00    +0.000 A 
ATOM     10  C   UNL     1      -2.958  13.050  20.254  0.00  0.00    +0.000 A 
ATOM     11  C   UNL     1      -4.113  12.778  19.539  0.00  0.00    +0.000 A 
ATOM     12  C   UNL     1      -5.266  12.461  20.266  0.00  0.00    +0.000 A 
ATOM     13  C   UNL     1      -5.219  12.460  21.681  0.00  0.00    +0.000 A 
ATOM     14  C   UNL     1      -4.040  12.757  22.400  0.00  0.00    +0.000 A 
ATOM     15  C   UNL     1      -1.573  12.866  19.756  0.00  0.00    +0.000 C 
ATOM     16  O   UNL     1      -1.273  12.822  18.577  0.00  0.00    +0.000 OA
BRANCH  14  17
ATOM     17  C   UNL     1      -4.035  12.602  23.901  0.00  0.00    +0.000 C 
ATOM     18  F   UNL     1      -3.310  11.545  24.350  0.00  0.00    +0.000 F 
ATOM     19  F   UNL     1      -3.517  13.695  24.525  0.00  0.00    +0.000 F 
ATOM     20  F   UNL     1      -5.289  12.441  24.409  0.00  0.00    +0.000 F 
ENDBRANCH  14  17
BRANCH  12  21
ATOM     21  C   UNL     1      -6.512  12.024  19.539  0.00  0.00    +0.000 C 
ATOM     22  F   UNL     1      -6.254  11.450  18.330  0.00  0.00    +0.000 F 
ENDBRANCH  12  21
ENDBRANCH   5   7
BRANCH   1  24
ATOM     23  C   UNL     1       2.230   7.557  19.501  0.00  0.00    +0.000 C 
ATOM     24  C   UNL     1       1.386   8.565  19.204  0.00  0.00    +0.000 C 
BRANCH  23  30
ATOM     25  C   UNL     1       2.045   4.550  18.939  0.00  0.00    +0.000 C 
ATOM     26  N   UNL     1       2.916   5.520  18.323  0.00  0.00    +0.000 N 
ATOM     27  C   UNL     1       3.827   5.214  17.354  0.00  0.00    +0.000 A 
ATOM     28  N   UNL     1       4.439   6.305  16.964  0.00  0.00    +0.000 NA
ATOM     29  N   UNL     1       3.916   7.343  17.687  0.00  0.00    +0.000 NA
ATOM     30  C   UNL     1       3.007   6.878  18.529  0.00  0.00    +0.000 A 
ENDBRANCH  23  30
BRANCH  24  31
ATOM     31  C   UNL     1       1.086   9.186  17.859  0.00  0.00    +0.000 C 
BRANCH  31  32
ATOM     32  O   UNL     1       2.150  10.066  17.513  0.00  0.00    +0.000 OA
ATOM     33  H   UNL     1       2.569   9.667  16.730  0.00  0.00    +0.000 HD
ENDBRANCH  31  32
ENDBRANCH  24  31
ENDBRANCH   1  24
TORSDOF 7
ENDMDL
MODEL 4
REMARK VINA RESULT:      -7.6      6.696      9.241
REMARK  Name = 
REMARK  8 active torsions:
REMARK  status: ('A' for Active; 'I' for Inactive)
REMARK    1  A    between atoms: C_1  and  N_2
REMARK    2  A    between atoms: C_6  and  C_7
REMARK    3  A    between atoms: C_8  and  C_9
REMARK    4  A    between atoms: C_8  and  C_11
REMARK    5  A    between atoms: C_9  and  O_10
REMARK    6  A    between atoms: C_15  and  N_16
REMARK    7  A    between atoms: C_21  and  C_22
REMARK    8  A    between atoms: C_25  and  C_26
REMARK                            x       y       z     vdW  Elec       q    Type
REMARK                         _______ _______ _______ _____ _____    ______ ____
ROOT
ATOM      1  C   UNL     1      -3.926  10.988  18.220  0.00  0.00    +0.000 A 
ATOM      2  C   UNL     1      -4.005  10.608  16.874  0.00  0.00    +0.000 A 
ATOM      3  C   UNL     1      -2.886  10.096  16.227  0.00  0.00    +0.000 A 
ATOM      4  C   UNL     1      -1.660  10.059  16.886  0.00  0.00    +0.000 A 
ATOM      5  C   UNL     1      -1.531  10.662  18.148  0.00  0.00    +0.000 A 
ATOM      6  C   UNL     1      -2.688  10.967  18.873  0.00  0.00    +0.000 A 
ENDROOT
BRANCH   5   7
ATOM      7  N   UNL     1      -0.315  11.408  18.470  0.00  0.00    +0.000 N 
ATOM      8  C   UNL     1       0.472  10.682  19.501  0.00  0.00    +0.000 C 
ATOM      9  C   UNL     1      -0.094  11.246  20.771  0.00  0.00    +0.000 A 
ATOM     10  C   UNL     1      -0.537  12.540  20.484  0.00  0.00    +0.000 A 
ATOM     11  C   UNL     1      -1.288  13.297  21.369  0.00  0.00    +0.000 A 
ATOM     12  C   UNL     1      -1.641  12.708  22.589  0.00  0.00    +0.000 A 
ATOM     13  C   UNL     1      -1.201  11.394  22.882  0.00  0.00    +0.000 A 
ATOM     14  C   UNL     1      -0.420  10.639  21.979  0.00  0.00    +0.000 A 
ATOM     15  C   UNL     1      -0.519  12.704  19.010  0.00  0.00    +0.000 C 
ATOM     16  O   UNL     1      -0.844  13.727  18.435  0.00  0.00    +0.000 OA
BRANCH  14  17
ATOM     17  C   UNL     1      -0.105   9.200  22.305  0.00  0.00    +0.000 C 
ATOM     18  F   UNL     1      -0.804   8.296  21.571  0.00  0.00    +0.000 F 
ATOM     19  F   UNL     1       1.207   8.905  22.099  0.00  0.00    +0.000 F 
ATOM     20  F   UNL     1      -0.355   8.899  23.610  0.00  0.00    +0.000 F 
ENDBRANCH  14  17
BRANCH  12  21
ATOM     21  C   UNL     1      -2.569  13.434  23.529  0.00  0.00    +0.000 C 
ATOM     22  F   UNL     1      -3.365  12.595  24.252  0.00  0.00    +0.000 F 
ENDBRANCH  12  21
ENDBRANCH   5   7
BRANCH   1  24
ATOM     23  C   UNL     1      -4.919  12.179  20.079  0.00  0.00    +0.000 C 
ATOM     24  C   UNL     1      -5.100  11.601  18.875  0.00  0.00    +0.000 C 
BRANCH  23  30
ATOM     25  C   UNL     1      -5.922  15.048  19.687  0.00  0.00    +0.000 C 
ATOM     26  N   UNL     1      -6.376  14.068  20.643  0.00  0.00    +0.000 N 
ATOM     27  C   UNL     1      -7.368  14.298  21.552  0.00  0.00    +0.000 A 
ATOM     28  N   UNL     1      -7.584  13.212  22.251  0.00  0.00    +0.000 NA
ATOM     29  N   UNL     1      -6.723  12.254  21.789  0.00  0.00    +0.000 NA
ATOM     30  C   UNL     1      -5.970  12.765  20.828  0.00  0.00    +0.000 A 
ENDBRANCH  23  30
BRANCH  24  31
ATOM     31  C   UNL     1      -6.377  11.438  18.083  0.00  0.00    +0.000 C 
BRANCH  31  32
ATOM     32  O   UNL     1      -7.099  10.326  18.603  0.00  0.00    +0.000 OA
ATOM     33  H   UNL     1      -7.284   9.758  17.834  0.00  0.00    +0.000 HD
ENDBRANCH  31  32
ENDBRANCH  24  31
ENDBRANCH   1  24
TORSDOF 7
ENDMDL
MODEL 5
REMARK VINA RESULT:      -7.6      3.915      8.946
REMARK  Name = 
REMARK  8 active torsions:
REMARK  status: ('A' for Active; 'I' for Inactive)
REMARK    1  A    between atoms: C_1  and  N_2
REMARK    2  A    between atoms: C_6  and  C_7
REMARK    3  A    between atoms: C_8  and  C_9
REMARK    4  A    between atoms: C_8  and  C_11
REMARK    5  A    between atoms: C_9  and  O_10
REMARK    6  A    between atoms: C_15  and  N_16
REMARK    7  A    between atoms: C_21  and  C_22
REMARK    8  A    between atoms: C_25  and  C_26
REMARK                            x       y       z     vdW  Elec       q    Type
REMARK                         _______ _______ _______ _____ _____    ______ ____
ROOT
ATOM      1  C   UNL     1       2.062   7.367  19.342  0.00  0.00    +0.000 A 
ATOM      2  C   UNL     1       2.250   8.087  18.156  0.00  0.00    +0.000 A 
ATOM      3  C   UNL     1       1.995   9.454  18.122  0.00  0.00    +0.000 A 
ATOM      4  C   UNL     1       1.453  10.086  19.237  0.00  0.00    +0.000 A 
ATOM      5  C   UNL     1       1.043   9.318  20.340  0.00  0.00    +0.000 A 
ATOM      6  C   UNL     1       1.500   8.001  20.456  0.00  0.00    +0.000 A 
ENDROOT
BRANCH   5   7
ATOM      7  N   UNL     1      -0.191   9.670  21.043  0.00  0.00    +0.000 N 
ATOM      8  C   UNL     1      -1.345   9.616  20.108  0.00  0.00    +0.000 C 
ATOM      9  C   UNL     1      -1.367  11.016  19.569  0.00  0.00    +0.000 A 
ATOM     10  C   UNL     1      -0.837  11.847  20.561  0.00  0.00    +0.000 A 
ATOM     11  C   UNL     1      -0.529  13.180  20.346  0.00  0.00    +0.000 A 
ATOM     12  C   UNL     1      -0.729  13.694  19.060  0.00  0.00    +0.000 A 
ATOM     13  C   UNL     1      -1.259  12.855  18.050  0.00  0.00    +0.000 A 
ATOM     14  C   UNL     1      -1.588  11.501  18.285  0.00  0.00    +0.000 A 
ATOM     15  C   UNL     1      -0.228  10.977  21.596  0.00  0.00    +0.000 C 
ATOM     16  O   UNL     1       0.317  11.394  22.602  0.00  0.00    +0.000 OA
BRANCH  14  17
ATOM     17  C   UNL     1      -2.020  10.637  17.126  0.00  0.00    +0.000 C 
ATOM     18  F   UNL     1      -2.198  11.315  15.962  0.00  0.00    +0.000 F 
ATOM     19  F   UNL     1      -1.112   9.663  16.849  0.00  0.00    +0.000 F 
ATOM     20  F   UNL     1      -3.196   9.994  17.370  0.00  0.00    +0.000 F 
ENDBRANCH  14  17
BRANCH  12  21
ATOM     21  C   UNL     1      -0.283  15.097  18.737  0.00  0.00    +0.000 C 
ATOM     22  F   UNL     1       1.073  15.244  18.745  0.00  0.00    +0.000 F 
ENDBRANCH  12  21
ENDBRANCH   5   7
BRANCH   1  24
ATOM     23  C   UNL     1       2.576   5.307  18.177  0.00  0.00    +0.000 C 
ATOM     24  C   UNL     1       2.263   5.903  19.345  0.00  0.00    +0.000 C 
BRANCH  23  30
ATOM     25  C   UNL     1       5.118   3.806  18.999  0.00  0.00    +0.000 C 
ATOM     26  N   UNL     1       3.923   3.271  18.395  0.00  0.00    +0.000 N 
ATOM     27  C   UNL     1       3.754   1.952  18.089  0.00  0.00    +0.000 A 
ATOM     28  N   UNL     1       2.557   1.766  17.590  0.00  0.00    +0.000 NA
ATOM     29  N   UNL     1       1.931   2.983  17.573  0.00  0.00    +0.000 NA
ATOM     30  C   UNL     1       2.755   3.908  18.038  0.00  0.00    +0.000 A 
ENDBRANCH  23  30
BRANCH  24  31
ATOM     31  C   UNL     1       2.033   5.273  20.699  0.00  0.00    +0.000 C 
BRANCH  31  32
ATOM     32  O   UNL     1       0.869   4.456  20.632  0.00  0.00    +0.000 OA
ATOM     33  H   UNL     1       0.799   4.036  21.508  0.00  0.00    +0.000 HD
ENDBRANCH  31  32
ENDBRANCH  24  31
ENDBRANCH   1  24
TORSDOF 7
ENDMDL
MODEL 6
REMARK VINA RESULT:      -7.6      4.072      8.924
REMARK  Name = 
REMARK  8 active torsions:
REMARK  status: ('A' for Active; 'I' for Inactive)
REMARK    1  A    between atoms: C_1  and  N_2
REMARK    2  A    between atoms: C_6  and  C_7
REMARK    3  A    between atoms: C_8  and  C_9
REMARK    4  A    between atoms: C_8  and  C_11
REMARK    5  A    between atoms: C_9  and  O_10
REMARK    6  A    between atoms: C_15  and  N_16
REMARK    7  A    between atoms: C_21  and  C_22
REMARK    8  A    between atoms: C_25  and  C_26
REMARK                            x       y       z     vdW  Elec       q    Type
REMARK                         _______ _______ _______ _____ _____    ______ ____
ROOT
ATOM      1  C   UNL     1       2.443   7.447  18.960  0.00  0.00    +0.000 A 
ATOM      2  C   UNL     1       2.436   8.249  17.812  0.00  0.00    +0.000 A 
ATOM      3  C   UNL     1       1.971   9.558  17.879  0.00  0.00    +0.000 A 
ATOM      4  C   UNL     1       1.414  10.036  19.062  0.00  0.00    +0.000 A 
ATOM      5  C   UNL     1       1.204   9.156  20.137  0.00  0.00    +0.000 A 
ATOM      6  C   UNL     1       1.867   7.924  20.142  0.00  0.00    +0.000 A 
ENDROOT
BRANCH   5   7
ATOM      7  N   UNL     1      -0.019   9.270  20.932  0.00  0.00    +0.000 N 
ATOM      8  C   UNL     1      -1.210   9.260  20.042  0.00  0.00    +0.000 C 
ATOM      9  C   UNL     1      -1.381  10.722  19.746  0.00  0.00    +0.000 A 
ATOM     10  C   UNL     1      -0.876  11.425  20.843  0.00  0.00    +0.000 A 
ATOM     11  C   UNL     1      -0.697  12.799  20.845  0.00  0.00    +0.000 A 
ATOM     12  C   UNL     1      -1.006  13.495  19.670  0.00  0.00    +0.000 A 
ATOM     13  C   UNL     1      -1.511  12.786  18.553  0.00  0.00    +0.000 A 
ATOM     14  C   UNL     1      -1.708  11.387  18.570  0.00  0.00    +0.000 A 
ATOM     15  C   UNL     1      -0.142  10.459  21.696  0.00  0.00    +0.000 C 
ATOM     16  O   UNL     1       0.414  10.756  22.738  0.00  0.00    +0.000 OA
BRANCH  14  17
ATOM     17  C   UNL     1      -2.121  10.688  17.298  0.00  0.00    +0.000 C 
ATOM     18  F   UNL     1      -1.238   9.751  16.866  0.00  0.00    +0.000 F 
ATOM     19  F   UNL     1      -3.309  10.038  17.435  0.00  0.00    +0.000 F 
ATOM     20  F   UNL     1      -2.286  11.555  16.261  0.00  0.00    +0.000 F 
ENDBRANCH  14  17
BRANCH  12  21
ATOM     21  C   UNL     1      -0.701  14.967  19.572  0.00  0.00    +0.000 C 
ATOM     22  F   UNL     1      -0.138  15.320  18.381  0.00  0.00    +0.000 F 
ENDBRANCH  12  21
ENDBRANCH   5   7
BRANCH   1  24
ATOM     23  C   UNL     1       1.963   5.132  18.435  0.00  0.00    +0.000 C 
ATOM     24  C   UNL     1       2.869   6.035  18.860  0.00  0.00    +0.000 C 
BRANCH  23  30
ATOM     25  C   UNL     1       1.186   3.066  20.560  0.00  0.00    +0.000 C 
ATOM     26  N   UNL     1       1.893   2.848  19.322  0.00  0.00    +0.000 N 
ATOM     27  C   UNL     1       2.337   1.626  18.907  0.00  0.00    +0.000 A 
ATOM     28  N   UNL     1       2.903   1.740  17.731  0.00  0.00    +0.000 NA
ATOM     29  N   UNL     1       2.825   3.058  17.369  0.00  0.00    +0.000 NA
ATOM     30  C   UNL     1       2.233   3.744  18.334  0.00  0.00    +0.000 A 
ENDBRANCH  23  30
BRANCH  24  31
ATOM     31  C   UNL     1       4.294   5.810  19.310  0.00  0.00    +0.000 C 
BRANCH  31  32
ATOM     32  O   UNL     1       5.051   5.321  18.207  0.00  0.00    +0.000 OA
ATOM     33  H   UNL     1       5.098   6.064  17.579  0.00  0.00    +0.000 HD
ENDBRANCH  31  32
ENDBRANCH  24  31
ENDBRANCH   1  24
TORSDOF 7
ENDMDL
MODEL 7
REMARK VINA RESULT:      -7.6      5.604     10.424
REMARK  Name = 
REMARK  8 active torsions:
REMARK  status: ('A' for Active; 'I' for Inactive)
REMARK    1  A    between atoms: C_1  and  N_2
REMARK    2  A    between atoms: C_6  and  C_7
REMARK    3  A    between atoms: C_8  and  C_9
REMARK    4  A    between atoms: C_8  and  C_11
REMARK    5  A    between atoms: C_9  and  O_10
REMARK    6  A    between atoms: C_15  and  N_16
REMARK    7  A    between atoms: C_21  and  C_22
REMARK    8  A    between atoms: C_25  and  C_26
REMARK                            x       y       z     vdW  Elec       q    Type
REMARK                         _______ _______ _______ _____ _____    ______ ____
ROOT
ATOM      1  C   UNL     1       0.548   8.981  20.983  0.00  0.00    +0.000 A 
ATOM      2  C   UNL     1       0.721   8.919  22.371  0.00  0.00    +0.000 A 
ATOM      3  C   UNL     1      -0.042   9.729  23.206  0.00  0.00    +0.000 A 
ATOM      4  C   UNL     1      -0.902  10.676  22.656  0.00  0.00    +0.000 A 
ATOM      5  C   UNL     1      -0.895  10.900  21.269  0.00  0.00    +0.000 A 
ATOM      6  C   UNL     1      -0.303   9.946  20.433  0.00  0.00    +0.000 A 
ENDROOT
BRANCH   5   7
ATOM      7  N   UNL     1      -1.013  12.265  20.760  0.00  0.00    +0.000 N 
ATOM      8  C   UNL     1      -1.692  13.128  21.762  0.00  0.00    +0.000 C 
ATOM      9  C   UNL     1      -3.134  12.963  21.380  0.00  0.00    +0.000 A 
ATOM     10  C   UNL     1      -3.167  12.694  20.009  0.00  0.00    +0.000 A 
ATOM     11  C   UNL     1      -4.316  12.300  19.343  0.00  0.00    +0.000 A 
ATOM     12  C   UNL     1      -5.481  12.133  20.101  0.00  0.00    +0.000 A 
ATOM     13  C   UNL     1      -5.451  12.398  21.491  0.00  0.00    +0.000 A 
ATOM     14  C   UNL     1      -4.277  12.817  22.157  0.00  0.00    +0.000 A 
ATOM     15  C   UNL     1      -1.778  12.411  19.573  0.00  0.00    +0.000 C 
ATOM     16  O   UNL     1      -1.465  12.144  18.427  0.00  0.00    +0.000 OA
BRANCH  14  17
ATOM     17  C   UNL     1      -4.292  12.948  23.660  0.00  0.00    +0.000 C 
ATOM     18  F   UNL     1      -5.528  12.854  24.215  0.00  0.00    +0.000 F 
ATOM     19  F   UNL     1      -3.543  11.985  24.264  0.00  0.00    +0.000 F 
ATOM     20  F   UNL     1      -3.780  14.138  24.081  0.00  0.00    +0.000 F 
ENDBRANCH  14  17
BRANCH  12  21
ATOM     21  C   UNL     1      -6.722  11.575  19.452  0.00  0.00    +0.000 C 
ATOM     22  F   UNL     1      -6.487  10.441  18.731  0.00  0.00    +0.000 F 
ENDBRANCH  12  21
ENDBRANCH   5   7
BRANCH   1  24
ATOM     23  C   UNL     1       1.651   6.891  20.455  0.00  0.00    +0.000 C 
ATOM     24  C   UNL     1       1.416   8.171  20.104  0.00  0.00    +0.000 C 
BRANCH  23  30
ATOM     25  C   UNL     1       1.104   3.906  20.029  0.00  0.00    +0.000 C 
ATOM     26  N   UNL     1       2.232   4.679  19.572  0.00  0.00    +0.000 N 
ATOM     27  C   UNL     1       3.266   4.158  18.850  0.00  0.00    +0.000 A 
ATOM     28  N   UNL     1       4.116   5.109  18.548  0.00  0.00    +0.000 NA
ATOM     29  N   UNL     1       3.627   6.272  19.079  0.00  0.00    +0.000 NA
ATOM     30  C   UNL     1       2.497   6.022  19.720  0.00  0.00    +0.000 A 
ENDBRANCH  23  30
BRANCH  24  31
ATOM     31  C   UNL     1       1.963   8.947  18.928  0.00  0.00    +0.000 C 
BRANCH  31  32
ATOM     32  O   UNL     1       1.532   8.319  17.725  0.00  0.00    +0.000 OA
ATOM     33  H   UNL     1       1.634   7.364  17.883  0.00  0.00    +0.000 HD
ENDBRANCH  31  32
ENDBRANCH  24  31
ENDBRANCH   1  24
TORSDOF 7
ENDMDL
MODEL 8
REMARK VINA RESULT:      -7.5      4.113      8.823
REMARK  Name = 
REMARK  8 active torsions:
REMARK  status: ('A' for Active; 'I' for Inactive)
REMARK    1  A    between atoms: C_1  and  N_2
REMARK    2  A    between atoms: C_6  and  C_7
REMARK    3  A    between atoms: C_8  and  C_9
REMARK    4  A    between atoms: C_8  and  C_11
REMARK    5  A    between atoms: C_9  and  O_10
REMARK    6  A    between atoms: C_15  and  N_16
REMARK    7  A    between atoms: C_21  and  C_22
REMARK    8  A    between atoms: C_25  and  C_26
REMARK                            x       y       z     vdW  Elec       q    Type
REMARK                         _______ _______ _______ _____ _____    ______ ____
ROOT
ATOM      1  C   UNL     1       2.395   7.152  18.995  0.00  0.00    +0.000 A 
ATOM      2  C   UNL     1       2.410   7.873  17.795  0.00  0.00    +0.000 A 
ATOM      3  C   UNL     1       2.005   9.204  17.776  0.00  0.00    +0.000 A 
ATOM      4  C   UNL     1       1.487   9.787  18.929  0.00  0.00    +0.000 A 
ATOM      5  C   UNL     1       1.251   8.994  20.064  0.00  0.00    +0.000 A 
ATOM      6  C   UNL     1       1.857   7.735  20.147  0.00  0.00    +0.000 A 
ENDROOT
BRANCH   5   7
ATOM      7  N   UNL     1       0.046   9.218  20.862  0.00  0.00    +0.000 N 
ATOM      8  C   UNL     1      -1.156   9.202  19.987  0.00  0.00    +0.000 C 
ATOM      9  C   UNL     1      -1.266  10.646  19.592  0.00  0.00    +0.000 A 
ATOM     10  C   UNL     1      -0.714  11.400  20.632  0.00  0.00    +0.000 A 
ATOM     11  C   UNL     1      -0.473  12.760  20.536  0.00  0.00    +0.000 A 
ATOM     12  C   UNL     1      -0.766  13.387  19.320  0.00  0.00    +0.000 A 
ATOM     13  C   UNL     1      -1.318  12.627  18.260  0.00  0.00    +0.000 A 
ATOM     14  C   UNL     1      -1.578  11.243  18.376  0.00  0.00    +0.000 A 
ATOM     15  C   UNL     1      -0.013  10.462  21.543  0.00  0.00    +0.000 C 
ATOM     16  O   UNL     1       0.570  10.804  22.556  0.00  0.00    +0.000 OA
BRANCH  14  17
ATOM     17  C   UNL     1      -2.039  10.477  17.160  0.00  0.00    +0.000 C 
ATOM     18  F   UNL     1      -3.204   9.802  17.336  0.00  0.00    +0.000 F 
ATOM     19  F   UNL     1      -2.244  11.293  16.090  0.00  0.00    +0.000 F 
ATOM     20  F   UNL     1      -1.125   9.552  16.754  0.00  0.00    +0.000 F 
ENDBRANCH  14  17
BRANCH  12  21
ATOM     21  C   UNL     1      -0.396  14.834  19.116  0.00  0.00    +0.000 C 
ATOM     22  F   UNL     1       0.812  14.998  18.504  0.00  0.00    +0.000 F 
ENDBRANCH  12  21
ENDBRANCH   5   7
BRANCH   1  24
ATOM     23  C   UNL     1       3.407   5.228  20.061  0.00  0.00    +0.000 C 
ATOM     24  C   UNL     1       2.755   5.719  18.988  0.00  0.00    +0.000 C 
BRANCH  23  30
ATOM     25  C   UNL     1       1.898   3.037  21.581  0.00  0.00    +0.000 C 
ATOM     26  N   UNL     1       3.151   2.930  20.876  0.00  0.00    +0.000 N 
ATOM     27  C   UNL     1       3.875   1.777  20.786  0.00  0.00    +0.000 A 
ATOM     28  N   UNL     1       4.940   1.982  20.051  0.00  0.00    +0.000 NA
ATOM     29  N   UNL     1       4.910   3.290  19.651  0.00  0.00    +0.000 NA
ATOM     30  C   UNL     1       3.842   3.882  20.161  0.00  0.00    +0.000 A 
ENDBRANCH  23  30
BRANCH  24  31
ATOM     31  C   UNL     1       2.362   5.012  17.712  0.00  0.00    +0.000 C 
BRANCH  31  32
ATOM     32  O   UNL     1       1.235   4.182  17.976  0.00  0.00    +0.000 OA
ATOM     33  H   UNL     1       0.918   4.454  18.856  0.00  0.00    +0.000 HD
ENDBRANCH  31  32
ENDBRANCH  24  31
ENDBRANCH   1  24
TORSDOF 7
ENDMDL
MODEL 9
REMARK VINA RESULT:      -7.4      4.952      9.504
REMARK  Name = 
REMARK  8 active torsions:
REMARK  status: ('A' for Active; 'I' for Inactive)
REMARK    1  A    between atoms: C_1  and  N_2
REMARK    2  A    between atoms: C_6  and  C_7
REMARK    3  A    between atoms: C_8  and  C_9
REMARK    4  A    between atoms: C_8  and  C_11
REMARK    5  A    between atoms: C_9  and  O_10
REMARK    6  A    between atoms: C_15  and  N_16
REMARK    7  A    between atoms: C_21  and  C_22
REMARK    8  A    between atoms: C_25  and  C_26
REMARK                            x       y       z     vdW  Elec       q    Type
REMARK                         _______ _______ _______ _____ _____    ______ ____
ROOT
ATOM      1  C   UNL     1       0.869   8.623  21.001  0.00  0.00    +0.000 A 
ATOM      2  C   UNL     1       0.933   8.595  22.399  0.00  0.00    +0.000 A 
ATOM      3  C   UNL     1       0.238   9.540  23.148  0.00  0.00    +0.000 A 
ATOM      4  C   UNL     1      -0.434  10.576  22.506  0.00  0.00    +0.000 A 
ATOM      5  C   UNL     1      -0.296  10.738  21.117  0.00  0.00    +0.000 A 
ATOM      6  C   UNL     1       0.209   9.676  20.358  0.00  0.00    +0.000 A 
ENDROOT
BRANCH   5   7
ATOM      7  N   UNL     1      -0.178  12.085  20.558  0.00  0.00    +0.000 N 
ATOM      8  C   UNL     1      -1.366  12.898  20.930  0.00  0.00    +0.000 C 
ATOM      9  C   UNL     1      -2.300  12.611  19.791  0.00  0.00    +0.000 A 
ATOM     10  C   UNL     1      -1.511  12.326  18.673  0.00  0.00    +0.000 A 
ATOM     11  C   UNL     1      -2.028  11.832  17.487  0.00  0.00    +0.000 A 
ATOM     12  C   UNL     1      -3.404  11.576  17.435  0.00  0.00    +0.000 A 
ATOM     13  C   UNL     1      -4.207  11.856  18.567  0.00  0.00    +0.000 A 
ATOM     14  C   UNL     1      -3.671  12.378  19.766  0.00  0.00    +0.000 A 
ATOM     15  C   UNL     1      -0.114  12.154  19.142  0.00  0.00    +0.000 C 
ATOM     16  O   UNL     1       0.825  11.903  18.408  0.00  0.00    +0.000 OA
BRANCH  14  17
ATOM     17  C   UNL     1      -4.568  12.522  20.971  0.00  0.00    +0.000 C 
ATOM     18  F   UNL     1      -3.996  12.133  22.140  0.00  0.00    +0.000 F 
ATOM     19  F   UNL     1      -4.960  13.811  21.165  0.00  0.00    +0.000 F 
ATOM     20  F   UNL     1      -5.714  11.796  20.852  0.00  0.00    +0.000 F 
ENDBRANCH  14  17
BRANCH  12  21
ATOM     21  C   UNL     1      -3.996  10.912  16.219  0.00  0.00    +0.000 C 
ATOM     22  F   UNL     1      -3.215  11.032  15.108  0.00  0.00    +0.000 F 
ENDBRANCH  12  21
ENDBRANCH   5   7
BRANCH   1  24
ATOM     23  C   UNL     1       1.877   6.437  20.739  0.00  0.00    +0.000 C 
ATOM     24  C   UNL     1       1.671   7.662  20.216  0.00  0.00    +0.000 C 
BRANCH  23  30
ATOM     25  C   UNL     1       0.867   3.622  20.069  0.00  0.00    +0.000 C 
ATOM     26  N   UNL     1       2.180   4.175  19.845  0.00  0.00    +0.000 N 
ATOM     27  C   UNL     1       3.207   3.482  19.273  0.00  0.00    +0.000 A 
ATOM     28  N   UNL     1       4.257   4.258  19.166  0.00  0.00    +0.000 NA
ATOM     29  N   UNL     1       3.909   5.482  19.672  0.00  0.00    +0.000 NA
ATOM     30  C   UNL     1       2.660   5.439  20.106  0.00  0.00    +0.000 A 
ENDBRANCH  23  30
BRANCH  24  31
ATOM     31  C   UNL     1       2.193   8.240  18.921  0.00  0.00    +0.000 C 
BRANCH  31  32
ATOM     32  O   UNL     1       2.012   7.279  17.885  0.00  0.00    +0.000 OA
ATOM     33  H   UNL     1       1.320   6.678  18.212  0.00  0.00    +0.000 HD
ENDBRANCH  31  32
ENDBRANCH  24  31
ENDBRANCH   1  24
TORSDOF 7
ENDMDL
