MODEL 1
REMARK VINA RESULT:      -8.0      0.000      0.000
REMARK  Name = 
REMARK  5 active torsions:
REMARK  status: ('A' for Active; 'I' for Inactive)
REMARK    1  A    between atoms: C_1  and  N_2
REMARK    2  A    between atoms: C_6  and  C_7
REMARK    3  A    between atoms: C_7  and  C_8
REMARK    4  A    between atoms: C_8  and  C_9
REMARK    5  A    between atoms: C_13  and  N_14
REMARK                            x       y       z     vdW  Elec       q    Type
REMARK                         _______ _______ _______ _____ _____    ______ ____
ROOT
ATOM      1  C   UNL     1       1.585   8.207  19.961  0.00  0.00    +0.000 A 
ATOM      2  C   UNL     1       2.112   8.558  18.697  0.00  0.00    +0.000 A 
ATOM      3  C   UNL     1       2.349   7.610  17.705  0.00  0.00    +0.000 A 
ATOM      4  C   UNL     1       2.268   6.272  18.023  0.00  0.00    +0.000 A 
ATOM      5  C   UNL     1       2.229   5.962  19.377  0.00  0.00    +0.000 A 
ATOM      6  C   UNL     1       1.660   6.854  20.278  0.00  0.00    +0.000 A 
ENDROOT
BRANCH   5   7
ATOM      7  N   UNL     1       3.294   5.142  19.841  0.00  0.00    +0.000 N 
ATOM      8  C   UNL     1       4.681   5.640  19.523  0.00  0.00    +0.000 C 
ATOM      9  C   UNL     1       5.287   5.332  18.144  0.00  0.00    +0.000 C 
ATOM     10  C   UNL     1       6.114   6.197  17.508  0.00  0.00    +0.000 C 
ATOM     11  C   UNL     1       6.863   5.820  16.324  0.00  0.00    +0.000 C 
ATOM     12  C   UNL     1       6.637   4.653  15.718  0.00  0.00    +0.000 C 
ATOM     13  C   UNL     1       5.595   3.717  16.206  0.00  0.00    +0.000 C 
ATOM     14  N   UNL     1       5.102   4.066  17.558  0.00  0.00    +0.000 N 
ATOM     15  C   UNL     1       4.293   2.957  18.111  0.00  0.00    +0.000 C 
ATOM     16  C   UNL     1       3.401   2.713  19.323  0.00  0.00    +0.000 C 
ATOM     17  C   UNL     1       2.945   3.856  20.183  0.00  0.00    +0.000 C 
ATOM     18  O   UNL     1       2.098   3.619  21.051  0.00  0.00    +0.000 OA
ENDBRANCH   5   7
BRANCH   1  19
ATOM     19  C   UNL     1       0.890   9.275  20.927  0.00  0.00    +0.000 C 
ATOM     20  C   UNL     1      -0.377   8.848  21.704  0.00  0.00    +0.000 C 
ATOM     21  O   UNL     1       0.286   8.959  22.982  0.00  0.00    +0.000 OA
ATOM     22  C   UNL     1       1.539   9.276  22.341  0.00  0.00    +0.000 C 
BRANCH  19  23
ATOM     23  C   UNL     1       0.799  10.706  20.350  0.00  0.00    +0.000 C 
BRANCH  23  29
ATOM     24  C   UNL     1      -1.501  12.563  21.421  0.00  0.00    +0.000 C 
ATOM     25  N   UNL     1      -1.448  11.890  20.147  0.00  0.00    +0.000 N 
ATOM     26  C   UNL     1      -2.430  11.933  19.207  0.00  0.00    +0.000 A 
ATOM     27  N   UNL     1      -2.120  11.132  18.218  0.00  0.00    +0.000 NA
ATOM     28  N   UNL     1      -0.896  10.580  18.498  0.00  0.00    +0.000 NA
ATOM     29  C   UNL     1      -0.479  11.044  19.658  0.00  0.00    +0.000 A 
ENDBRANCH  23  29
ENDBRANCH  19  23
ENDBRANCH   1  19
TORSDOF 4
ENDMDL
MODEL 2
REMARK VINA RESULT:      -7.9      0.519      1.103
REMARK  Name = 
REMARK  5 active torsions:
REMARK  status: ('A' for Active; 'I' for Inactive)
REMARK    1  A    between atoms: C_1  and  N_2
REMARK    2  A    between atoms: C_6  and  C_7
REMARK    3  A    between atoms: C_7  and  C_8
REMARK    4  A    between atoms: C_8  and  C_9
REMARK    5  A    between atoms: C_13  and  N_14
REMARK                            x       y       z     vdW  Elec       q    Type
REMARK                         _______ _______ _______ _____ _____    ______ ____
ROOT
ATOM      1  C   UNL     1       1.587   8.240  19.993  0.00  0.00    +0.000 A 
ATOM      2  C   UNL     1       2.101   8.576  18.719  0.00  0.00    +0.000 A 
ATOM      3  C   UNL     1       2.317   7.618  17.731  0.00  0.00    +0.000 A 
ATOM      4  C   UNL     1       2.228   6.284  18.061  0.00  0.00    +0.000 A 
ATOM      5  C   UNL     1       2.204   5.985  19.418  0.00  0.00    +0.000 A 
ATOM      6  C   UNL     1       1.655   6.889  20.319  0.00  0.00    +0.000 A 
ENDROOT
BRANCH   5   7
ATOM      7  N   UNL     1       3.268   5.159  19.875  0.00  0.00    +0.000 N 
ATOM      8  C   UNL     1       4.655   5.644  19.539  0.00  0.00    +0.000 C 
ATOM      9  C   UNL     1       5.243   5.325  18.156  0.00  0.00    +0.000 C 
ATOM     10  C   UNL     1       6.071   6.180  17.506  0.00  0.00    +0.000 C 
ATOM     11  C   UNL     1       6.804   5.790  16.315  0.00  0.00    +0.000 C 
ATOM     12  C   UNL     1       6.562   4.622  15.719  0.00  0.00    +0.000 C 
ATOM     13  C   UNL     1       5.518   3.697  16.223  0.00  0.00    +0.000 C 
ATOM     14  N   UNL     1       5.043   4.056  17.579  0.00  0.00    +0.000 N 
ATOM     15  C   UNL     1       4.231   2.957  18.146  0.00  0.00    +0.000 C 
ATOM     16  C   UNL     1       3.351   2.726  19.369  0.00  0.00    +0.000 C 
ATOM     17  C   UNL     1       2.913   3.878  20.227  0.00  0.00    +0.000 C 
ATOM     18  O   UNL     1       2.073   3.652  21.107  0.00  0.00    +0.000 OA
ENDBRANCH   5   7
BRANCH   1  19
ATOM     19  C   UNL     1       0.914   9.321  20.959  0.00  0.00    +0.000 C 
ATOM     20  C   UNL     1      -0.386   8.935  21.701  0.00  0.00    +0.000 C 
ATOM     21  O   UNL     1       0.252   9.002  22.995  0.00  0.00    +0.000 OA
ATOM     22  C   UNL     1       1.530   9.276  22.387  0.00  0.00    +0.000 C 
BRANCH  19  23
ATOM     23  C   UNL     1       0.893  10.763  20.401  0.00  0.00    +0.000 C 
BRANCH  23  29
ATOM     24  C   UNL     1      -1.031  10.286  17.962  0.00  0.00    +0.000 C 
ATOM     25  N   UNL     1      -1.288  11.095  19.127  0.00  0.00    +0.000 N 
ATOM     26  C   UNL     1      -2.420  11.820  19.332  0.00  0.00    +0.000 A 
ATOM     27  N   UNL     1      -2.292  12.524  20.429  0.00  0.00    +0.000 NA
ATOM     28  N   UNL     1      -1.068  12.229  20.972  0.00  0.00    +0.000 NA
ATOM     29  C   UNL     1      -0.461  11.356  20.194  0.00  0.00    +0.000 A 
ENDBRANCH  23  29
ENDBRANCH  19  23
ENDBRANCH   1  19
TORSDOF 4
ENDMDL
MODEL 3
REMARK VINA RESULT:      -7.9      3.448      7.940
REMARK  Name = 
REMARK  5 active torsions:
REMARK  status: ('A' for Active; 'I' for Inactive)
REMARK    1  A    between atoms: C_1  and  N_2
REMARK    2  A    between atoms: C_6  and  C_7
REMARK    3  A    between atoms: C_7  and  C_8
REMARK    4  A    between atoms: C_8  and  C_9
REMARK    5  A    between atoms: C_13  and  N_14
REMARK                            x       y       z     vdW  Elec       q    Type
REMARK                         _______ _______ _______ _____ _____    ______ ____
ROOT
ATOM      1  C   UNL     1       5.181   4.208  17.454  0.00  0.00    +0.000 A 
ATOM      2  C   UNL     1       5.528   4.052  18.816  0.00  0.00    +0.000 A 
ATOM      3  C   UNL     1       4.950   3.073  19.619  0.00  0.00    +0.000 A 
ATOM      4  C   UNL     1       3.866   2.370  19.143  0.00  0.00    +0.000 A 
ATOM      5  C   UNL     1       3.252   2.879  18.006  0.00  0.00    +0.000 A 
ATOM      6  C   UNL     1       3.998   3.585  17.070  0.00  0.00    +0.000 A 
ENDROOT
BRANCH   5   7
ATOM      7  N   UNL     1       1.883   3.236  18.165  0.00  0.00    +0.000 N 
ATOM      8  C   UNL     1       1.500   4.591  17.629  0.00  0.00    +0.000 C 
ATOM      9  C   UNL     1       1.737   5.834  18.502  0.00  0.00    +0.000 C 
ATOM     10  C   UNL     1       2.078   7.035  17.974  0.00  0.00    +0.000 C 
ATOM     11  C   UNL     1       2.079   8.253  18.763  0.00  0.00    +0.000 C 
ATOM     12  C   UNL     1       1.903   8.208  20.084  0.00  0.00    +0.000 C 
ATOM     13  C   UNL     1       1.736   6.920  20.800  0.00  0.00    +0.000 C 
ATOM     14  N   UNL     1       1.469   5.788  19.883  0.00  0.00    +0.000 N 
ATOM     15  C   UNL     1       1.027   4.601  20.649  0.00  0.00    +0.000 C 
ATOM     16  C   UNL     1       0.749   3.128  20.375  0.00  0.00    +0.000 C 
ATOM     17  C   UNL     1       1.182   2.492  19.086  0.00  0.00    +0.000 C 
ATOM     18  O   UNL     1       1.074   1.264  18.986  0.00  0.00    +0.000 OA
ENDBRANCH   5   7
BRANCH   1  19
ATOM     19  C   UNL     1       6.116   4.983  16.414  0.00  0.00    +0.000 C 
ATOM     20  C   UNL     1       5.554   6.244  15.718  0.00  0.00    +0.000 C 
ATOM     21  O   UNL     1       6.510   7.111  16.366  0.00  0.00    +0.000 OA
ATOM     22  C   UNL     1       7.041   6.010  17.129  0.00  0.00    +0.000 C 
BRANCH  19  23
ATOM     23  C   UNL     1       6.922   4.069  15.462  0.00  0.00    +0.000 C 
BRANCH  23  29
ATOM     24  C   UNL     1       5.791   3.317  12.627  0.00  0.00    +0.000 C 
ATOM     25  N   UNL     1       6.758   4.341  12.934  0.00  0.00    +0.000 N 
ATOM     26  C   UNL     1       7.366   5.134  12.011  0.00  0.00    +0.000 A 
ATOM     27  N   UNL     1       8.265   5.880  12.604  0.00  0.00    +0.000 NA
ATOM     28  N   UNL     1       8.220   5.598  13.945  0.00  0.00    +0.000 NA
ATOM     29  C   UNL     1       7.302   4.676  14.152  0.00  0.00    +0.000 A 
ENDBRANCH  23  29
ENDBRANCH  19  23
ENDBRANCH   1  19
TORSDOF 4
ENDMDL
MODEL 4
REMARK VINA RESULT:      -7.6      1.369      1.888
REMARK  Name = 
REMARK  5 active torsions:
REMARK  status: ('A' for Active; 'I' for Inactive)
REMARK    1  A    between atoms: C_1  and  N_2
REMARK    2  A    between atoms: C_6  and  C_7
REMARK    3  A    between atoms: C_7  and  C_8
REMARK    4  A    between atoms: C_8  and  C_9
REMARK    5  A    between atoms: C_13  and  N_14
REMARK                            x       y       z     vdW  Elec       q    Type
REMARK                         _______ _______ _______ _____ _____    ______ ____
ROOT
ATOM      1  C   UNL     1       1.487   8.178  19.910  0.00  0.00    +0.000 A 
ATOM      2  C   UNL     1       2.045   8.550  18.665  0.00  0.00    +0.000 A 
ATOM      3  C   UNL     1       2.345   7.613  17.679  0.00  0.00    +0.000 A 
ATOM      4  C   UNL     1       2.294   6.273  17.991  0.00  0.00    +0.000 A 
ATOM      5  C   UNL     1       2.219   5.957  19.341  0.00  0.00    +0.000 A 
ATOM      6  C   UNL     1       1.593   6.827  20.225  0.00  0.00    +0.000 A 
ENDROOT
BRANCH   5   7
ATOM      7  N   UNL     1       3.293   5.168  19.839  0.00  0.00    +0.000 N 
ATOM      8  C   UNL     1       4.675   5.678  19.518  0.00  0.00    +0.000 C 
ATOM      9  C   UNL     1       5.298   5.339  18.155  0.00  0.00    +0.000 C 
ATOM     10  C   UNL     1       6.117   6.197  17.500  0.00  0.00    +0.000 C 
ATOM     11  C   UNL     1       6.883   5.797  16.334  0.00  0.00    +0.000 C 
ATOM     12  C   UNL     1       6.681   4.609  15.762  0.00  0.00    +0.000 C 
ATOM     13  C   UNL     1       5.649   3.672  16.269  0.00  0.00    +0.000 C 
ATOM     14  N   UNL     1       5.139   4.052  17.606  0.00  0.00    +0.000 N 
ATOM     15  C   UNL     1       4.341   2.948  18.184  0.00  0.00    +0.000 C 
ATOM     16  C   UNL     1       3.443   2.726  19.395  0.00  0.00    +0.000 C 
ATOM     17  C   UNL     1       2.961   3.887  20.216  0.00  0.00    +0.000 C 
ATOM     18  O   UNL     1       2.110   3.663  21.084  0.00  0.00    +0.000 OA
ENDBRANCH   5   7
BRANCH   1  19
ATOM     19  C   UNL     1       0.726   9.220  20.855  0.00  0.00    +0.000 C 
ATOM     20  C   UNL     1      -0.211   8.668  21.954  0.00  0.00    +0.000 C 
ATOM     21  O   UNL     1       0.627   9.171  23.016  0.00  0.00    +0.000 OA
ATOM     22  C   UNL     1       1.605   9.641  22.068  0.00  0.00    +0.000 C 
BRANCH  19  23
ATOM     23  C   UNL     1       0.149  10.454  20.124  0.00  0.00    +0.000 C 
BRANCH  23  29
ATOM     24  C   UNL     1       2.206  12.195  18.504  0.00  0.00    +0.000 C 
ATOM     25  N   UNL     1       1.600  12.519  19.770  0.00  0.00    +0.000 N 
ATOM     26  C   UNL     1       1.863  13.644  20.489  0.00  0.00    +0.000 A 
ATOM     27  N   UNL     1       1.234  13.582  21.637  0.00  0.00    +0.000 NA
ATOM     28  N   UNL     1       0.519  12.413  21.657  0.00  0.00    +0.000 NA
ATOM     29  C   UNL     1       0.727  11.771  20.526  0.00  0.00    +0.000 A 
ENDBRANCH  23  29
ENDBRANCH  19  23
ENDBRANCH   1  19
TORSDOF 4
ENDMDL
MODEL 5
REMARK VINA RESULT:      -7.5      2.057      8.119
REMARK  Name = 
REMARK  5 active torsions:
REMARK  status: ('A' for Active; 'I' for Inactive)
REMARK    1  A    between atoms: C_1  and  N_2
REMARK    2  A    between atoms: C_6  and  C_7
REMARK    3  A    between atoms: C_7  and  C_8
REMARK    4  A    between atoms: C_8  and  C_9
REMARK    5  A    between atoms: C_13  and  N_14
REMARK                            x       y       z     vdW  Elec       q    Type
REMARK                         _______ _______ _______ _____ _____    ______ ____
ROOT
ATOM      1  C   UNL     1       2.208   7.653  18.575  0.00  0.00    +0.000 A 
ATOM      2  C   UNL     1       2.187   8.635  17.558  0.00  0.00    +0.000 A 
ATOM      3  C   UNL     1       2.002   9.987  17.838  0.00  0.00    +0.000 A 
ATOM      4  C   UNL     1       1.623  10.362  19.108  0.00  0.00    +0.000 A 
ATOM      5  C   UNL     1       1.181   9.345  19.945  0.00  0.00    +0.000 A 
ATOM      6  C   UNL     1       1.681   8.058  19.798  0.00  0.00    +0.000 A 
ENDROOT
BRANCH   5   7
ATOM      7  N   UNL     1      -0.154   9.486  20.416  0.00  0.00    +0.000 N 
ATOM      8  C   UNL     1      -0.957  10.586  19.770  0.00  0.00    +0.000 C 
ATOM      9  C   UNL     1      -0.812  12.023  20.296  0.00  0.00    +0.000 C 
ATOM     10  C   UNL     1      -0.895  13.103  19.481  0.00  0.00    +0.000 C 
ATOM     11  C   UNL     1      -0.987  14.456  19.998  0.00  0.00    +0.000 C 
ATOM     12  C   UNL     1      -0.827  14.699  21.300  0.00  0.00    +0.000 C 
ATOM     13  C   UNL     1      -0.516  13.611  22.258  0.00  0.00    +0.000 C 
ATOM     14  N   UNL     1      -0.725  12.264  21.680  0.00  0.00    +0.000 N 
ATOM     15  C   UNL     1      -0.684  11.236  22.744  0.00  0.00    +0.000 C 
ATOM     16  C   UNL     1      -0.672   9.715  22.837  0.00  0.00    +0.000 C 
ATOM     17  C   UNL     1      -0.423   8.874  21.619  0.00  0.00    +0.000 C 
ATOM     18  O   UNL     1      -0.265   7.659  21.782  0.00  0.00    +0.000 OA
ENDBRANCH   5   7
BRANCH   1  19
ATOM     19  C   UNL     1       2.854   6.206  18.358  0.00  0.00    +0.000 C 
ATOM     20  C   UNL     1       4.126   6.092  17.486  0.00  0.00    +0.000 C 
ATOM     21  O   UNL     1       4.936   5.669  18.605  0.00  0.00    +0.000 OA
ATOM     22  C   UNL     1       3.828   5.834  19.512  0.00  0.00    +0.000 C 
BRANCH  19  23
ATOM     23  C   UNL     1       1.833   5.074  18.099  0.00  0.00    +0.000 C 
BRANCH  23  29
ATOM     24  C   UNL     1       3.119   2.209  18.242  0.00  0.00    +0.000 C 
ATOM     25  N   UNL     1       2.292   2.842  19.238  0.00  0.00    +0.000 N 
ATOM     26  C   UNL     1       1.907   2.262  20.407  0.00  0.00    +0.000 A 
ATOM     27  N   UNL     1       1.076   3.058  21.033  0.00  0.00    +0.000 NA
ATOM     28  N   UNL     1       0.941   4.195  20.279  0.00  0.00    +0.000 NA
ATOM     29  C   UNL     1       1.683   4.075  19.198  0.00  0.00    +0.000 A 
ENDBRANCH  23  29
ENDBRANCH  19  23
ENDBRANCH   1  19
TORSDOF 4
ENDMDL
MODEL 6
REMARK VINA RESULT:      -7.5      1.223      1.597
REMARK  Name = 
REMARK  5 active torsions:
REMARK  status: ('A' for Active; 'I' for Inactive)
REMARK    1  A    between atoms: C_1  and  N_2
REMARK    2  A    between atoms: C_6  and  C_7
REMARK    3  A    between atoms: C_7  and  C_8
REMARK    4  A    between atoms: C_8  and  C_9
REMARK    5  A    between atoms: C_13  and  N_14
REMARK                            x       y       z     vdW  Elec       q    Type
REMARK                         _______ _______ _______ _____ _____    ______ ____
ROOT
ATOM      1  C   UNL     1       1.464   8.336  19.932  0.00  0.00    +0.000 A 
ATOM      2  C   UNL     1       2.035   8.719  18.696  0.00  0.00    +0.000 A 
ATOM      3  C   UNL     1       2.358   7.789  17.710  0.00  0.00    +0.000 A 
ATOM      4  C   UNL     1       2.317   6.447  18.016  0.00  0.00    +0.000 A 
ATOM      5  C   UNL     1       2.227   6.125  19.364  0.00  0.00    +0.000 A 
ATOM      6  C   UNL     1       1.580   6.985  20.243  0.00  0.00    +0.000 A 
ENDROOT
BRANCH   5   7
ATOM      7  N   UNL     1       3.303   5.346  19.874  0.00  0.00    +0.000 N 
ATOM      8  C   UNL     1       4.683   5.814  19.487  0.00  0.00    +0.000 C 
ATOM      9  C   UNL     1       5.260   5.392  18.127  0.00  0.00    +0.000 C 
ATOM     10  C   UNL     1       6.074   6.200  17.404  0.00  0.00    +0.000 C 
ATOM     11  C   UNL     1       6.799   5.725  16.240  0.00  0.00    +0.000 C 
ATOM     12  C   UNL     1       6.562   4.512  15.739  0.00  0.00    +0.000 C 
ATOM     13  C   UNL     1       5.531   3.620  16.324  0.00  0.00    +0.000 C 
ATOM     14  N   UNL     1       5.065   4.081  17.653  0.00  0.00    +0.000 N 
ATOM     15  C   UNL     1       4.268   3.023  18.312  0.00  0.00    +0.000 C 
ATOM     16  C   UNL     1       3.401   2.881  19.558  0.00  0.00    +0.000 C 
ATOM     17  C   UNL     1       2.962   4.093  20.328  0.00  0.00    +0.000 C 
ATOM     18  O   UNL     1       2.132   3.930  21.231  0.00  0.00    +0.000 OA
ENDBRANCH   5   7
BRANCH   1  19
ATOM     19  C   UNL     1       0.680   9.367  20.870  0.00  0.00    +0.000 C 
ATOM     20  C   UNL     1      -0.367   8.808  21.861  0.00  0.00    +0.000 C 
ATOM     21  O   UNL     1       0.406   9.214  23.011  0.00  0.00    +0.000 OA
ATOM     22  C   UNL     1       1.478   9.680  22.169  0.00  0.00    +0.000 C 
BRANCH  19  23
ATOM     23  C   UNL     1       0.222  10.664  20.165  0.00  0.00    +0.000 C 
BRANCH  23  29
ATOM     24  C   UNL     1      -2.020  12.159  21.785  0.00  0.00    +0.000 C 
ATOM     25  N   UNL     1      -0.629  12.523  21.685  0.00  0.00    +0.000 N 
ATOM     26  C   UNL     1      -0.073  13.621  22.266  0.00  0.00    +0.000 A 
ATOM     27  N   UNL     1       1.179  13.722  21.893  0.00  0.00    +0.000 NA
ATOM     28  N   UNL     1       1.459  12.653  21.081  0.00  0.00    +0.000 NA
ATOM     29  C   UNL     1       0.372  11.919  20.960  0.00  0.00    +0.000 A 
ENDBRANCH  23  29
ENDBRANCH  19  23
ENDBRANCH   1  19
TORSDOF 4
ENDMDL
MODEL 7
REMARK VINA RESULT:      -7.4      3.412      7.804
REMARK  Name = 
REMARK  5 active torsions:
REMARK  status: ('A' for Active; 'I' for Inactive)
REMARK    1  A    between atoms: C_1  and  N_2
REMARK    2  A    between atoms: C_6  and  C_7
REMARK    3  A    between atoms: C_7  and  C_8
REMARK    4  A    between atoms: C_8  and  C_9
REMARK    5  A    between atoms: C_13  and  N_14
REMARK                            x       y       z     vdW  Elec       q    Type
REMARK                         _______ _______ _______ _____ _____    ______ ____
ROOT
ATOM      1  C   UNL     1       5.405   4.543  17.565  0.00  0.00    +0.000 A 
ATOM      2  C   UNL     1       5.719   4.352  18.931  0.00  0.00    +0.000 A 
ATOM      3  C   UNL     1       5.179   3.306  19.675  0.00  0.00    +0.000 A 
ATOM      4  C   UNL     1       4.156   2.558  19.136  0.00  0.00    +0.000 A 
ATOM      5  C   UNL     1       3.546   3.077  18.001  0.00  0.00    +0.000 A 
ATOM      6  C   UNL     1       4.275   3.865  17.119  0.00  0.00    +0.000 A 
ENDROOT
BRANCH   5   7
ATOM      7  N   UNL     1       2.154   3.341  18.128  0.00  0.00    +0.000 N 
ATOM      8  C   UNL     1       1.701   4.686  17.620  0.00  0.00    +0.000 C 
ATOM      9  C   UNL     1       1.833   5.913  18.536  0.00  0.00    +0.000 C 
ATOM     10  C   UNL     1       2.112   7.149  18.054  0.00  0.00    +0.000 C 
ATOM     11  C   UNL     1       2.013   8.340  18.878  0.00  0.00    +0.000 C 
ATOM     12  C   UNL     1       1.803   8.243  20.191  0.00  0.00    +0.000 C 
ATOM     13  C   UNL     1       1.698   6.925  20.863  0.00  0.00    +0.000 C 
ATOM     14  N   UNL     1       1.529   5.808  19.907  0.00  0.00    +0.000 N 
ATOM     15  C   UNL     1       1.143   4.572  20.624  0.00  0.00    +0.000 C 
ATOM     16  C   UNL     1       0.967   3.094  20.299  0.00  0.00    +0.000 C 
ATOM     17  C   UNL     1       1.476   2.526  19.005  0.00  0.00    +0.000 C 
ATOM     18  O   UNL     1       1.449   1.298  18.867  0.00  0.00    +0.000 OA
ENDBRANCH   5   7
BRANCH   1  19
ATOM     19  C   UNL     1       6.320   5.418  16.588  0.00  0.00    +0.000 C 
ATOM     20  C   UNL     1       5.672   6.605  15.841  0.00  0.00    +0.000 C 
ATOM     21  O   UNL     1       6.474   7.576  16.548  0.00  0.00    +0.000 OA
ATOM     22  C   UNL     1       7.068   6.543  17.359  0.00  0.00    +0.000 C 
BRANCH  19  23
ATOM     23  C   UNL     1       7.292   4.599  15.708  0.00  0.00    +0.000 C 
BRANCH  23  29
ATOM     24  C   UNL     1       8.409   5.696  12.981  0.00  0.00    +0.000 C 
ATOM     25  N   UNL     1       7.341   4.746  13.165  0.00  0.00    +0.000 N 
ATOM     26  C   UNL     1       6.613   4.195  12.155  0.00  0.00    +0.000 A 
ATOM     27  N   UNL     1       5.654   3.461  12.663  0.00  0.00    +0.000 NA
ATOM     28  N   UNL     1       5.775   3.504  14.028  0.00  0.00    +0.000 NA
ATOM     29  C   UNL     1       6.801   4.270  14.337  0.00  0.00    +0.000 A 
ENDBRANCH  23  29
ENDBRANCH  19  23
ENDBRANCH   1  19
TORSDOF 4
ENDMDL
MODEL 8
REMARK VINA RESULT:      -7.3      2.044      8.181
REMARK  Name = 
REMARK  5 active torsions:
REMARK  status: ('A' for Active; 'I' for Inactive)
REMARK    1  A    between atoms: C_1  and  N_2
REMARK    2  A    between atoms: C_6  and  C_7
REMARK    3  A    between atoms: C_7  and  C_8
REMARK    4  A    between atoms: C_8  and  C_9
REMARK    5  A    between atoms: C_13  and  N_14
REMARK                            x       y       z     vdW  Elec       q    Type
REMARK                         _______ _______ _______ _____ _____    ______ ____
ROOT
ATOM      1  C   UNL     1       2.178   7.754  18.563  0.00  0.00    +0.000 A 
ATOM      2  C   UNL     1       2.171   8.767  17.576  0.00  0.00    +0.000 A 
ATOM      3  C   UNL     1       1.996  10.111  17.895  0.00  0.00    +0.000 A 
ATOM      4  C   UNL     1       1.612  10.451  19.173  0.00  0.00    +0.000 A 
ATOM      5  C   UNL     1       1.156   9.414  19.976  0.00  0.00    +0.000 A 
ATOM      6  C   UNL     1       1.647   8.127  19.794  0.00  0.00    +0.000 A 
ENDROOT
BRANCH   5   7
ATOM      7  N   UNL     1      -0.180   9.552  20.443  0.00  0.00    +0.000 N 
ATOM      8  C   UNL     1      -0.984  10.649  19.794  0.00  0.00    +0.000 C 
ATOM      9  C   UNL     1      -0.845  12.087  20.317  0.00  0.00    +0.000 C 
ATOM     10  C   UNL     1      -0.928  13.166  19.501  0.00  0.00    +0.000 C 
ATOM     11  C   UNL     1      -1.025  14.519  20.016  0.00  0.00    +0.000 C 
ATOM     12  C   UNL     1      -0.870  14.764  21.318  0.00  0.00    +0.000 C 
ATOM     13  C   UNL     1      -0.559  13.678  22.279  0.00  0.00    +0.000 C 
ATOM     14  N   UNL     1      -0.763  12.330  21.702  0.00  0.00    +0.000 N 
ATOM     15  C   UNL     1      -0.722  11.304  22.768  0.00  0.00    +0.000 C 
ATOM     16  C   UNL     1      -0.706   9.783  22.863  0.00  0.00    +0.000 C 
ATOM     17  C   UNL     1      -0.452   8.940  21.646  0.00  0.00    +0.000 C 
ATOM     18  O   UNL     1      -0.292   7.726  21.811  0.00  0.00    +0.000 OA
ENDBRANCH   5   7
BRANCH   1  19
ATOM     19  C   UNL     1       2.813   6.309  18.306  0.00  0.00    +0.000 C 
ATOM     20  C   UNL     1       4.170   6.223  17.571  0.00  0.00    +0.000 C 
ATOM     21  O   UNL     1       4.843   5.695  18.734  0.00  0.00    +0.000 OA
ATOM     22  C   UNL     1       3.646   5.824  19.527  0.00  0.00    +0.000 C 
BRANCH  19  23
ATOM     23  C   UNL     1       1.802   5.231  17.851  0.00  0.00    +0.000 C 
BRANCH  23  29
ATOM     24  C   UNL     1       0.920   3.544  20.353  0.00  0.00    +0.000 C 
ATOM     25  N   UNL     1       1.743   3.105  19.254  0.00  0.00    +0.000 N 
ATOM     26  C   UNL     1       2.304   1.870  19.152  0.00  0.00    +0.000 A 
ATOM     27  N   UNL     1       3.076   1.830  18.095  0.00  0.00    +0.000 NA
ATOM     28  N   UNL     1       2.993   3.049  17.473  0.00  0.00    +0.000 NA
ATOM     29  C   UNL     1       2.179   3.821  18.163  0.00  0.00    +0.000 A 
ENDBRANCH  23  29
ENDBRANCH  19  23
ENDBRANCH   1  19
TORSDOF 4
ENDMDL
MODEL 9
REMARK VINA RESULT:      -7.3      8.675     10.521
REMARK  Name = 
REMARK  5 active torsions:
REMARK  status: ('A' for Active; 'I' for Inactive)
REMARK    1  A    between atoms: C_1  and  N_2
REMARK    2  A    between atoms: C_6  and  C_7
REMARK    3  A    between atoms: C_7  and  C_8
REMARK    4  A    between atoms: C_8  and  C_9
REMARK    5  A    between atoms: C_13  and  N_14
REMARK                            x       y       z     vdW  Elec       q    Type
REMARK                         _______ _______ _______ _____ _____    ______ ____
ROOT
ATOM      1  C   UNL     1       7.389  14.395  21.973  0.00  0.00    +0.000 A 
ATOM      2  C   UNL     1       8.768  14.194  22.209  0.00  0.00    +0.000 A 
ATOM      3  C   UNL     1       9.736  15.087  21.755  0.00  0.00    +0.000 A 
ATOM      4  C   UNL     1       9.368  16.082  20.877  0.00  0.00    +0.000 A 
ATOM      5  C   UNL     1       8.116  15.955  20.290  0.00  0.00    +0.000 A 
ATOM      6  C   UNL     1       7.089  15.316  20.974  0.00  0.00    +0.000 A 
ENDROOT
BRANCH   5   7
ATOM      7  N   UNL     1       8.120  15.866  18.870  0.00  0.00    +0.000 N 
ATOM      8  C   UNL     1       7.948  14.479  18.306  0.00  0.00    +0.000 C 
ATOM      9  C   UNL     1       9.178  13.565  18.185  0.00  0.00    +0.000 C 
ATOM     10  C   UNL     1       9.102  12.222  18.355  0.00  0.00    +0.000 C 
ATOM     11  C   UNL     1      10.202  11.337  18.020  0.00  0.00    +0.000 C 
ATOM     12  C   UNL     1      11.395  11.831  17.686  0.00  0.00    +0.000 C 
ATOM     13  C   UNL     1      11.654  13.292  17.678  0.00  0.00    +0.000 C 
ATOM     14  N   UNL     1      10.410  14.092  17.754  0.00  0.00    +0.000 N 
ATOM     15  C   UNL     1      10.695  15.513  17.453  0.00  0.00    +0.000 C 
ATOM     16  C   UNL     1       9.951  16.842  17.500  0.00  0.00    +0.000 C 
ATOM     17  C   UNL     1       8.634  16.959  18.211  0.00  0.00    +0.000 C 
ATOM     18  O   UNL     1       8.157  18.091  18.354  0.00  0.00    +0.000 OA
ENDBRANCH   5   7
BRANCH   1  19
ATOM     19  C   UNL     1       6.255  13.671  22.838  0.00  0.00    +0.000 C 
ATOM     20  C   UNL     1       5.642  14.436  24.033  0.00  0.00    +0.000 C 
ATOM     21  O   UNL     1       4.340  14.499  23.411  0.00  0.00    +0.000 OA
ATOM     22  C   UNL     1       4.844  13.872  22.215  0.00  0.00    +0.000 C 
BRANCH  19  23
ATOM     23  C   UNL     1       6.528  12.180  23.142  0.00  0.00    +0.000 C 
BRANCH  23  29
ATOM     24  C   UNL     1       8.490  12.552  25.570  0.00  0.00    +0.000 C 
ATOM     25  N   UNL     1       7.172  11.970  25.598  0.00  0.00    +0.000 N 
ATOM     26  C   UNL     1       6.579  11.449  26.707  0.00  0.00    +0.000 A 
ATOM     27  N   UNL     1       5.435  10.905  26.372  0.00  0.00    +0.000 NA
ATOM     28  N   UNL     1       5.258  11.104  25.027  0.00  0.00    +0.000 NA
ATOM     29  C   UNL     1       6.300  11.757  24.556  0.00  0.00    +0.000 A 
ENDBRANCH  23  29
ENDBRANCH  19  23
ENDBRANCH   1  19
TORSDOF 4
ENDMDL
