MODEL 1
REMARK VINA RESULT:      -8.3      0.000      0.000
REMARK  Name = 
REMARK  3 active torsions:
REMARK  status: ('A' for Active; 'I' for Inactive)
REMARK    1  A    between atoms: C_2  and  C_3
REMARK    2  A    between atoms: C_6  and  N_7
REMARK    3  A    between atoms: C_17  and  C_18
REMARK                            x       y       z     vdW  Elec       q    Type
REMARK                         _______ _______ _______ _____ _____    ______ ____
ROOT
ATOM      1  O   UNL     1       2.974   5.980  20.209  0.00  0.00    +0.000 OA
ATOM      2  C   UNL     1       2.858   6.593  19.148  0.00  0.00    +0.000 C 
ATOM      3  N   UNL     1       1.986   7.682  19.002  0.00  0.00    +0.000 N 
ATOM      4  C   UNL     1       1.826   8.527  17.816  0.00  0.00    +0.000 C 
ATOM      5  C   UNL     1       1.879  10.008  18.163  0.00  0.00    +0.000 C 
ATOM      6  C   UNL     1       0.922  10.385  19.287  0.00  0.00    +0.000 C 
ATOM      7  C   UNL     1       1.059   9.434  20.480  0.00  0.00    +0.000 C 
ATOM      8  C   UNL     1       1.036   7.961  20.079  0.00  0.00    +0.000 C 
ENDROOT
BRANCH   6   9
ATOM      9  C   UNL     1      -0.492  10.510  18.813  0.00  0.00    +0.000 A 
ATOM     10  N   UNL     1      -1.073  10.024  17.732  0.00  0.00    +0.000 NA
ATOM     11  C   UNL     1      -2.335  10.575  17.767  0.00  0.00    +0.000 A 
ATOM     12  C   UNL     1      -3.423  10.477  16.887  0.00  0.00    +0.000 A 
ATOM     13  C   UNL     1      -4.589  11.202  17.194  0.00  0.00    +0.000 A 
ATOM     14  C   UNL     1      -4.671  11.993  18.347  0.00  0.00    +0.000 A 
ATOM     15  C   UNL     1      -3.598  12.091  19.239  0.00  0.00    +0.000 A 
ATOM     16  C   UNL     1      -2.463  11.368  18.896  0.00  0.00    +0.000 A 
ATOM     17  O   UNL     1      -1.289  11.323  19.579  0.00  0.00    +0.000 OA
ENDBRANCH   6   9
BRANCH   2  18
ATOM     18  C   UNL     1       3.722   6.140  18.017  0.00  0.00    +0.000 A 
ATOM     19  C   UNL     1       3.738   4.815  17.572  0.00  0.00    +0.000 A 
ATOM     20  C   UNL     1       4.486   4.444  16.453  0.00  0.00    +0.000 A 
ATOM     21  C   UNL     1       5.341   5.369  15.843  0.00  0.00    +0.000 A 
ATOM     22  C   UNL     1       5.414   6.677  16.348  0.00  0.00    +0.000 A 
ATOM     23  C   UNL     1       4.595   7.060  17.421  0.00  0.00    +0.000 A 
BRANCH  21  24
ATOM     24  N   UNL     1       6.160   4.977  14.758  0.00  0.00    +0.000 N 
ATOM     25  C   UNL     1       5.927   4.025  13.797  0.00  0.00    +0.000 A 
ATOM     26  N   UNL     1       6.979   3.928  13.016  0.00  0.00    +0.000 NA
ATOM     27  N   UNL     1       7.875   4.850  13.489  0.00  0.00    +0.000 NA
ATOM     28  N   UNL     1       7.380   5.509  14.528  0.00  0.00    +0.000 NA
ENDBRANCH  21  24
ENDBRANCH   2  18
TORSDOF 3
ENDMDL
MODEL 2
REMARK VINA RESULT:      -8.3      2.668      4.232
REMARK  Name = 
REMARK  3 active torsions:
REMARK  status: ('A' for Active; 'I' for Inactive)
REMARK    1  A    between atoms: C_2  and  C_3
REMARK    2  A    between atoms: C_6  and  N_7
REMARK    3  A    between atoms: C_17  and  C_18
REMARK                            x       y       z     vdW  Elec       q    Type
REMARK                         _______ _______ _______ _____ _____    ______ ____
ROOT
ATOM      1  O   UNL     1       1.457   9.614  22.329  0.00  0.00    +0.000 OA
ATOM      2  C   UNL     1       0.925   9.367  21.247  0.00  0.00    +0.000 C 
ATOM      3  N   UNL     1      -0.110  10.153  20.723  0.00  0.00    +0.000 N 
ATOM      4  C   UNL     1      -0.759   9.997  19.418  0.00  0.00    +0.000 C 
ATOM      5  C   UNL     1      -0.839  11.316  18.662  0.00  0.00    +0.000 C 
ATOM      6  C   UNL     1      -1.451  12.436  19.493  0.00  0.00    +0.000 C 
ATOM      7  C   UNL     1      -0.804  12.521  20.879  0.00  0.00    +0.000 C 
ATOM      8  C   UNL     1      -0.716  11.169  21.584  0.00  0.00    +0.000 C 
ENDROOT
BRANCH   6   9
ATOM      9  C   UNL     1      -2.942  12.345  19.561  0.00  0.00    +0.000 A 
ATOM     10  N   UNL     1      -3.772  12.670  20.534  0.00  0.00    +0.000 NA
ATOM     11  C   UNL     1      -4.997  12.242  20.074  0.00  0.00    +0.000 A 
ATOM     12  C   UNL     1      -6.275  12.266  20.652  0.00  0.00    +0.000 A 
ATOM     13  C   UNL     1      -7.342  11.710  19.924  0.00  0.00    +0.000 A 
ATOM     14  C   UNL     1      -7.143  11.155  18.653  0.00  0.00    +0.000 A 
ATOM     15  C   UNL     1      -5.876  11.133  18.060  0.00  0.00    +0.000 A 
ATOM     16  C   UNL     1      -4.849  11.684  18.815  0.00  0.00    +0.000 A 
ATOM     17  O   UNL     1      -3.536  11.756  18.472  0.00  0.00    +0.000 OA
ENDBRANCH   6   9
BRANCH   2  18
ATOM     18  C   UNL     1       1.460   8.194  20.493  0.00  0.00    +0.000 A 
ATOM     19  C   UNL     1       1.996   8.311  19.208  0.00  0.00    +0.000 A 
ATOM     20  C   UNL     1       2.573   7.211  18.568  0.00  0.00    +0.000 A 
ATOM     21  C   UNL     1       2.496   5.942  19.151  0.00  0.00    +0.000 A 
ATOM     22  C   UNL     1       1.864   5.792  20.395  0.00  0.00    +0.000 A 
ATOM     23  C   UNL     1       1.363   6.918  21.066  0.00  0.00    +0.000 A 
BRANCH  21  24
ATOM     24  N   UNL     1       3.009   4.812  18.471  0.00  0.00    +0.000 N 
ATOM     25  C   UNL     1       3.955   4.754  17.479  0.00  0.00    +0.000 A 
ATOM     26  N   UNL     1       4.086   3.511  17.074  0.00  0.00    +0.000 NA
ATOM     27  N   UNL     1       3.219   2.780  17.843  0.00  0.00    +0.000 NA
ATOM     28  N   UNL     1       2.580   3.554  18.710  0.00  0.00    +0.000 NA
ENDBRANCH  21  24
ENDBRANCH   2  18
TORSDOF 3
ENDMDL
MODEL 3
REMARK VINA RESULT:      -8.3      1.107      1.727
REMARK  Name = 
REMARK  3 active torsions:
REMARK  status: ('A' for Active; 'I' for Inactive)
REMARK    1  A    between atoms: C_2  and  C_3
REMARK    2  A    between atoms: C_6  and  N_7
REMARK    3  A    between atoms: C_17  and  C_18
REMARK                            x       y       z     vdW  Elec       q    Type
REMARK                         _______ _______ _______ _____ _____    ______ ____
ROOT
ATOM      1  O   UNL     1       2.148   6.632  20.771  0.00  0.00    +0.000 OA
ATOM      2  C   UNL     1       2.160   7.280  19.725  0.00  0.00    +0.000 C 
ATOM      3  N   UNL     1       1.377   8.429  19.546  0.00  0.00    +0.000 N 
ATOM      4  C   UNL     1       1.371   9.316  18.379  0.00  0.00    +0.000 C 
ATOM      5  C   UNL     1       1.493  10.779  18.777  0.00  0.00    +0.000 C 
ATOM      6  C   UNL     1       0.475  11.191  19.833  0.00  0.00    +0.000 C 
ATOM      7  C   UNL     1       0.451  10.200  21.001  0.00  0.00    +0.000 C 
ATOM      8  C   UNL     1       0.363   8.744  20.552  0.00  0.00    +0.000 C 
ENDROOT
BRANCH   6   9
ATOM      9  C   UNL     1      -0.883  11.425  19.252  0.00  0.00    +0.000 A 
ATOM     10  N   UNL     1      -1.992  11.853  19.826  0.00  0.00    +0.000 NA
ATOM     11  C   UNL     1      -2.938  11.741  18.831  0.00  0.00    +0.000 A 
ATOM     12  C   UNL     1      -4.315  12.004  18.815  0.00  0.00    +0.000 A 
ATOM     13  C   UNL     1      -5.023  11.751  17.627  0.00  0.00    +0.000 A 
ATOM     14  C   UNL     1      -4.376  11.260  16.485  0.00  0.00    +0.000 A 
ATOM     15  C   UNL     1      -3.001  11.002  16.484  0.00  0.00    +0.000 A 
ATOM     16  C   UNL     1      -2.341  11.257  17.678  0.00  0.00    +0.000 A 
ATOM     17  O   UNL     1      -1.021  11.063  17.935  0.00  0.00    +0.000 OA
ENDBRANCH   6   9
BRANCH   2  18
ATOM     18  C   UNL     1       3.081   6.799  18.652  0.00  0.00    +0.000 A 
ATOM     19  C   UNL     1       3.642   7.660  17.706  0.00  0.00    +0.000 A 
ATOM     20  C   UNL     1       4.572   7.193  16.774  0.00  0.00    +0.000 A 
ATOM     21  C   UNL     1       4.851   5.825  16.687  0.00  0.00    +0.000 A 
ATOM     22  C   UNL     1       4.212   4.934  17.564  0.00  0.00    +0.000 A 
ATOM     23  C   UNL     1       3.344   5.425  18.550  0.00  0.00    +0.000 A 
BRANCH  21  24
ATOM     24  N   UNL     1       5.732   5.338  15.694  0.00  0.00    +0.000 N 
ATOM     25  C   UNL     1       5.526   4.354  14.758  0.00  0.00    +0.000 A 
ATOM     26  N   UNL     1       6.632   4.164  14.075  0.00  0.00    +0.000 NA
ATOM     27  N   UNL     1       7.536   5.060  14.581  0.00  0.00    +0.000 NA
ATOM     28  N   UNL     1       6.995   5.793  15.545  0.00  0.00    +0.000 NA
ENDBRANCH  21  24
ENDBRANCH   2  18
TORSDOF 3
ENDMDL
MODEL 4
REMARK VINA RESULT:      -8.2      2.996      4.128
REMARK  Name = 
REMARK  3 active torsions:
REMARK  status: ('A' for Active; 'I' for Inactive)
REMARK    1  A    between atoms: C_2  and  C_3
REMARK    2  A    between atoms: C_6  and  N_7
REMARK    3  A    between atoms: C_17  and  C_18
REMARK                            x       y       z     vdW  Elec       q    Type
REMARK                         _______ _______ _______ _____ _____    ______ ____
ROOT
ATOM      1  O   UNL     1       1.663   9.421  22.331  0.00  0.00    +0.000 OA
ATOM      2  C   UNL     1       1.078   9.178  21.276  0.00  0.00    +0.000 C 
ATOM      3  N   UNL     1       0.087  10.024  20.757  0.00  0.00    +0.000 N 
ATOM      4  C   UNL     1      -0.615   9.874  19.480  0.00  0.00    +0.000 C 
ATOM      5  C   UNL     1      -0.621  11.169  18.680  0.00  0.00    +0.000 C 
ATOM      6  C   UNL     1      -1.119  12.360  19.489  0.00  0.00    +0.000 C 
ATOM      7  C   UNL     1      -0.421  12.441  20.850  0.00  0.00    +0.000 C 
ATOM      8  C   UNL     1      -0.411  11.111  21.600  0.00  0.00    +0.000 C 
ENDROOT
BRANCH   6   9
ATOM      9  C   UNL     1      -2.610  12.384  19.606  0.00  0.00    +0.000 A 
ATOM     10  N   UNL     1      -3.379  12.757  20.612  0.00  0.00    +0.000 NA
ATOM     11  C   UNL     1      -4.649  12.434  20.188  0.00  0.00    +0.000 A 
ATOM     12  C   UNL     1      -5.900  12.549  20.811  0.00  0.00    +0.000 A 
ATOM     13  C   UNL     1      -7.031  12.091  20.111  0.00  0.00    +0.000 A 
ATOM     14  C   UNL     1      -6.919  11.544  18.826  0.00  0.00    +0.000 A 
ATOM     15  C   UNL     1      -5.679  11.433  18.189  0.00  0.00    +0.000 A 
ATOM     16  C   UNL     1      -4.587  11.889  18.916  0.00  0.00    +0.000 A 
ATOM     17  O   UNL     1      -3.284  11.863  18.530  0.00  0.00    +0.000 OA
ENDBRANCH   6   9
BRANCH   2  18
ATOM     18  C   UNL     1       1.497   7.943  20.548  0.00  0.00    +0.000 A 
ATOM     19  C   UNL     1       1.424   6.673  21.125  0.00  0.00    +0.000 A 
ATOM     20  C   UNL     1       1.736   5.530  20.384  0.00  0.00    +0.000 A 
ATOM     21  C   UNL     1       2.260   5.653  19.093  0.00  0.00    +0.000 A 
ATOM     22  C   UNL     1       2.439   6.931  18.541  0.00  0.00    +0.000 A 
ATOM     23  C   UNL     1       2.044   8.067  19.263  0.00  0.00    +0.000 A 
BRANCH  21  24
ATOM     24  N   UNL     1       2.651   4.503  18.369  0.00  0.00    +0.000 N 
ATOM     25  C   UNL     1       3.860   3.853  18.360  0.00  0.00    +0.000 A 
ATOM     26  N   UNL     1       3.820   2.869  17.491  0.00  0.00    +0.000 NA
ATOM     27  N   UNL     1       2.555   2.894  16.964  0.00  0.00    +0.000 NA
ATOM     28  N   UNL     1       1.831   3.864  17.507  0.00  0.00    +0.000 NA
ENDBRANCH  21  24
ENDBRANCH   2  18
TORSDOF 3
ENDMDL
MODEL 5
REMARK VINA RESULT:      -8.1      2.735      3.979
REMARK  Name = 
REMARK  3 active torsions:
REMARK  status: ('A' for Active; 'I' for Inactive)
REMARK    1  A    between atoms: C_2  and  C_3
REMARK    2  A    between atoms: C_6  and  N_7
REMARK    3  A    between atoms: C_17  and  C_18
REMARK                            x       y       z     vdW  Elec       q    Type
REMARK                         _______ _______ _______ _____ _____    ______ ____
ROOT
ATOM      1  O   UNL     1       1.455   9.628  22.168  0.00  0.00    +0.000 OA
ATOM      2  C   UNL     1       0.936   9.396  21.076  0.00  0.00    +0.000 C 
ATOM      3  N   UNL     1      -0.141  10.147  20.584  0.00  0.00    +0.000 N 
ATOM      4  C   UNL     1      -0.782  10.010  19.273  0.00  0.00    +0.000 C 
ATOM      5  C   UNL     1      -0.933  11.352  18.572  0.00  0.00    +0.000 C 
ATOM      6  C   UNL     1      -1.603  12.403  19.447  0.00  0.00    +0.000 C 
ATOM      7  C   UNL     1      -0.961  12.466  20.836  0.00  0.00    +0.000 C 
ATOM      8  C   UNL     1      -0.799  11.093  21.485  0.00  0.00    +0.000 C 
ENDROOT
BRANCH   6   9
ATOM      9  C   UNL     1      -3.088  12.229  19.510  0.00  0.00    +0.000 A 
ATOM     10  N   UNL     1      -3.931  11.772  18.603  0.00  0.00    +0.000 NA
ATOM     11  C   UNL     1      -5.166  11.970  19.177  0.00  0.00    +0.000 A 
ATOM     12  C   UNL     1      -6.466  11.725  18.710  0.00  0.00    +0.000 A 
ATOM     13  C   UNL     1      -7.545  12.075  19.541  0.00  0.00    +0.000 A 
ATOM     14  C   UNL     1      -7.335  12.643  20.805  0.00  0.00    +0.000 A 
ATOM     15  C   UNL     1      -6.044  12.883  21.288  0.00  0.00    +0.000 A 
ATOM     16  C   UNL     1      -5.007  12.532  20.433  0.00  0.00    +0.000 A 
ATOM     17  O   UNL     1      -3.677  12.691  20.660  0.00  0.00    +0.000 OA
ENDBRANCH   6   9
BRANCH   2  18
ATOM     18  C   UNL     1       1.532   8.286  20.275  0.00  0.00    +0.000 A 
ATOM     19  C   UNL     1       2.023   8.476  18.981  0.00  0.00    +0.000 A 
ATOM     20  C   UNL     1       2.658   7.438  18.295  0.00  0.00    +0.000 A 
ATOM     21  C   UNL     1       2.689   6.151  18.844  0.00  0.00    +0.000 A 
ATOM     22  C   UNL     1       2.104   5.923  20.099  0.00  0.00    +0.000 A 
ATOM     23  C   UNL     1       1.543   6.991  20.814  0.00  0.00    +0.000 A 
BRANCH  21  24
ATOM     24  N   UNL     1       3.262   5.080  18.119  0.00  0.00    +0.000 N 
ATOM     25  C   UNL     1       2.992   3.736  18.199  0.00  0.00    +0.000 A 
ATOM     26  N   UNL     1       3.803   3.081  17.400  0.00  0.00    +0.000 NA
ATOM     27  N   UNL     1       4.578   4.036  16.797  0.00  0.00    +0.000 NA
ATOM     28  N   UNL     1       4.243   5.252  17.206  0.00  0.00    +0.000 NA
ENDBRANCH  21  24
ENDBRANCH   2  18
TORSDOF 3
ENDMDL
MODEL 6
REMARK VINA RESULT:      -8.0      3.026      4.366
REMARK  Name = 
REMARK  3 active torsions:
REMARK  status: ('A' for Active; 'I' for Inactive)
REMARK    1  A    between atoms: C_2  and  C_3
REMARK    2  A    between atoms: C_6  and  N_7
REMARK    3  A    between atoms: C_17  and  C_18
REMARK                            x       y       z     vdW  Elec       q    Type
REMARK                         _______ _______ _______ _____ _____    ______ ____
ROOT
ATOM      1  O   UNL     1       1.821  11.298  19.580  0.00  0.00    +0.000 OA
ATOM      2  C   UNL     1       1.077  10.390  19.211  0.00  0.00    +0.000 C 
ATOM      3  N   UNL     1      -0.277  10.603  18.917  0.00  0.00    +0.000 N 
ATOM      4  C   UNL     1      -1.230   9.618  18.399  0.00  0.00    +0.000 C 
ATOM      5  C   UNL     1      -2.006  10.152  17.204  0.00  0.00    +0.000 C 
ATOM      6  C   UNL     1      -2.649  11.506  17.475  0.00  0.00    +0.000 C 
ATOM      7  C   UNL     1      -1.647  12.488  18.089  0.00  0.00    +0.000 C 
ATOM      8  C   UNL     1      -0.869  11.896  19.263  0.00  0.00    +0.000 C 
ENDROOT
BRANCH   6   9
ATOM      9  C   UNL     1      -3.904  11.389  18.282  0.00  0.00    +0.000 A 
ATOM     10  N   UNL     1      -4.972  10.637  18.091  0.00  0.00    +0.000 NA
ATOM     11  C   UNL     1      -5.843  11.054  19.074  0.00  0.00    +0.000 A 
ATOM     12  C   UNL     1      -7.155  10.669  19.384  0.00  0.00    +0.000 A 
ATOM     13  C   UNL     1      -7.800  11.320  20.451  0.00  0.00    +0.000 A 
ATOM     14  C   UNL     1      -7.152  12.318  21.193  0.00  0.00    +0.000 A 
ATOM     15  C   UNL     1      -5.840  12.703  20.900  0.00  0.00    +0.000 A 
ATOM     16  C   UNL     1      -5.242  12.043  19.835  0.00  0.00    +0.000 A 
ATOM     17  O   UNL     1      -3.994  12.257  19.342  0.00  0.00    +0.000 OA
ENDBRANCH   6   9
BRANCH   2  18
ATOM     18  C   UNL     1       1.696   9.039  19.058  0.00  0.00    +0.000 A 
ATOM     19  C   UNL     1       2.283   8.616  17.863  0.00  0.00    +0.000 A 
ATOM     20  C   UNL     1       2.935   7.384  17.781  0.00  0.00    +0.000 A 
ATOM     21  C   UNL     1       2.889   6.494  18.860  0.00  0.00    +0.000 A 
ATOM     22  C   UNL     1       2.209   6.864  20.030  0.00  0.00    +0.000 A 
ATOM     23  C   UNL     1       1.630   8.138  20.130  0.00  0.00    +0.000 A 
BRANCH  21  24
ATOM     24  N   UNL     1       3.480   5.213  18.754  0.00  0.00    +0.000 N 
ATOM     25  C   UNL     1       3.007   4.089  18.124  0.00  0.00    +0.000 A 
ATOM     26  N   UNL     1       3.837   3.092  18.329  0.00  0.00    +0.000 NA
ATOM     27  N   UNL     1       4.856   3.610  19.085  0.00  0.00    +0.000 NA
ATOM     28  N   UNL     1       4.662   4.900  19.327  0.00  0.00    +0.000 NA
ENDBRANCH  21  24
ENDBRANCH   2  18
TORSDOF 3
ENDMDL
MODEL 7
REMARK VINA RESULT:      -8.0      3.159      4.750
REMARK  Name = 
REMARK  3 active torsions:
REMARK  status: ('A' for Active; 'I' for Inactive)
REMARK    1  A    between atoms: C_2  and  C_3
REMARK    2  A    between atoms: C_6  and  N_7
REMARK    3  A    between atoms: C_17  and  C_18
REMARK                            x       y       z     vdW  Elec       q    Type
REMARK                         _______ _______ _______ _____ _____    ______ ____
ROOT
ATOM      1  O   UNL     1       1.934  11.248  19.223  0.00  0.00    +0.000 OA
ATOM      2  C   UNL     1       1.094  10.366  19.051  0.00  0.00    +0.000 C 
ATOM      3  N   UNL     1      -0.258  10.653  18.814  0.00  0.00    +0.000 N 
ATOM      4  C   UNL     1      -1.323   9.690  18.521  0.00  0.00    +0.000 C 
ATOM      5  C   UNL     1      -2.144  10.103  17.307  0.00  0.00    +0.000 C 
ATOM      6  C   UNL     1      -2.655  11.535  17.400  0.00  0.00    +0.000 C 
ATOM      7  C   UNL     1      -1.533  12.505  17.785  0.00  0.00    +0.000 C 
ATOM      8  C   UNL     1      -0.717  12.032  18.986  0.00  0.00    +0.000 C 
ENDROOT
BRANCH   6   9
ATOM      9  C   UNL     1      -3.849  11.657  18.293  0.00  0.00    +0.000 A 
ATOM     10  N   UNL     1      -4.042  12.409  19.360  0.00  0.00    +0.000 NA
ATOM     11  C   UNL     1      -5.268  11.996  19.832  0.00  0.00    +0.000 A 
ATOM     12  C   UNL     1      -6.017  12.383  20.953  0.00  0.00    +0.000 A 
ATOM     13  C   UNL     1      -7.244  11.736  21.183  0.00  0.00    +0.000 A 
ATOM     14  C   UNL     1      -7.715  10.741  20.317  0.00  0.00    +0.000 A 
ATOM     15  C   UNL     1      -6.983  10.352  19.190  0.00  0.00    +0.000 A 
ATOM     16  C   UNL     1      -5.774  11.009  19.003  0.00  0.00    +0.000 A 
ATOM     17  O   UNL     1      -4.876  10.792  18.006  0.00  0.00    +0.000 OA
ENDBRANCH   6   9
BRANCH   2  18
ATOM     18  C   UNL     1       1.590   8.957  19.076  0.00  0.00    +0.000 A 
ATOM     19  C   UNL     1       2.104   8.325  17.941  0.00  0.00    +0.000 A 
ATOM     20  C   UNL     1       2.645   7.039  18.020  0.00  0.00    +0.000 A 
ATOM     21  C   UNL     1       2.554   6.312  19.213  0.00  0.00    +0.000 A 
ATOM     22  C   UNL     1       1.943   6.898  20.332  0.00  0.00    +0.000 A 
ATOM     23  C   UNL     1       1.478   8.220  20.263  0.00  0.00    +0.000 A 
BRANCH  21  24
ATOM     24  N   UNL     1       3.030   4.982  19.275  0.00  0.00    +0.000 N 
ATOM     25  C   UNL     1       3.450   4.163  18.256  0.00  0.00    +0.000 A 
ATOM     26  N   UNL     1       3.744   2.978  18.743  0.00  0.00    +0.000 NA
ATOM     27  N   UNL     1       3.521   3.068  20.091  0.00  0.00    +0.000 NA
ATOM     28  N   UNL     1       3.112   4.284  20.429  0.00  0.00    +0.000 NA
ENDBRANCH  21  24
ENDBRANCH   2  18
TORSDOF 3
ENDMDL
MODEL 8
REMARK VINA RESULT:      -7.9      1.265      1.795
REMARK  Name = 
REMARK  3 active torsions:
REMARK  status: ('A' for Active; 'I' for Inactive)
REMARK    1  A    between atoms: C_2  and  C_3
REMARK    2  A    between atoms: C_6  and  N_7
REMARK    3  A    between atoms: C_17  and  C_18
REMARK                            x       y       z     vdW  Elec       q    Type
REMARK                         _______ _______ _______ _____ _____    ______ ____
ROOT
ATOM      1  O   UNL     1       1.908   7.222  21.198  0.00  0.00    +0.000 OA
ATOM      2  C   UNL     1       1.869   7.688  20.059  0.00  0.00    +0.000 C 
ATOM      3  N   UNL     1       0.999   8.728  19.703  0.00  0.00    +0.000 N 
ATOM      4  C   UNL     1       0.924   9.407  18.407  0.00  0.00    +0.000 C 
ATOM      5  C   UNL     1       0.930  10.921  18.558  0.00  0.00    +0.000 C 
ATOM      6  C   UNL     1      -0.117  11.420  19.545  0.00  0.00    +0.000 C 
ATOM      7  C   UNL     1      -0.063  10.637  20.861  0.00  0.00    +0.000 C 
ATOM      8  C   UNL     1      -0.038   9.124  20.657  0.00  0.00    +0.000 C 
ENDROOT
BRANCH   6   9
ATOM      9  C   UNL     1      -1.490  11.450  18.951  0.00  0.00    +0.000 A 
ATOM     10  N   UNL     1      -1.892  11.183  17.723  0.00  0.00    +0.000 NA
ATOM     11  C   UNL     1      -3.230  11.509  17.741  0.00  0.00    +0.000 A 
ATOM     12  C   UNL     1      -4.213  11.482  16.741  0.00  0.00    +0.000 A 
ATOM     13  C   UNL     1      -5.508  11.917  17.075  0.00  0.00    +0.000 A 
ATOM     14  C   UNL     1      -5.817  12.357  18.369  0.00  0.00    +0.000 A 
ATOM     15  C   UNL     1      -4.849  12.379  19.378  0.00  0.00    +0.000 A 
ATOM     16  C   UNL     1      -3.582  11.950  19.006  0.00  0.00    +0.000 A 
ATOM     17  O   UNL     1      -2.475  11.905  19.793  0.00  0.00    +0.000 OA
ENDBRANCH   6   9
BRANCH   2  18
ATOM     18  C   UNL     1       2.825   7.109  19.068  0.00  0.00    +0.000 A 
ATOM     19  C   UNL     1       3.139   7.752  17.868  0.00  0.00    +0.000 A 
ATOM     20  C   UNL     1       4.107   7.230  17.007  0.00  0.00    +0.000 A 
ATOM     21  C   UNL     1       4.678   5.979  17.270  0.00  0.00    +0.000 A 
ATOM     22  C   UNL     1       4.292   5.274  18.419  0.00  0.00    +0.000 A 
ATOM     23  C   UNL     1       3.381   5.846  19.319  0.00  0.00    +0.000 A 
BRANCH  21  24
ATOM     24  N   UNL     1       5.600   5.411  16.360  0.00  0.00    +0.000 N 
ATOM     25  C   UNL     1       5.518   4.229  15.667  0.00  0.00    +0.000 A 
ATOM     26  N   UNL     1       6.626   4.045  14.986  0.00  0.00    +0.000 NA
ATOM     27  N   UNL     1       7.404   5.143  15.244  0.00  0.00    +0.000 NA
ATOM     28  N   UNL     1       6.783   5.988  16.056  0.00  0.00    +0.000 NA
ENDBRANCH  21  24
ENDBRANCH   2  18
TORSDOF 3
ENDMDL
MODEL 9
REMARK VINA RESULT:      -7.9      4.249      5.534
REMARK  Name = 
REMARK  3 active torsions:
REMARK  status: ('A' for Active; 'I' for Inactive)
REMARK    1  A    between atoms: C_2  and  C_3
REMARK    2  A    between atoms: C_6  and  N_7
REMARK    3  A    between atoms: C_17  and  C_18
REMARK                            x       y       z     vdW  Elec       q    Type
REMARK                         _______ _______ _______ _____ _____    ______ ____
ROOT
ATOM      1  O   UNL     1      -0.779   9.906  20.867  0.00  0.00    +0.000 OA
ATOM      2  C   UNL     1       0.177  10.350  20.233  0.00  0.00    +0.000 C 
ATOM      3  N   UNL     1       0.460  11.722  20.166  0.00  0.00    +0.000 N 
ATOM      4  C   UNL     1       1.608  12.352  19.510  0.00  0.00    +0.000 C 
ATOM      5  C   UNL     1       2.300  13.359  20.417  0.00  0.00    +0.000 C 
ATOM      6  C   UNL     1       1.335  14.374  21.016  0.00  0.00    +0.000 C 
ATOM      7  C   UNL     1       0.107  13.688  21.624  0.00  0.00    +0.000 C 
ATOM      8  C   UNL     1      -0.531  12.663  20.690  0.00  0.00    +0.000 C 
ENDROOT
BRANCH   6   9
ATOM      9  C   UNL     1       0.966  15.451  20.044  0.00  0.00    +0.000 A 
ATOM     10  N   UNL     1      -0.209  15.983  19.767  0.00  0.00    +0.000 NA
ATOM     11  C   UNL     1       0.054  16.821  18.707  0.00  0.00    +0.000 A 
ATOM     12  C   UNL     1      -0.779  17.646  17.937  0.00  0.00    +0.000 A 
ATOM     13  C   UNL     1      -0.199  18.370  16.881  0.00  0.00    +0.000 A 
ATOM     14  C   UNL     1       1.172  18.282  16.605  0.00  0.00    +0.000 A 
ATOM     15  C   UNL     1       2.016  17.472  17.371  0.00  0.00    +0.000 A 
ATOM     16  C   UNL     1       1.403  16.767  18.399  0.00  0.00    +0.000 A 
ATOM     17  O   UNL     1       1.999  15.900  19.259  0.00  0.00    +0.000 OA
ENDBRANCH   6   9
BRANCH   2  18
ATOM     18  C   UNL     1       1.053   9.349  19.555  0.00  0.00    +0.000 A 
ATOM     19  C   UNL     1       1.375   9.433  18.198  0.00  0.00    +0.000 A 
ATOM     20  C   UNL     1       2.272   8.533  17.617  0.00  0.00    +0.000 A 
ATOM     21  C   UNL     1       2.753   7.448  18.356  0.00  0.00    +0.000 A 
ATOM     22  C   UNL     1       2.352   7.291  19.692  0.00  0.00    +0.000 A 
ATOM     23  C   UNL     1       1.518   8.248  20.289  0.00  0.00    +0.000 A 
BRANCH  21  24
ATOM     24  N   UNL     1       3.599   6.490  17.749  0.00  0.00    +0.000 N 
ATOM     25  C   UNL     1       3.731   5.151  18.024  0.00  0.00    +0.000 A 
ATOM     26  N   UNL     1       4.683   4.644  17.274  0.00  0.00    +0.000 NA
ATOM     27  N   UNL     1       5.139   5.682  16.505  0.00  0.00    +0.000 NA
ATOM     28  N   UNL     1       4.473   6.799  16.766  0.00  0.00    +0.000 NA
ENDBRANCH  21  24
ENDBRANCH   2  18
TORSDOF 3
ENDMDL
