MODEL 1
REMARK VINA RESULT:      -8.4      0.000      0.000
REMARK  Name = 
REMARK  4 active torsions:
REMARK  status: ('A' for Active; 'I' for Inactive)
REMARK    1  A    between atoms: S_2  and  N_4
REMARK    2  A    between atoms: S_2  and  C_19
REMARK    3  A    between atoms: C_8  and  C_9
REMARK    4  A    between atoms: C_9  and  C_10
REMARK                            x       y       z     vdW  Elec       q    Type
REMARK                         _______ _______ _______ _____ _____    ______ ____
ROOT
ATOM      1  N   UNL     1       3.351   4.454  18.796  0.00  0.00    +0.000 N 
ATOM      2  C   UNL     1       2.808   5.719  19.159  0.00  0.00    +0.000 A 
ATOM      3  N   UNL     1       2.227   5.850  20.326  0.00  0.00    +0.000 NA
ATOM      4  N   UNL     1       1.678   7.106  20.478  0.00  0.00    +0.000 NA
ATOM      5  C   UNL     1       1.842   7.850  19.402  0.00  0.00    +0.000 A 
ATOM      6  S   UNL     1       2.669   7.070  18.118  0.00  0.00    +0.000 S 
ATOM      7  H   UNL     1       2.982   3.804  19.497  0.00  0.00    +0.000 HD
ENDROOT
BRANCH   1   9
ATOM      8  O   UNL     1       5.449   5.655  19.725  0.00  0.00    +0.000 OA
ATOM      9  S   UNL     1       5.026   4.445  19.054  0.00  0.00    +0.000 S 
ATOM     10  O   UNL     1       5.356   3.132  19.564  0.00  0.00    +0.000 OA
BRANCH   9  11
ATOM     11  C   UNL     1       5.630   4.535  17.384  0.00  0.00    +0.000 A 
ATOM     12  C   UNL     1       6.985   4.802  17.153  0.00  0.00    +0.000 A 
ATOM     13  C   UNL     1       7.474   4.796  15.847  0.00  0.00    +0.000 A 
ATOM     14  C   UNL     1       6.611   4.518  14.790  0.00  0.00    +0.000 A 
ATOM     15  F   UNL     1       7.088   4.499  13.538  0.00  0.00    +0.000 F 
ATOM     16  C   UNL     1       5.264   4.248  15.012  0.00  0.00    +0.000 A 
ATOM     17  C   UNL     1       4.765   4.250  16.316  0.00  0.00    +0.000 A 
ENDBRANCH   9  11
ENDBRANCH   1   9
BRANCH   5  18
ATOM     18  C   UNL     1       1.250   9.268  19.321  0.00  0.00    +0.000 C 
ATOM     19  C   UNL     1       0.651   9.666  17.976  0.00  0.00    +0.000 C 
ATOM     20  C   UNL     1       1.918  10.316  18.456  0.00  0.00    +0.000 C 
BRANCH  18  21
ATOM     21  C   UNL     1       0.431   9.699  20.533  0.00  0.00    +0.000 A 
ATOM     22  C   UNL     1      -0.039   8.778  21.485  0.00  0.00    +0.000 A 
ATOM     23  C   UNL     1      -0.559   9.206  22.710  0.00  0.00    +0.000 A 
ATOM     24  C   UNL     1      -0.659  10.566  22.989  0.00  0.00    +0.000 A 
ATOM     25  C   UNL     1      -0.287  11.498  22.027  0.00  0.00    +0.000 A 
ATOM     26  C   UNL     1       0.244  11.066  20.811  0.00  0.00    +0.000 A 
ENDBRANCH  18  21
ENDBRANCH   5  18
TORSDOF 4
ENDMDL
MODEL 2
REMARK VINA RESULT:      -8.4      0.258      1.365
REMARK  Name = 
REMARK  4 active torsions:
REMARK  status: ('A' for Active; 'I' for Inactive)
REMARK    1  A    between atoms: S_2  and  N_4
REMARK    2  A    between atoms: S_2  and  C_19
REMARK    3  A    between atoms: C_8  and  C_9
REMARK    4  A    between atoms: C_9  and  C_10
REMARK                            x       y       z     vdW  Elec       q    Type
REMARK                         _______ _______ _______ _____ _____    ______ ____
ROOT
ATOM      1  N   UNL     1       3.388   4.496  18.718  0.00  0.00    +0.000 N 
ATOM      2  C   UNL     1       2.838   5.748  19.112  0.00  0.00    +0.000 A 
ATOM      3  N   UNL     1       2.206   5.834  20.257  0.00  0.00    +0.000 NA
ATOM      4  N   UNL     1       1.660   7.086  20.439  0.00  0.00    +0.000 NA
ATOM      5  C   UNL     1       1.878   7.876  19.406  0.00  0.00    +0.000 A 
ATOM      6  S   UNL     1       2.755   7.145  18.127  0.00  0.00    +0.000 S 
ATOM      7  H   UNL     1       2.984   3.819  19.372  0.00  0.00    +0.000 HD
ENDROOT
BRANCH   1   9
ATOM      8  O   UNL     1       5.467   5.677  19.713  0.00  0.00    +0.000 OA
ATOM      9  S   UNL     1       5.050   4.460  19.050  0.00  0.00    +0.000 S 
ATOM     10  O   UNL     1       5.331   3.153  19.601  0.00  0.00    +0.000 OA
BRANCH   9  11
ATOM     11  C   UNL     1       5.727   4.503  17.406  0.00  0.00    +0.000 A 
ATOM     12  C   UNL     1       5.058   3.848  16.366  0.00  0.00    +0.000 A 
ATOM     13  C   UNL     1       5.547   3.946  15.063  0.00  0.00    +0.000 A 
ATOM     14  C   UNL     1       6.690   4.701  14.813  0.00  0.00    +0.000 A 
ATOM     15  F   UNL     1       7.148   4.805  13.558  0.00  0.00    +0.000 F 
ATOM     16  C   UNL     1       7.358   5.360  15.841  0.00  0.00    +0.000 A 
ATOM     17  C   UNL     1       6.875   5.268  17.148  0.00  0.00    +0.000 A 
ENDBRANCH   9  11
ENDBRANCH   1   9
BRANCH   5  18
ATOM     18  C   UNL     1       1.300   9.301  19.361  0.00  0.00    +0.000 C 
ATOM     19  C   UNL     1       0.471   9.648  18.129  0.00  0.00    +0.000 C 
ATOM     20  C   UNL     1       1.813  10.292  18.337  0.00  0.00    +0.000 C 
BRANCH  18  21
ATOM     21  C   UNL     1       0.721   9.807  20.677  0.00  0.00    +0.000 A 
ATOM     22  C   UNL     1       0.542  11.177  20.940  0.00  0.00    +0.000 A 
ATOM     23  C   UNL     1      -0.218  11.612  22.029  0.00  0.00    +0.000 A 
ATOM     24  C   UNL     1      -0.779  10.685  22.903  0.00  0.00    +0.000 A 
ATOM     25  C   UNL     1      -0.539   9.328  22.719  0.00  0.00    +0.000 A 
ATOM     26  C   UNL     1       0.209   8.898  21.623  0.00  0.00    +0.000 A 
ENDBRANCH  18  21
ENDBRANCH   5  18
TORSDOF 4
ENDMDL
MODEL 3
REMARK VINA RESULT:      -8.2      4.650      9.037
REMARK  Name = 
REMARK  4 active torsions:
REMARK  status: ('A' for Active; 'I' for Inactive)
REMARK    1  A    between atoms: S_2  and  N_4
REMARK    2  A    between atoms: S_2  and  C_19
REMARK    3  A    between atoms: C_8  and  C_9
REMARK    4  A    between atoms: C_9  and  C_10
REMARK                            x       y       z     vdW  Elec       q    Type
REMARK                         _______ _______ _______ _____ _____    ______ ____
ROOT
ATOM      1  N   UNL     1       1.079  10.790  19.635  0.00  0.00    +0.000 N 
ATOM      2  C   UNL     1       1.404   9.406  19.564  0.00  0.00    +0.000 A 
ATOM      3  N   UNL     1       1.370   8.687  20.660  0.00  0.00    +0.000 NA
ATOM      4  N   UNL     1       1.800   7.398  20.431  0.00  0.00    +0.000 NA
ATOM      5  C   UNL     1       2.171   7.216  19.179  0.00  0.00    +0.000 A 
ATOM      6  S   UNL     1       2.036   8.608  18.188  0.00  0.00    +0.000 S 
ATOM      7  H   UNL     1       1.065  11.000  20.638  0.00  0.00    +0.000 HD
ENDROOT
BRANCH   1   9
ATOM      8  O   UNL     1      -0.602  12.140  18.199  0.00  0.00    +0.000 OA
ATOM      9  S   UNL     1      -0.521  11.037  19.132  0.00  0.00    +0.000 S 
ATOM     10  O   UNL     1      -1.061   9.731  18.822  0.00  0.00    +0.000 OA
BRANCH   9  11
ATOM     11  C   UNL     1      -1.276  11.579  20.648  0.00  0.00    +0.000 A 
ATOM     12  C   UNL     1      -2.379  12.440  20.601  0.00  0.00    +0.000 A 
ATOM     13  C   UNL     1      -3.020  12.803  21.786  0.00  0.00    +0.000 A 
ATOM     14  C   UNL     1      -2.558  12.300  23.000  0.00  0.00    +0.000 A 
ATOM     15  F   UNL     1      -3.185  12.641  24.134  0.00  0.00    +0.000 F 
ATOM     16  C   UNL     1      -1.465  11.440  23.055  0.00  0.00    +0.000 A 
ATOM     17  C   UNL     1      -0.819  11.070  21.873  0.00  0.00    +0.000 A 
ENDBRANCH   9  11
ENDBRANCH   1   9
BRANCH   5  18
ATOM     18  C   UNL     1       2.752   5.869  18.712  0.00  0.00    +0.000 C 
ATOM     19  C   UNL     1       1.874   5.054  17.768  0.00  0.00    +0.000 C 
ATOM     20  C   UNL     1       2.116   4.573  19.171  0.00  0.00    +0.000 C 
BRANCH  18  21
ATOM     21  C   UNL     1       4.230   5.895  18.340  0.00  0.00    +0.000 A 
ATOM     22  C   UNL     1       4.716   6.639  17.251  0.00  0.00    +0.000 A 
ATOM     23  C   UNL     1       6.085   6.859  17.077  0.00  0.00    +0.000 A 
ATOM     24  C   UNL     1       6.999   6.302  17.967  0.00  0.00    +0.000 A 
ATOM     25  C   UNL     1       6.550   5.485  18.999  0.00  0.00    +0.000 A 
ATOM     26  C   UNL     1       5.182   5.279  19.175  0.00  0.00    +0.000 A 
ENDBRANCH  18  21
ENDBRANCH   5  18
TORSDOF 4
ENDMDL
MODEL 4
REMARK VINA RESULT:      -8.2      4.830      8.904
REMARK  Name = 
REMARK  4 active torsions:
REMARK  status: ('A' for Active; 'I' for Inactive)
REMARK    1  A    between atoms: S_2  and  N_4
REMARK    2  A    between atoms: S_2  and  C_19
REMARK    3  A    between atoms: C_8  and  C_9
REMARK    4  A    between atoms: C_9  and  C_10
REMARK                            x       y       z     vdW  Elec       q    Type
REMARK                         _______ _______ _______ _____ _____    ______ ____
ROOT
ATOM      1  N   UNL     1       0.987  10.971  19.717  0.00  0.00    +0.000 N 
ATOM      2  C   UNL     1       1.394   9.615  19.570  0.00  0.00    +0.000 A 
ATOM      3  N   UNL     1       1.367   8.825  20.616  0.00  0.00    +0.000 NA
ATOM      4  N   UNL     1       1.877   7.579  20.322  0.00  0.00    +0.000 NA
ATOM      5  C   UNL     1       2.298   7.500  19.074  0.00  0.00    +0.000 A 
ATOM      6  S   UNL     1       2.113   8.944  18.169  0.00  0.00    +0.000 S 
ATOM      7  H   UNL     1       0.930  11.115  20.730  0.00  0.00    +0.000 HD
ENDROOT
BRANCH   1   9
ATOM      8  O   UNL     1      -0.696  12.229  18.203  0.00  0.00    +0.000 OA
ATOM      9  S   UNL     1      -0.608  11.161  19.175  0.00  0.00    +0.000 S 
ATOM     10  O   UNL     1      -1.109   9.833  18.900  0.00  0.00    +0.000 OA
BRANCH   9  11
ATOM     11  C   UNL     1      -1.405  11.736  20.657  0.00  0.00    +0.000 A 
ATOM     12  C   UNL     1      -2.587  12.480  20.560  0.00  0.00    +0.000 A 
ATOM     13  C   UNL     1      -3.255  12.865  21.723  0.00  0.00    +0.000 A 
ATOM     14  C   UNL     1      -2.742  12.497  22.964  0.00  0.00    +0.000 A 
ATOM     15  F   UNL     1      -3.394  12.856  24.078  0.00  0.00    +0.000 F 
ATOM     16  C   UNL     1      -1.570  11.753  23.069  0.00  0.00    +0.000 A 
ATOM     17  C   UNL     1      -0.896  11.363  21.910  0.00  0.00    +0.000 A 
ENDBRANCH   9  11
ENDBRANCH   1   9
BRANCH   5  18
ATOM     18  C   UNL     1       2.969   6.221  18.544  0.00  0.00    +0.000 C 
ATOM     19  C   UNL     1       4.494   6.209  18.564  0.00  0.00    +0.000 C 
ATOM     20  C   UNL     1       3.760   6.263  17.253  0.00  0.00    +0.000 C 
BRANCH  18  21
ATOM     21  C   UNL     1       2.319   4.916  18.988  0.00  0.00    +0.000 A 
ATOM     22  C   UNL     1       2.037   4.640  20.338  0.00  0.00    +0.000 A 
ATOM     23  C   UNL     1       1.218   3.568  20.702  0.00  0.00    +0.000 A 
ATOM     24  C   UNL     1       0.699   2.723  19.725  0.00  0.00    +0.000 A 
ATOM     25  C   UNL     1       1.039   2.918  18.390  0.00  0.00    +0.000 A 
ATOM     26  C   UNL     1       1.846   3.998  18.031  0.00  0.00    +0.000 A 
ENDBRANCH  18  21
ENDBRANCH   5  18
TORSDOF 4
ENDMDL
MODEL 5
REMARK VINA RESULT:      -8.1      2.531      3.990
REMARK  Name = 
REMARK  4 active torsions:
REMARK  status: ('A' for Active; 'I' for Inactive)
REMARK    1  A    between atoms: S_2  and  N_4
REMARK    2  A    between atoms: S_2  and  C_19
REMARK    3  A    between atoms: C_8  and  C_9
REMARK    4  A    between atoms: C_9  and  C_10
REMARK                            x       y       z     vdW  Elec       q    Type
REMARK                         _______ _______ _______ _____ _____    ______ ____
ROOT
ATOM      1  N   UNL     1       6.288   4.137  16.605  0.00  0.00    +0.000 N 
ATOM      2  C   UNL     1       5.392   4.637  17.590  0.00  0.00    +0.000 A 
ATOM      3  N   UNL     1       5.876   5.085  18.723  0.00  0.00    +0.000 NA
ATOM      4  N   UNL     1       4.871   5.444  19.596  0.00  0.00    +0.000 NA
ATOM      5  C   UNL     1       3.674   5.216  19.091  0.00  0.00    +0.000 A 
ATOM      6  S   UNL     1       3.685   4.536  17.517  0.00  0.00    +0.000 S 
ATOM      7  H   UNL     1       7.184   4.048  17.093  0.00  0.00    +0.000 HD
ENDROOT
BRANCH   1   9
ATOM      8  O   UNL     1       5.603   6.391  15.527  0.00  0.00    +0.000 OA
ATOM      9  S   UNL     1       6.570   5.319  15.422  0.00  0.00    +0.000 S 
ATOM     10  O   UNL     1       7.994   5.570  15.423  0.00  0.00    +0.000 OA
BRANCH   9  11
ATOM     11  C   UNL     1       6.189   4.415  13.939  0.00  0.00    +0.000 A 
ATOM     12  C   UNL     1       7.206   4.146  13.014  0.00  0.00    +0.000 A 
ATOM     13  C   UNL     1       6.924   3.371  11.889  0.00  0.00    +0.000 A 
ATOM     14  C   UNL     1       5.639   2.868  11.703  0.00  0.00    +0.000 A 
ATOM     15  F   UNL     1       5.377   2.112  10.629  0.00  0.00    +0.000 F 
ATOM     16  C   UNL     1       4.624   3.127  12.620  0.00  0.00    +0.000 A 
ATOM     17  C   UNL     1       4.897   3.901  13.750  0.00  0.00    +0.000 A 
ENDBRANCH   9  11
ENDBRANCH   1   9
BRANCH   5  18
ATOM     18  C   UNL     1       2.403   5.478  19.917  0.00  0.00    +0.000 C 
ATOM     19  C   UNL     1       2.281   4.696  21.221  0.00  0.00    +0.000 C 
ATOM     20  C   UNL     1       1.365   4.386  20.071  0.00  0.00    +0.000 C 
BRANCH  18  21
ATOM     21  C   UNL     1       1.981   6.940  20.012  0.00  0.00    +0.000 A 
ATOM     22  C   UNL     1       2.130   7.834  18.938  0.00  0.00    +0.000 A 
ATOM     23  C   UNL     1       1.512   9.087  18.949  0.00  0.00    +0.000 A 
ATOM     24  C   UNL     1       0.766   9.489  20.053  0.00  0.00    +0.000 A 
ATOM     25  C   UNL     1       0.681   8.660  21.167  0.00  0.00    +0.000 A 
ATOM     26  C   UNL     1       1.289   7.405  21.147  0.00  0.00    +0.000 A 
ENDBRANCH  18  21
ENDBRANCH   5  18
TORSDOF 4
ENDMDL
MODEL 6
REMARK VINA RESULT:      -8.0      3.882      5.062
REMARK  Name = 
REMARK  4 active torsions:
REMARK  status: ('A' for Active; 'I' for Inactive)
REMARK    1  A    between atoms: S_2  and  N_4
REMARK    2  A    between atoms: S_2  and  C_19
REMARK    3  A    between atoms: C_8  and  C_9
REMARK    4  A    between atoms: C_9  and  C_10
REMARK                            x       y       z     vdW  Elec       q    Type
REMARK                         _______ _______ _______ _____ _____    ______ ____
ROOT
ATOM      1  N   UNL     1       3.443   6.502  18.472  0.00  0.00    +0.000 N 
ATOM      2  C   UNL     1       2.617   7.660  18.446  0.00  0.00    +0.000 A 
ATOM      3  N   UNL     1       2.784   8.540  17.489  0.00  0.00    +0.000 NA
ATOM      4  N   UNL     1       1.970   9.638  17.666  0.00  0.00    +0.000 NA
ATOM      5  C   UNL     1       1.252   9.549  18.768  0.00  0.00    +0.000 A 
ATOM      6  S   UNL     1       1.524   8.123  19.680  0.00  0.00    +0.000 S 
ATOM      7  H   UNL     1       4.184   6.698  17.793  0.00  0.00    +0.000 HD
ENDROOT
BRANCH   1   9
ATOM      8  O   UNL     1       1.398   5.612  17.156  0.00  0.00    +0.000 OA
ATOM      9  S   UNL     1       2.611   5.179  17.815  0.00  0.00    +0.000 S 
ATOM     10  O   UNL     1       3.599   4.366  17.141  0.00  0.00    +0.000 OA
BRANCH   9  11
ATOM     11  C   UNL     1       2.125   4.314  19.290  0.00  0.00    +0.000 A 
ATOM     12  C   UNL     1       1.179   3.285  19.207  0.00  0.00    +0.000 A 
ATOM     13  C   UNL     1       0.855   2.554  20.350  0.00  0.00    +0.000 A 
ATOM     14  C   UNL     1       1.481   2.853  21.558  0.00  0.00    +0.000 A 
ATOM     15  F   UNL     1       1.177   2.139  22.650  0.00  0.00    +0.000 F 
ATOM     16  C   UNL     1       2.425   3.871  21.648  0.00  0.00    +0.000 A 
ATOM     17  C   UNL     1       2.757   4.607  20.508  0.00  0.00    +0.000 A 
ENDBRANCH   9  11
ENDBRANCH   1   9
BRANCH   5  18
ATOM     18  C   UNL     1       0.321  10.694  19.203  0.00  0.00    +0.000 C 
ATOM     19  C   UNL     1       0.988  12.045  19.438  0.00  0.00    +0.000 C 
ATOM     20  C   UNL     1       0.433  11.269  20.599  0.00  0.00    +0.000 C 
BRANCH  18  21
ATOM     21  C   UNL     1      -1.010  10.765  18.462  0.00  0.00    +0.000 A 
ATOM     22  C   UNL     1      -1.340   9.872  17.428  0.00  0.00    +0.000 A 
ATOM     23  C   UNL     1      -2.646   9.783  16.938  0.00  0.00    +0.000 A 
ATOM     24  C   UNL     1      -3.640  10.616  17.444  0.00  0.00    +0.000 A 
ATOM     25  C   UNL     1      -3.318  11.572  18.401  0.00  0.00    +0.000 A 
ATOM     26  C   UNL     1      -2.016  11.649  18.896  0.00  0.00    +0.000 A 
ENDBRANCH  18  21
ENDBRANCH   5  18
TORSDOF 4
ENDMDL
MODEL 7
REMARK VINA RESULT:      -8.0      4.734      8.876
REMARK  Name = 
REMARK  4 active torsions:
REMARK  status: ('A' for Active; 'I' for Inactive)
REMARK    1  A    between atoms: S_2  and  N_4
REMARK    2  A    between atoms: S_2  and  C_19
REMARK    3  A    between atoms: C_8  and  C_9
REMARK    4  A    between atoms: C_9  and  C_10
REMARK                            x       y       z     vdW  Elec       q    Type
REMARK                         _______ _______ _______ _____ _____    ______ ____
ROOT
ATOM      1  N   UNL     1       0.161  10.263  19.326  0.00  0.00    +0.000 N 
ATOM      2  C   UNL     1       1.163   9.349  18.895  0.00  0.00    +0.000 A 
ATOM      3  N   UNL     1       1.848   9.620  17.811  0.00  0.00    +0.000 NA
ATOM      4  N   UNL     1       2.707   8.592  17.487  0.00  0.00    +0.000 NA
ATOM      5  C   UNL     1       2.604   7.579  18.324  0.00  0.00    +0.000 A 
ATOM      6  S   UNL     1       1.441   7.799  19.565  0.00  0.00    +0.000 S 
ATOM      7  H   UNL     1       0.040  10.904  18.537  0.00  0.00    +0.000 HD
ENDROOT
BRANCH   1   9
ATOM      8  O   UNL     1       1.426  10.440  21.580  0.00  0.00    +0.000 OA
ATOM      9  S   UNL     1       0.765  11.242  20.572  0.00  0.00    +0.000 S 
ATOM     10  O   UNL     1       1.419  12.363  19.935  0.00  0.00    +0.000 OA
BRANCH   9  11
ATOM     11  C   UNL     1      -0.745  11.845  21.294  0.00  0.00    +0.000 A 
ATOM     12  C   UNL     1      -1.713  12.436  20.474  0.00  0.00    +0.000 A 
ATOM     13  C   UNL     1      -2.930  12.839  21.026  0.00  0.00    +0.000 A 
ATOM     14  C   UNL     1      -3.167  12.642  22.384  0.00  0.00    +0.000 A 
ATOM     15  F   UNL     1      -4.342  13.017  22.908  0.00  0.00    +0.000 F 
ATOM     16  C   UNL     1      -2.211  12.050  23.205  0.00  0.00    +0.000 A 
ATOM     17  C   UNL     1      -0.992  11.643  22.660  0.00  0.00    +0.000 A 
ENDBRANCH   9  11
ENDBRANCH   1   9
BRANCH   5  18
ATOM     18  C   UNL     1       3.420   6.292  18.116  0.00  0.00    +0.000 C 
ATOM     19  C   UNL     1       4.925   6.411  18.339  0.00  0.00    +0.000 C 
ATOM     20  C   UNL     1       4.386   6.190  16.954  0.00  0.00    +0.000 C 
BRANCH  18  21
ATOM     21  C   UNL     1       2.793   5.026  18.689  0.00  0.00    +0.000 A 
ATOM     22  C   UNL     1       2.866   4.706  20.056  0.00  0.00    +0.000 A 
ATOM     23  C   UNL     1       2.078   3.691  20.605  0.00  0.00    +0.000 A 
ATOM     24  C   UNL     1       1.231   2.946  19.789  0.00  0.00    +0.000 A 
ATOM     25  C   UNL     1       1.210   3.181  18.418  0.00  0.00    +0.000 A 
ATOM     26  C   UNL     1       1.989   4.204  17.877  0.00  0.00    +0.000 A 
ENDBRANCH  18  21
ENDBRANCH   5  18
TORSDOF 4
ENDMDL
MODEL 8
REMARK VINA RESULT:      -7.9      1.140      2.353
REMARK  Name = 
REMARK  4 active torsions:
REMARK  status: ('A' for Active; 'I' for Inactive)
REMARK    1  A    between atoms: S_2  and  N_4
REMARK    2  A    between atoms: S_2  and  C_19
REMARK    3  A    between atoms: C_8  and  C_9
REMARK    4  A    between atoms: C_9  and  C_10
REMARK                            x       y       z     vdW  Elec       q    Type
REMARK                         _______ _______ _______ _____ _____    ______ ____
ROOT
ATOM      1  N   UNL     1       3.198   4.750  18.562  0.00  0.00    +0.000 N 
ATOM      2  C   UNL     1       2.556   5.702  19.403  0.00  0.00    +0.000 A 
ATOM      3  N   UNL     1       1.859   5.278  20.429  0.00  0.00    +0.000 NA
ATOM      4  N   UNL     1       1.232   6.319  21.079  0.00  0.00    +0.000 NA
ATOM      5  C   UNL     1       1.459   7.477  20.490  0.00  0.00    +0.000 A 
ATOM      6  S   UNL     1       2.445   7.381  19.090  0.00  0.00    +0.000 S 
ATOM      7  H   UNL     1       2.799   3.848  18.842  0.00  0.00    +0.000 HD
ENDROOT
BRANCH   1   9
ATOM      8  O   UNL     1       5.274   5.795  19.705  0.00  0.00    +0.000 OA
ATOM      9  S   UNL     1       4.839   4.627  18.970  0.00  0.00    +0.000 S 
ATOM     10  O   UNL     1       5.038   3.287  19.475  0.00  0.00    +0.000 OA
BRANCH   9  11
ATOM     11  C   UNL     1       5.597   4.709  17.363  0.00  0.00    +0.000 A 
ATOM     12  C   UNL     1       4.814   5.026  16.246  0.00  0.00    +0.000 A 
ATOM     13  C   UNL     1       5.422   5.167  14.999  0.00  0.00    +0.000 A 
ATOM     14  C   UNL     1       6.799   4.998  14.881  0.00  0.00    +0.000 A 
ATOM     15  F   UNL     1       7.381   5.148  13.683  0.00  0.00    +0.000 F 
ATOM     16  C   UNL     1       7.584   4.687  15.987  0.00  0.00    +0.000 A 
ATOM     17  C   UNL     1       6.985   4.546  17.240  0.00  0.00    +0.000 A 
ENDBRANCH   9  11
ENDBRANCH   1   9
BRANCH   5  18
ATOM     18  C   UNL     1       0.803   8.770  21.004  0.00  0.00    +0.000 C 
ATOM     19  C   UNL     1       1.383   9.348  22.291  0.00  0.00    +0.000 C 
ATOM     20  C   UNL     1       0.003   8.751  22.290  0.00  0.00    +0.000 C 
BRANCH  18  21
ATOM     21  C   UNL     1       0.483   9.806  19.932  0.00  0.00    +0.000 A 
ATOM     22  C   UNL     1      -0.740   9.814  19.239  0.00  0.00    +0.000 A 
ATOM     23  C   UNL     1      -1.120  10.906  18.454  0.00  0.00    +0.000 A 
ATOM     24  C   UNL     1      -0.265  11.995  18.312  0.00  0.00    +0.000 A 
ATOM     25  C   UNL     1       0.990  11.971  18.911  0.00  0.00    +0.000 A 
ATOM     26  C   UNL     1       1.360  10.884  19.704  0.00  0.00    +0.000 A 
ENDBRANCH  18  21
ENDBRANCH   5  18
TORSDOF 4
ENDMDL
MODEL 9
REMARK VINA RESULT:      -7.9      4.691      8.928
REMARK  Name = 
REMARK  4 active torsions:
REMARK  status: ('A' for Active; 'I' for Inactive)
REMARK    1  A    between atoms: S_2  and  N_4
REMARK    2  A    between atoms: S_2  and  C_19
REMARK    3  A    between atoms: C_8  and  C_9
REMARK    4  A    between atoms: C_9  and  C_10
REMARK                            x       y       z     vdW  Elec       q    Type
REMARK                         _______ _______ _______ _____ _____    ______ ____
ROOT
ATOM      1  N   UNL     1       0.114   9.674  19.745  0.00  0.00    +0.000 N 
ATOM      2  C   UNL     1       1.166   8.982  19.081  0.00  0.00    +0.000 A 
ATOM      3  N   UNL     1       1.518   9.362  17.877  0.00  0.00    +0.000 NA
ATOM      4  N   UNL     1       2.483   8.532  17.347  0.00  0.00    +0.000 NA
ATOM      5  C   UNL     1       2.787   7.544  18.165  0.00  0.00    +0.000 A 
ATOM      6  S   UNL     1       1.911   7.545  19.639  0.00  0.00    +0.000 S 
ATOM      7  H   UNL     1      -0.314  10.252  19.016  0.00  0.00    +0.000 HD
ENDROOT
BRANCH   1   9
ATOM      8  O   UNL     1       1.383  10.114  21.959  0.00  0.00    +0.000 OA
ATOM      9  S   UNL     1       0.757  10.792  20.845  0.00  0.00    +0.000 S 
ATOM     10  O   UNL     1       1.458  11.784  20.061  0.00  0.00    +0.000 OA
BRANCH   9  11
ATOM     11  C   UNL     1      -0.727  11.553  21.463  0.00  0.00    +0.000 A 
ATOM     12  C   UNL     1      -1.101  11.352  22.797  0.00  0.00    +0.000 A 
ATOM     13  C   UNL     1      -2.222  12.011  23.304  0.00  0.00    +0.000 A 
ATOM     14  C   UNL     1      -2.948  12.866  22.479  0.00  0.00    +0.000 A 
ATOM     15  F   UNL     1      -4.015  13.508  22.974  0.00  0.00    +0.000 F 
ATOM     16  C   UNL     1      -2.579  13.075  21.154  0.00  0.00    +0.000 A 
ATOM     17  C   UNL     1      -1.459  12.421  20.638  0.00  0.00    +0.000 A 
ENDBRANCH   9  11
ENDBRANCH   1   9
BRANCH   5  18
ATOM     18  C   UNL     1       3.792   6.455  17.753  0.00  0.00    +0.000 C 
ATOM     19  C   UNL     1       5.264   6.776  17.995  0.00  0.00    +0.000 C 
ATOM     20  C   UNL     1       4.733   6.697  16.591  0.00  0.00    +0.000 C 
BRANCH  18  21
ATOM     21  C   UNL     1       3.388   5.029  18.112  0.00  0.00    +0.000 A 
ATOM     22  C   UNL     1       4.163   4.222  18.962  0.00  0.00    +0.000 A 
ATOM     23  C   UNL     1       3.660   3.027  19.483  0.00  0.00    +0.000 A 
ATOM     24  C   UNL     1       2.385   2.594  19.131  0.00  0.00    +0.000 A 
ATOM     25  C   UNL     1       1.634   3.327  18.218  0.00  0.00    +0.000 A 
ATOM     26  C   UNL     1       2.136   4.526  17.711  0.00  0.00    +0.000 A 
ENDBRANCH  18  21
ENDBRANCH   5  18
TORSDOF 4
ENDMDL
