MODEL 1
REMARK VINA RESULT:      -8.7      0.000      0.000
REMARK  Name = 
REMARK  4 active torsions:
REMARK  status: ('A' for Active; 'I' for Inactive)
REMARK    1  A    between atoms: C_1  and  N_2
REMARK    2  A    between atoms: C_6  and  C_7
REMARK    3  A    between atoms: C_10  and  N_11
REMARK    4  A    between atoms: C_18  and  C_19
REMARK                            x       y       z     vdW  Elec       q    Type
REMARK                         _______ _______ _______ _____ _____    ______ ____
ROOT
ATOM      1  N   UNL     1       2.320   7.009  19.119  0.00  0.00    +0.000 N 
ATOM      2  C   UNL     1       3.325   7.184  18.079  0.00  0.00    +0.000 C 
ATOM      3  C   UNL     1       3.721   5.780  17.736  0.00  0.00    +0.000 A 
ATOM      4  C   UNL     1       2.985   4.892  18.517  0.00  0.00    +0.000 A 
ATOM      5  C   UNL     1       3.125   3.519  18.442  0.00  0.00    +0.000 A 
ATOM      6  C   UNL     1       4.051   3.021  17.531  0.00  0.00    +0.000 A 
ATOM      7  C   UNL     1       4.804   3.901  16.730  0.00  0.00    +0.000 A 
ATOM      8  C   UNL     1       4.651   5.299  16.822  0.00  0.00    +0.000 A 
ATOM      9  C   UNL     1       2.100   5.658  19.392  0.00  0.00    +0.000 C 
ATOM     10  O   UNL     1       1.354   5.106  20.181  0.00  0.00    +0.000 OA
ENDROOT
BRANCH   1  14
ATOM     11  C   UNL     1       0.578  10.342  21.150  0.00  0.00    +0.000 A 
ATOM     12  C   UNL     1       1.070   9.239  21.845  0.00  0.00    +0.000 A 
ATOM     13  C   UNL     1       1.638   8.152  21.174  0.00  0.00    +0.000 A 
ATOM     14  C   UNL     1       1.703   8.108  19.779  0.00  0.00    +0.000 A 
ATOM     15  C   UNL     1       1.142   9.192  19.085  0.00  0.00    +0.000 A 
ATOM     16  F   UNL     1       1.120   9.213  17.742  0.00  0.00    +0.000 F 
ATOM     17  C   UNL     1       0.589  10.291  19.753  0.00  0.00    +0.000 A 
BRANCH  11  23
ATOM     18  C   UNL     1       0.750  13.398  20.294  0.00  0.00    +0.000 C 
ATOM     19  N   UNL     1       0.148  12.835  21.473  0.00  0.00    +0.000 N 
ATOM     20  C   UNL     1      -0.517  13.558  22.419  0.00  0.00    +0.000 A 
ATOM     21  N   UNL     1      -1.052  12.747  23.296  0.00  0.00    +0.000 NA
ATOM     22  N   UNL     1      -0.728  11.465  22.924  0.00  0.00    +0.000 NA
ATOM     23  C   UNL     1       0.026  11.511  21.838  0.00  0.00    +0.000 A 
ENDBRANCH  11  23
ENDBRANCH   1  14
BRANCH   8  24
ATOM     24  C   UNL     1       5.480   6.205  15.948  0.00  0.00    +0.000 C 
ATOM     25  F   UNL     1       4.743   7.017  15.143  0.00  0.00    +0.000 F 
ATOM     26  F   UNL     1       6.283   7.029  16.674  0.00  0.00    +0.000 F 
ATOM     27  F   UNL     1       6.306   5.508  15.120  0.00  0.00    +0.000 F 
ENDBRANCH   8  24
TORSDOF 3
ENDMDL
MODEL 2
REMARK VINA RESULT:      -8.6      0.581      1.151
REMARK  Name = 
REMARK  4 active torsions:
REMARK  status: ('A' for Active; 'I' for Inactive)
REMARK    1  A    between atoms: C_1  and  N_2
REMARK    2  A    between atoms: C_6  and  C_7
REMARK    3  A    between atoms: C_10  and  N_11
REMARK    4  A    between atoms: C_18  and  C_19
REMARK                            x       y       z     vdW  Elec       q    Type
REMARK                         _______ _______ _______ _____ _____    ______ ____
ROOT
ATOM      1  N   UNL     1       2.396   6.999  18.980  0.00  0.00    +0.000 N 
ATOM      2  C   UNL     1       3.410   7.089  17.938  0.00  0.00    +0.000 C 
ATOM      3  C   UNL     1       3.754   5.657  17.662  0.00  0.00    +0.000 A 
ATOM      4  C   UNL     1       2.983   4.833  18.479  0.00  0.00    +0.000 A 
ATOM      5  C   UNL     1       3.072   3.454  18.468  0.00  0.00    +0.000 A 
ATOM      6  C   UNL     1       3.982   2.881  17.585  0.00  0.00    +0.000 A 
ATOM      7  C   UNL     1       4.770   3.695  16.748  0.00  0.00    +0.000 A 
ATOM      8  C   UNL     1       4.668   5.100  16.775  0.00  0.00    +0.000 A 
ATOM      9  C   UNL     1       2.124   5.671  19.314  0.00  0.00    +0.000 C 
ATOM     10  O   UNL     1       1.357   5.183  20.124  0.00  0.00    +0.000 OA
ENDROOT
BRANCH   1  14
ATOM     11  C   UNL     1       0.770  10.478  20.857  0.00  0.00    +0.000 A 
ATOM     12  C   UNL     1       1.123   9.348  21.594  0.00  0.00    +0.000 A 
ATOM     13  C   UNL     1       1.654   8.214  20.973  0.00  0.00    +0.000 A 
ATOM     14  C   UNL     1       1.818   8.149  19.586  0.00  0.00    +0.000 A 
ATOM     15  C   UNL     1       1.395   9.265  18.847  0.00  0.00    +0.000 A 
ATOM     16  F   UNL     1       1.474   9.272  17.506  0.00  0.00    +0.000 F 
ATOM     17  C   UNL     1       0.880  10.411  19.465  0.00  0.00    +0.000 A 
BRANCH  11  23
ATOM     18  C   UNL     1      -1.372  10.728  23.192  0.00  0.00    +0.000 C 
ATOM     19  N   UNL     1      -0.703  11.783  22.479  0.00  0.00    +0.000 N 
ATOM     20  C   UNL     1      -0.856  13.111  22.747  0.00  0.00    +0.000 A 
ATOM     21  N   UNL     1      -0.023  13.807  22.015  0.00  0.00    +0.000 NA
ATOM     22  N   UNL     1       0.689  12.919  21.244  0.00  0.00    +0.000 NA
ATOM     23  C   UNL     1       0.260  11.693  21.496  0.00  0.00    +0.000 A 
ENDBRANCH  11  23
ENDBRANCH   1  14
BRANCH   8  24
ATOM     24  C   UNL     1       5.533   5.934  15.864  0.00  0.00    +0.000 C 
ATOM     25  F   UNL     1       4.842   6.859  15.146  0.00  0.00    +0.000 F 
ATOM     26  F   UNL     1       6.484   6.626  16.547  0.00  0.00    +0.000 F 
ATOM     27  F   UNL     1       6.201   5.176  14.952  0.00  0.00    +0.000 F 
ENDBRANCH   8  24
TORSDOF 3
ENDMDL
MODEL 3
REMARK VINA RESULT:      -8.6      2.682      3.428
REMARK  Name = 
REMARK  4 active torsions:
REMARK  status: ('A' for Active; 'I' for Inactive)
REMARK    1  A    between atoms: C_1  and  N_2
REMARK    2  A    between atoms: C_6  and  C_7
REMARK    3  A    between atoms: C_10  and  N_11
REMARK    4  A    between atoms: C_18  and  C_19
REMARK                            x       y       z     vdW  Elec       q    Type
REMARK                         _______ _______ _______ _____ _____    ______ ____
ROOT
ATOM      1  N   UNL     1       2.115   7.077  19.408  0.00  0.00    +0.000 N 
ATOM      2  C   UNL     1       1.678   5.753  19.832  0.00  0.00    +0.000 C 
ATOM      3  C   UNL     1       2.437   4.829  18.929  0.00  0.00    +0.000 A 
ATOM      4  C   UNL     1       3.242   5.579  18.076  0.00  0.00    +0.000 A 
ATOM      5  C   UNL     1       4.062   5.017  17.115  0.00  0.00    +0.000 A 
ATOM      6  C   UNL     1       4.069   3.629  17.016  0.00  0.00    +0.000 A 
ATOM      7  C   UNL     1       3.264   2.851  17.871  0.00  0.00    +0.000 A 
ATOM      8  C   UNL     1       2.432   3.441  18.843  0.00  0.00    +0.000 A 
ATOM      9  C   UNL     1       3.046   6.997  18.371  0.00  0.00    +0.000 C 
ATOM     10  O   UNL     1       3.637   7.861  17.750  0.00  0.00    +0.000 OA
ENDROOT
BRANCH   1  14
ATOM     11  C   UNL     1       0.670  10.698  21.157  0.00  0.00    +0.000 A 
ATOM     12  C   UNL     1       1.112   9.634  21.941  0.00  0.00    +0.000 A 
ATOM     13  C   UNL     1       1.583   8.452  21.362  0.00  0.00    +0.000 A 
ATOM     14  C   UNL     1       1.596   8.272  19.976  0.00  0.00    +0.000 A 
ATOM     15  C   UNL     1       1.083   9.323  19.198  0.00  0.00    +0.000 A 
ATOM     16  F   UNL     1       1.015   9.218  17.860  0.00  0.00    +0.000 F 
ATOM     17  C   UNL     1       0.628  10.515  19.772  0.00  0.00    +0.000 A 
BRANCH  11  23
ATOM     18  C   UNL     1      -1.754  11.192  23.153  0.00  0.00    +0.000 C 
ATOM     19  N   UNL     1      -0.862  12.163  22.577  0.00  0.00    +0.000 N 
ATOM     20  C   UNL     1      -0.892  13.497  22.854  0.00  0.00    +0.000 A 
ATOM     21  N   UNL     1       0.120  14.090  22.272  0.00  0.00    +0.000 NA
ATOM     22  N   UNL     1       0.827  13.127  21.593  0.00  0.00    +0.000 NA
ATOM     23  C   UNL     1       0.220  11.962  21.745  0.00  0.00    +0.000 A 
ENDBRANCH  11  23
ENDBRANCH   1  14
BRANCH   8  24
ATOM     24  C   UNL     1       1.583   2.571  19.734  0.00  0.00    +0.000 C 
ATOM     25  F   UNL     1       1.897   2.667  21.054  0.00  0.00    +0.000 F 
ATOM     26  F   UNL     1       0.260   2.873  19.643  0.00  0.00    +0.000 F 
ATOM     27  F   UNL     1       1.692   1.251  19.420  0.00  0.00    +0.000 F 
ENDBRANCH   8  24
TORSDOF 3
ENDMDL
MODEL 4
REMARK VINA RESULT:      -8.6      3.111      8.468
REMARK  Name = 
REMARK  4 active torsions:
REMARK  status: ('A' for Active; 'I' for Inactive)
REMARK    1  A    between atoms: C_1  and  N_2
REMARK    2  A    between atoms: C_6  and  C_7
REMARK    3  A    between atoms: C_10  and  N_11
REMARK    4  A    between atoms: C_18  and  C_19
REMARK                            x       y       z     vdW  Elec       q    Type
REMARK                         _______ _______ _______ _____ _____    ______ ____
ROOT
ATOM      1  N   UNL     1       0.292   9.920  19.758  0.00  0.00    +0.000 N 
ATOM      2  C   UNL     1      -0.900  10.104  18.940  0.00  0.00    +0.000 C 
ATOM      3  C   UNL     1      -1.553  11.311  19.541  0.00  0.00    +0.000 A 
ATOM      4  C   UNL     1      -0.780  11.771  20.604  0.00  0.00    +0.000 A 
ATOM      5  C   UNL     1      -1.119  12.868  21.371  0.00  0.00    +0.000 A 
ATOM      6  C   UNL     1      -2.295  13.536  21.044  0.00  0.00    +0.000 A 
ATOM      7  C   UNL     1      -3.091  13.089  19.972  0.00  0.00    +0.000 A 
ATOM      8  C   UNL     1      -2.732  11.965  19.202  0.00  0.00    +0.000 A 
ATOM      9  C   UNL     1       0.385  10.900  20.748  0.00  0.00    +0.000 C 
ATOM     10  O   UNL     1       1.216  11.090  21.618  0.00  0.00    +0.000 OA
ENDROOT
BRANCH   1  14
ATOM     11  C   UNL     1       2.901   6.585  19.177  0.00  0.00    +0.000 A 
ATOM     12  C   UNL     1       2.202   6.767  20.370  0.00  0.00    +0.000 A 
ATOM     13  C   UNL     1       1.351   7.861  20.553  0.00  0.00    +0.000 A 
ATOM     14  C   UNL     1       1.193   8.837  19.565  0.00  0.00    +0.000 A 
ATOM     15  C   UNL     1       1.954   8.681  18.395  0.00  0.00    +0.000 A 
ATOM     16  F   UNL     1       1.898   9.594  17.411  0.00  0.00    +0.000 F 
ATOM     17  C   UNL     1       2.793   7.578  18.199  0.00  0.00    +0.000 A 
BRANCH  11  23
ATOM     18  C   UNL     1       2.198   3.891  17.644  0.00  0.00    +0.000 C 
ATOM     19  N   UNL     1       3.420   4.240  18.318  0.00  0.00    +0.000 N 
ATOM     20  C   UNL     1       4.531   3.451  18.357  0.00  0.00    +0.000 A 
ATOM     21  N   UNL     1       5.510   4.099  18.937  0.00  0.00    +0.000 NA
ATOM     22  N   UNL     1       5.033   5.337  19.292  0.00  0.00    +0.000 NA
ATOM     23  C   UNL     1       3.758   5.419  18.950  0.00  0.00    +0.000 A 
ENDBRANCH  11  23
ENDBRANCH   1  14
BRANCH   8  24
ATOM     24  C   UNL     1      -3.615  11.519  18.065  0.00  0.00    +0.000 C 
ATOM     25  F   UNL     1      -4.011  10.221  18.154  0.00  0.00    +0.000 F 
ATOM     26  F   UNL     1      -4.757  12.252  17.980  0.00  0.00    +0.000 F 
ATOM     27  F   UNL     1      -3.000  11.639  16.856  0.00  0.00    +0.000 F 
ENDBRANCH   8  24
TORSDOF 3
ENDMDL
MODEL 5
REMARK VINA RESULT:      -8.4      2.749      3.450
REMARK  Name = 
REMARK  4 active torsions:
REMARK  status: ('A' for Active; 'I' for Inactive)
REMARK    1  A    between atoms: C_1  and  N_2
REMARK    2  A    between atoms: C_6  and  C_7
REMARK    3  A    between atoms: C_10  and  N_11
REMARK    4  A    between atoms: C_18  and  C_19
REMARK                            x       y       z     vdW  Elec       q    Type
REMARK                         _______ _______ _______ _____ _____    ______ ____
ROOT
ATOM      1  N   UNL     1       1.514   7.802  20.089  0.00  0.00    +0.000 N 
ATOM      2  C   UNL     1       1.448   6.422  20.554  0.00  0.00    +0.000 C 
ATOM      3  C   UNL     1       2.303   5.682  19.572  0.00  0.00    +0.000 A 
ATOM      4  C   UNL     1       2.814   6.580  18.638  0.00  0.00    +0.000 A 
ATOM      5  C   UNL     1       3.636   6.205  17.593  0.00  0.00    +0.000 A 
ATOM      6  C   UNL     1       3.960   4.856  17.489  0.00  0.00    +0.000 A 
ATOM      7  C   UNL     1       3.456   3.930  18.424  0.00  0.00    +0.000 A 
ATOM      8  C   UNL     1       2.616   4.330  19.482  0.00  0.00    +0.000 A 
ATOM      9  C   UNL     1       2.321   7.919  18.957  0.00  0.00    +0.000 C 
ATOM     10  O   UNL     1       2.623   8.884  18.278  0.00  0.00    +0.000 OA
ENDROOT
BRANCH   1  14
ATOM     11  C   UNL     1      -0.551  11.019  22.001  0.00  0.00    +0.000 A 
ATOM     12  C   UNL     1       0.156  10.066  22.734  0.00  0.00    +0.000 A 
ATOM     13  C   UNL     1       0.828   9.017  22.102  0.00  0.00    +0.000 A 
ATOM     14  C   UNL     1       0.790   8.855  20.714  0.00  0.00    +0.000 A 
ATOM     15  C   UNL     1       0.018   9.779  19.991  0.00  0.00    +0.000 A 
ATOM     16  F   UNL     1      -0.111   9.674  18.658  0.00  0.00    +0.000 F 
ATOM     17  C   UNL     1      -0.641  10.842  20.617  0.00  0.00    +0.000 A 
BRANCH  11  23
ATOM     18  C   UNL     1       0.307  14.079  21.985  0.00  0.00    +0.000 C 
ATOM     19  N   UNL     1      -0.808  13.469  22.661  0.00  0.00    +0.000 N 
ATOM     20  C   UNL     1      -1.737  14.153  23.387  0.00  0.00    +0.000 A 
ATOM     21  N   UNL     1      -2.686  13.336  23.767  0.00  0.00    +0.000 NA
ATOM     22  N   UNL     1      -2.373  12.088  23.287  0.00  0.00    +0.000 NA
ATOM     23  C   UNL     1      -1.219  12.153  22.643  0.00  0.00    +0.000 A 
ENDBRANCH  11  23
ENDBRANCH   1  14
BRANCH   8  24
ATOM     24  C   UNL     1       2.096   3.306  20.458  0.00  0.00    +0.000 C 
ATOM     25  F   UNL     1       0.739   3.241  20.514  0.00  0.00    +0.000 F 
ATOM     26  F   UNL     1       2.518   2.048  20.159  0.00  0.00    +0.000 F 
ATOM     27  F   UNL     1       2.511   3.550  21.731  0.00  0.00    +0.000 F 
ENDBRANCH   8  24
TORSDOF 3
ENDMDL
MODEL 6
REMARK VINA RESULT:      -8.4      2.389      2.892
REMARK  Name = 
REMARK  4 active torsions:
REMARK  status: ('A' for Active; 'I' for Inactive)
REMARK    1  A    between atoms: C_1  and  N_2
REMARK    2  A    between atoms: C_6  and  C_7
REMARK    3  A    between atoms: C_10  and  N_11
REMARK    4  A    between atoms: C_18  and  C_19
REMARK                            x       y       z     vdW  Elec       q    Type
REMARK                         _______ _______ _______ _____ _____    ______ ____
ROOT
ATOM      1  N   UNL     1       2.497   6.937  18.972  0.00  0.00    +0.000 N 
ATOM      2  C   UNL     1       2.273   5.508  19.154  0.00  0.00    +0.000 C 
ATOM      3  C   UNL     1       3.198   4.880  18.158  0.00  0.00    +0.000 A 
ATOM      4  C   UNL     1       3.892   5.879  17.481  0.00  0.00    +0.000 A 
ATOM      5  C   UNL     1       4.819   5.622  16.489  0.00  0.00    +0.000 A 
ATOM      6  C   UNL     1       5.059   4.289  16.170  0.00  0.00    +0.000 A 
ATOM      7  C   UNL     1       4.370   3.262  16.844  0.00  0.00    +0.000 A 
ATOM      8  C   UNL     1       3.425   3.543  17.851  0.00  0.00    +0.000 A 
ATOM      9  C   UNL     1       3.456   7.179  17.987  0.00  0.00    +0.000 C 
ATOM     10  O   UNL     1       3.914   8.218  17.546  0.00  0.00    +0.000 OA
ENDROOT
BRANCH   1  14
ATOM     11  C   UNL     1       0.425   9.944  21.193  0.00  0.00    +0.000 A 
ATOM     12  C   UNL     1       1.045   8.866  21.824  0.00  0.00    +0.000 A 
ATOM     13  C   UNL     1       1.720   7.886  21.091  0.00  0.00    +0.000 A 
ATOM     14  C   UNL     1       1.771   7.923  19.695  0.00  0.00    +0.000 A 
ATOM     15  C   UNL     1       1.085   8.975  19.065  0.00  0.00    +0.000 A 
ATOM     16  F   UNL     1       1.044   9.064  17.726  0.00  0.00    +0.000 F 
ATOM     17  C   UNL     1       0.423   9.968  19.795  0.00  0.00    +0.000 A 
BRANCH  11  23
ATOM     18  C   UNL     1       0.656  13.089  20.797  0.00  0.00    +0.000 C 
ATOM     19  N   UNL     1      -0.097  12.368  21.789  0.00  0.00    +0.000 N 
ATOM     20  C   UNL     1      -0.904  12.953  22.719  0.00  0.00    +0.000 A 
ATOM     21  N   UNL     1      -1.543  12.028  23.390  0.00  0.00    +0.000 NA
ATOM     22  N   UNL     1      -1.144  10.810  22.897  0.00  0.00    +0.000 NA
ATOM     23  C   UNL     1      -0.243  11.006  21.948  0.00  0.00    +0.000 A 
ENDBRANCH  11  23
ENDBRANCH   1  14
BRANCH   8  24
ATOM     24  C   UNL     1       2.707   2.413  18.545  0.00  0.00    +0.000 C 
ATOM     25  F   UNL     1       1.375   2.362  18.276  0.00  0.00    +0.000 F 
ATOM     26  F   UNL     1       3.204   1.196  18.197  0.00  0.00    +0.000 F 
ATOM     27  F   UNL     1       2.812   2.491  19.900  0.00  0.00    +0.000 F 
ENDBRANCH   8  24
TORSDOF 3
ENDMDL
MODEL 7
REMARK VINA RESULT:      -8.4      2.603      3.204
REMARK  Name = 
REMARK  4 active torsions:
REMARK  status: ('A' for Active; 'I' for Inactive)
REMARK    1  A    between atoms: C_1  and  N_2
REMARK    2  A    between atoms: C_6  and  C_7
REMARK    3  A    between atoms: C_10  and  N_11
REMARK    4  A    between atoms: C_18  and  C_19
REMARK                            x       y       z     vdW  Elec       q    Type
REMARK                         _______ _______ _______ _____ _____    ______ ____
ROOT
ATOM      1  N   UNL     1       2.047   7.128  19.436  0.00  0.00    +0.000 N 
ATOM      2  C   UNL     1       1.667   5.777  19.827  0.00  0.00    +0.000 C 
ATOM      3  C   UNL     1       2.478   4.908  18.913  0.00  0.00    +0.000 A 
ATOM      4  C   UNL     1       3.257   5.713  18.086  0.00  0.00    +0.000 A 
ATOM      5  C   UNL     1       4.112   5.211  17.124  0.00  0.00    +0.000 A 
ATOM      6  C   UNL     1       4.185   3.827  16.995  0.00  0.00    +0.000 A 
ATOM      7  C   UNL     1       3.407   2.995  17.823  0.00  0.00    +0.000 A 
ATOM      8  C   UNL     1       2.538   3.524  18.798  0.00  0.00    +0.000 A 
ATOM      9  C   UNL     1       2.992   7.114  18.408  0.00  0.00    +0.000 C 
ATOM     10  O   UNL     1       3.550   8.018  17.813  0.00  0.00    +0.000 OA
ENDROOT
BRANCH   1  14
ATOM     11  C   UNL     1       0.418  10.643  21.240  0.00  0.00    +0.000 A 
ATOM     12  C   UNL     1       0.944   9.605  22.007  0.00  0.00    +0.000 A 
ATOM     13  C   UNL     1       1.475   8.458  21.410  0.00  0.00    +0.000 A 
ATOM     14  C   UNL     1       1.467   8.286  20.023  0.00  0.00    +0.000 A 
ATOM     15  C   UNL     1       0.872   9.306  19.263  0.00  0.00    +0.000 A 
ATOM     16  F   UNL     1       0.780   9.203  17.927  0.00  0.00    +0.000 F 
ATOM     17  C   UNL     1       0.355  10.464  19.855  0.00  0.00    +0.000 A 
BRANCH  11  23
ATOM     18  C   UNL     1       1.351  13.637  20.720  0.00  0.00    +0.000 C 
ATOM     19  N   UNL     1       0.351  13.162  21.639  0.00  0.00    +0.000 N 
ATOM     20  C   UNL     1      -0.420  13.967  22.424  0.00  0.00    +0.000 A 
ATOM     21  N   UNL     1      -1.314  13.245  23.051  0.00  0.00    +0.000 NA
ATOM     22  N   UNL     1      -1.124  11.937  22.676  0.00  0.00    +0.000 NA
ATOM     23  C   UNL     1      -0.097  11.874  21.846  0.00  0.00    +0.000 A 
ENDBRANCH  11  23
ENDBRANCH   1  14
BRANCH   8  24
ATOM     24  C   UNL     1       1.721   2.597  19.660  0.00  0.00    +0.000 C 
ATOM     25  F   UNL     1       2.033   2.660  20.983  0.00  0.00    +0.000 F 
ATOM     26  F   UNL     1       0.388   2.856  19.579  0.00  0.00    +0.000 F 
ATOM     27  F   UNL     1       1.874   1.292  19.303  0.00  0.00    +0.000 F 
ENDBRANCH   8  24
TORSDOF 3
ENDMDL
MODEL 8
REMARK VINA RESULT:      -8.4      2.450      2.944
REMARK  Name = 
REMARK  4 active torsions:
REMARK  status: ('A' for Active; 'I' for Inactive)
REMARK    1  A    between atoms: C_1  and  N_2
REMARK    2  A    between atoms: C_6  and  C_7
REMARK    3  A    between atoms: C_10  and  N_11
REMARK    4  A    between atoms: C_18  and  C_19
REMARK                            x       y       z     vdW  Elec       q    Type
REMARK                         _______ _______ _______ _____ _____    ______ ____
ROOT
ATOM      1  N   UNL     1       2.556   6.950  18.789  0.00  0.00    +0.000 N 
ATOM      2  C   UNL     1       2.352   5.517  18.959  0.00  0.00    +0.000 C 
ATOM      3  C   UNL     1       3.345   4.909  18.016  0.00  0.00    +0.000 A 
ATOM      4  C   UNL     1       4.055   5.924  17.378  0.00  0.00    +0.000 A 
ATOM      5  C   UNL     1       5.041   5.687  16.440  0.00  0.00    +0.000 A 
ATOM      6  C   UNL     1       5.326   4.360  16.135  0.00  0.00    +0.000 A 
ATOM      7  C   UNL     1       4.621   3.318  16.769  0.00  0.00    +0.000 A 
ATOM      8  C   UNL     1       3.616   3.578  17.722  0.00  0.00    +0.000 A 
ATOM      9  C   UNL     1       3.564   7.214  17.860  0.00  0.00    +0.000 C 
ATOM     10  O   UNL     1       4.024   8.262  17.445  0.00  0.00    +0.000 OA
ENDROOT
BRANCH   1  14
ATOM     11  C   UNL     1       0.299   9.900  20.903  0.00  0.00    +0.000 A 
ATOM     12  C   UNL     1       0.781   8.756  21.537  0.00  0.00    +0.000 A 
ATOM     13  C   UNL     1       1.518   7.795  20.839  0.00  0.00    +0.000 A 
ATOM     14  C   UNL     1       1.771   7.921  19.471  0.00  0.00    +0.000 A 
ATOM     15  C   UNL     1       1.223   9.042  18.827  0.00  0.00    +0.000 A 
ATOM     16  F   UNL     1       1.379   9.220  17.504  0.00  0.00    +0.000 F 
ATOM     17  C   UNL     1       0.500  10.016  19.524  0.00  0.00    +0.000 A 
BRANCH  11  23
ATOM     18  C   UNL     1      -1.878  11.927  19.783  0.00  0.00    +0.000 C 
ATOM     19  N   UNL     1      -1.342  11.841  21.116  0.00  0.00    +0.000 N 
ATOM     20  C   UNL     1      -1.746  12.618  22.160  0.00  0.00    +0.000 A 
ATOM     21  N   UNL     1      -1.162  12.215  23.260  0.00  0.00    +0.000 NA
ATOM     22  N   UNL     1      -0.353  11.154  22.933  0.00  0.00    +0.000 NA
ATOM     23  C   UNL     1      -0.432  10.941  21.630  0.00  0.00    +0.000 A 
ENDBRANCH  11  23
ENDBRANCH   1  14
BRANCH   8  24
ATOM     24  C   UNL     1       2.884   2.432  18.374  0.00  0.00    +0.000 C 
ATOM     25  F   UNL     1       2.897   2.475  19.733  0.00  0.00    +0.000 F 
ATOM     26  F   UNL     1       1.573   2.387  18.015  0.00  0.00    +0.000 F 
ATOM     27  F   UNL     1       3.410   1.224  18.032  0.00  0.00    +0.000 F 
ENDBRANCH   8  24
TORSDOF 3
ENDMDL
MODEL 9
REMARK VINA RESULT:      -8.3      1.360      1.666
REMARK  Name = 
REMARK  4 active torsions:
REMARK  status: ('A' for Active; 'I' for Inactive)
REMARK    1  A    between atoms: C_1  and  N_2
REMARK    2  A    between atoms: C_6  and  C_7
REMARK    3  A    between atoms: C_10  and  N_11
REMARK    4  A    between atoms: C_18  and  C_19
REMARK                            x       y       z     vdW  Elec       q    Type
REMARK                         _______ _______ _______ _____ _____    ______ ____
ROOT
ATOM      1  N   UNL     1       2.300   6.247  19.099  0.00  0.00    +0.000 N 
ATOM      2  C   UNL     1       3.359   6.001  18.128  0.00  0.00    +0.000 C 
ATOM      3  C   UNL     1       3.491   4.508  18.125  0.00  0.00    +0.000 A 
ATOM      4  C   UNL     1       2.569   3.964  19.017  0.00  0.00    +0.000 A 
ATOM      5  C   UNL     1       2.447   2.608  19.249  0.00  0.00    +0.000 A 
ATOM      6  C   UNL     1       3.294   1.760  18.542  0.00  0.00    +0.000 A 
ATOM      7  C   UNL     1       4.231   2.290  17.633  0.00  0.00    +0.000 A 
ATOM      8  C   UNL     1       4.345   3.677  17.411  0.00  0.00    +0.000 A 
ATOM      9  C   UNL     1       1.815   5.053  19.635  0.00  0.00    +0.000 C 
ATOM     10  O   UNL     1       0.949   4.834  20.463  0.00  0.00    +0.000 OA
ENDROOT
BRANCH   1  14
ATOM     11  C   UNL     1       1.142  10.196  20.251  0.00  0.00    +0.000 A 
ATOM     12  C   UNL     1       1.129   9.137  21.158  0.00  0.00    +0.000 A 
ATOM     13  C   UNL     1       1.509   7.848  20.773  0.00  0.00    +0.000 A 
ATOM     14  C   UNL     1       1.880   7.557  19.458  0.00  0.00    +0.000 A 
ATOM     15  C   UNL     1       1.823   8.615  18.536  0.00  0.00    +0.000 A 
ATOM     16  F   UNL     1       2.119   8.417  17.241  0.00  0.00    +0.000 F 
ATOM     17  C   UNL     1       1.461   9.912  18.920  0.00  0.00    +0.000 A 
BRANCH  11  23
ATOM     18  C   UNL     1      -1.633  11.706  19.903  0.00  0.00    +0.000 C 
ATOM     19  N   UNL     1      -0.403  12.216  20.449  0.00  0.00    +0.000 N 
ATOM     20  C   UNL     1      -0.252  13.465  20.972  0.00  0.00    +0.000 A 
ATOM     21  N   UNL     1       0.942  13.581  21.497  0.00  0.00    +0.000 NA
ATOM     22  N   UNL     1       1.592  12.385  21.311  0.00  0.00    +0.000 NA
ATOM     23  C   UNL     1       0.795  11.563  20.648  0.00  0.00    +0.000 A 
ENDBRANCH  11  23
ENDBRANCH   1  14
BRANCH   8  24
ATOM     24  C   UNL     1       5.365   4.200  16.433  0.00  0.00    +0.000 C 
ATOM     25  F   UNL     1       4.852   5.063  15.515  0.00  0.00    +0.000 F 
ATOM     26  F   UNL     1       6.376   4.869  17.050  0.00  0.00    +0.000 F 
ATOM     27  F   UNL     1       5.954   3.202  15.719  0.00  0.00    +0.000 F 
ENDBRANCH   8  24
TORSDOF 3
ENDMDL
