MODEL 1
REMARK VINA RESULT:      -8.8      0.000      0.000
REMARK  Name = 
REMARK  4 active torsions:
REMARK  status: ('A' for Active; 'I' for Inactive)
REMARK    1  A    between atoms: C_7  and  N_8
REMARK    2  A    between atoms: N_8  and  C_9
REMARK    3  A    between atoms: C_9  and  C_10
REMARK    4  A    between atoms: C_14  and  C_15
REMARK                            x       y       z     vdW  Elec       q    Type
REMARK                         _______ _______ _______ _____ _____    ______ ____
ROOT
ATOM      1  N   UNL     1       2.673   6.792  17.973  0.00  0.00    +0.000 N 
ATOM      2  H   UNL     1       2.479   5.921  18.459  0.00  0.00    +0.000 HD
ENDROOT
BRANCH   1   9
ATOM      3  O   UNL     1      -0.506  11.721  22.846  0.00  0.00    +0.000 OA
ATOM      4  C   UNL     1      -0.017  10.807  22.188  0.00  0.00    +0.000 C 
ATOM      5  C   UNL     1       0.235   9.410  22.754  0.00  0.00    +0.000 C 
ATOM      6  O   UNL     1       1.156   8.547  22.104  0.00  0.00    +0.000 OA
ATOM      7  C   UNL     1       1.275   8.763  20.759  0.00  0.00    +0.000 A 
ATOM      8  C   UNL     1       1.897   7.755  20.024  0.00  0.00    +0.000 A 
ATOM      9  C   UNL     1       2.131   7.888  18.651  0.00  0.00    +0.000 A 
ATOM     10  C   UNL     1       1.680   9.053  18.017  0.00  0.00    +0.000 A 
ATOM     11  C   UNL     1       1.060  10.079  18.749  0.00  0.00    +0.000 A 
ATOM     12  C   UNL     1       0.861   9.929  20.121  0.00  0.00    +0.000 A 
ATOM     13  N   UNL     1       0.265  10.954  20.854  0.00  0.00    +0.000 N 
ATOM     14  H   UNL     1       0.032  11.842  20.432  0.00  0.00    +0.000 HD
ENDBRANCH   1   9
BRANCH   1  15
ATOM     15  C   UNL     1       4.062   6.823  17.515  0.00  0.00    +0.000 C 
BRANCH  15  16
ATOM     16  C   UNL     1       4.975   5.826  18.173  0.00  0.00    +0.000 A 
ATOM     17  C   UNL     1       6.358   5.837  18.160  0.00  0.00    +0.000 A 
ATOM     18  N   UNL     1       6.759   4.754  18.872  0.00  0.00    +0.000 N 
ATOM     19  N   UNL     1       5.748   4.035  19.362  0.00  0.00    +0.000 NA
ATOM     20  C   UNL     1       4.633   4.641  18.920  0.00  0.00    +0.000 A 
ATOM     21  H   UNL     1       7.707   4.444  19.064  0.00  0.00    +0.000 HD
BRANCH  20  22
ATOM     22  C   UNL     1       3.312   4.067  19.202  0.00  0.00    +0.000 A 
ATOM     23  C   UNL     1       2.714   4.198  20.465  0.00  0.00    +0.000 A 
ATOM     24  C   UNL     1       1.414   3.738  20.704  0.00  0.00    +0.000 A 
ATOM     25  C   UNL     1       0.704   3.096  19.695  0.00  0.00    +0.000 A 
ATOM     26  C   UNL     1       1.300   2.902  18.452  0.00  0.00    +0.000 A 
ATOM     27  C   UNL     1       2.588   3.387  18.210  0.00  0.00    +0.000 A 
ATOM     28  F   UNL     1       3.089   3.202  16.979  0.00  0.00    +0.000 F 
ENDBRANCH  20  22
ENDBRANCH  15  16
ENDBRANCH   1  15
TORSDOF 4
ENDMDL
MODEL 2
REMARK VINA RESULT:      -8.8      3.525      5.753
REMARK  Name = 
REMARK  4 active torsions:
REMARK  status: ('A' for Active; 'I' for Inactive)
REMARK    1  A    between atoms: C_7  and  N_8
REMARK    2  A    between atoms: N_8  and  C_9
REMARK    3  A    between atoms: C_9  and  C_10
REMARK    4  A    between atoms: C_14  and  C_15
REMARK                            x       y       z     vdW  Elec       q    Type
REMARK                         _______ _______ _______ _____ _____    ______ ____
ROOT
ATOM      1  N   UNL     1       4.181   6.680  16.821  0.00  0.00    +0.000 N 
ATOM      2  H   UNL     1       3.990   6.106  16.004  0.00  0.00    +0.000 HD
ENDROOT
BRANCH   1   9
ATOM      3  O   UNL     1       1.115   2.343  22.292  0.00  0.00    +0.000 OA
ATOM      4  C   UNL     1       1.617   2.893  21.316  0.00  0.00    +0.000 C 
ATOM      5  C   UNL     1       2.103   2.131  20.084  0.00  0.00    +0.000 C 
ATOM      6  O   UNL     1       3.025   2.748  19.198  0.00  0.00    +0.000 OA
ATOM      7  C   UNL     1       2.940   4.112  19.160  0.00  0.00    +0.000 A 
ATOM      8  C   UNL     1       3.573   4.741  18.089  0.00  0.00    +0.000 A 
ATOM      9  C   UNL     1       3.607   6.134  17.974  0.00  0.00    +0.000 A 
ATOM     10  C   UNL     1       2.943   6.891  18.948  0.00  0.00    +0.000 A 
ATOM     11  C   UNL     1       2.309   6.269  20.036  0.00  0.00    +0.000 A 
ATOM     12  C   UNL     1       2.311   4.878  20.138  0.00  0.00    +0.000 A 
ATOM     13  N   UNL     1       1.700   4.258  21.226  0.00  0.00    +0.000 N 
ATOM     14  H   UNL     1       1.311   4.792  21.991  0.00  0.00    +0.000 HD
ENDBRANCH   1   9
BRANCH   1  15
ATOM     15  C   UNL     1       5.578   7.114  16.827  0.00  0.00    +0.000 C 
BRANCH  15  16
ATOM     16  C   UNL     1       6.575   6.053  17.203  0.00  0.00    +0.000 A 
ATOM     17  C   UNL     1       7.178   5.883  18.436  0.00  0.00    +0.000 A 
ATOM     18  N   UNL     1       8.003   4.812  18.318  0.00  0.00    +0.000 N 
ATOM     19  N   UNL     1       7.983   4.256  17.106  0.00  0.00    +0.000 NA
ATOM     20  C   UNL     1       7.145   5.015  16.379  0.00  0.00    +0.000 A 
ATOM     21  H   UNL     1       8.609   4.405  19.024  0.00  0.00    +0.000 HD
BRANCH  20  22
ATOM     22  C   UNL     1       6.942   4.742  14.951  0.00  0.00    +0.000 A 
ATOM     23  C   UNL     1       7.845   5.209  13.984  0.00  0.00    +0.000 A 
ATOM     24  C   UNL     1       7.706   4.865  12.635  0.00  0.00    +0.000 A 
ATOM     25  C   UNL     1       6.632   4.082  12.221  0.00  0.00    +0.000 A 
ATOM     26  C   UNL     1       5.692   3.657  13.155  0.00  0.00    +0.000 A 
ATOM     27  C   UNL     1       5.851   3.981  14.505  0.00  0.00    +0.000 A 
ATOM     28  F   UNL     1       4.930   3.507  15.359  0.00  0.00    +0.000 F 
ENDBRANCH  20  22
ENDBRANCH  15  16
ENDBRANCH   1  15
TORSDOF 4
ENDMDL
MODEL 3
REMARK VINA RESULT:      -8.7      2.046      3.709
REMARK  Name = 
REMARK  4 active torsions:
REMARK  status: ('A' for Active; 'I' for Inactive)
REMARK    1  A    between atoms: C_7  and  N_8
REMARK    2  A    between atoms: N_8  and  C_9
REMARK    3  A    between atoms: C_9  and  C_10
REMARK    4  A    between atoms: C_14  and  C_15
REMARK                            x       y       z     vdW  Elec       q    Type
REMARK                         _______ _______ _______ _____ _____    ______ ____
ROOT
ATOM      1  N   UNL     1       2.429   6.344  20.489  0.00  0.00    +0.000 N 
ATOM      2  H   UNL     1       3.415   6.334  20.735  0.00  0.00    +0.000 HD
ENDROOT
BRANCH   1   9
ATOM      3  O   UNL     1      -0.543  12.992  18.228  0.00  0.00    +0.000 OA
ATOM      4  C   UNL     1      -0.178  11.931  18.726  0.00  0.00    +0.000 C 
ATOM      5  C   UNL     1      -0.680  11.425  20.078  0.00  0.00    +0.000 C 
ATOM      6  O   UNL     1       0.064  10.439  20.777  0.00  0.00    +0.000 OA
ATOM      7  C   UNL     1       0.790   9.607  19.970  0.00  0.00    +0.000 A 
ATOM      8  C   UNL     1       1.267   8.437  20.559  0.00  0.00    +0.000 A 
ATOM      9  C   UNL     1       2.073   7.537  19.853  0.00  0.00    +0.000 A 
ATOM     10  C   UNL     1       2.355   7.822  18.511  0.00  0.00    +0.000 A 
ATOM     11  C   UNL     1       1.887   9.002  17.910  0.00  0.00    +0.000 A 
ATOM     12  C   UNL     1       1.105   9.892  18.645  0.00  0.00    +0.000 A 
ATOM     13  N   UNL     1       0.657  11.074  18.058  0.00  0.00    +0.000 N 
ATOM     14  H   UNL     1       0.941  11.345  17.126  0.00  0.00    +0.000 HD
ENDBRANCH   1   9
BRANCH   1  15
ATOM     15  C   UNL     1       2.030   5.058  19.917  0.00  0.00    +0.000 C 
BRANCH  15  16
ATOM     16  C   UNL     1       3.069   3.973  19.997  0.00  0.00    +0.000 A 
ATOM     17  C   UNL     1       3.030   2.849  20.803  0.00  0.00    +0.000 A 
ATOM     18  N   UNL     1       4.169   2.156  20.553  0.00  0.00    +0.000 N 
ATOM     19  N   UNL     1       4.952   2.731  19.639  0.00  0.00    +0.000 NA
ATOM     20  C   UNL     1       4.328   3.872  19.301  0.00  0.00    +0.000 A 
ATOM     21  H   UNL     1       4.477   1.283  20.970  0.00  0.00    +0.000 HD
BRANCH  20  22
ATOM     22  C   UNL     1       4.953   4.814  18.365  0.00  0.00    +0.000 A 
ATOM     23  C   UNL     1       4.398   5.060  17.099  0.00  0.00    +0.000 A 
ATOM     24  C   UNL     1       4.937   6.030  16.247  0.00  0.00    +0.000 A 
ATOM     25  C   UNL     1       6.070   6.742  16.626  0.00  0.00    +0.000 A 
ATOM     26  C   UNL     1       6.671   6.472  17.853  0.00  0.00    +0.000 A 
ATOM     27  C   UNL     1       6.114   5.522  18.712  0.00  0.00    +0.000 A 
ATOM     28  F   UNL     1       6.720   5.338  19.895  0.00  0.00    +0.000 F 
ENDBRANCH  20  22
ENDBRANCH  15  16
ENDBRANCH   1  15
TORSDOF 4
ENDMDL
MODEL 4
REMARK VINA RESULT:      -8.7      1.799      3.474
REMARK  Name = 
REMARK  4 active torsions:
REMARK  status: ('A' for Active; 'I' for Inactive)
REMARK    1  A    between atoms: C_7  and  N_8
REMARK    2  A    between atoms: N_8  and  C_9
REMARK    3  A    between atoms: C_9  and  C_10
REMARK    4  A    between atoms: C_14  and  C_15
REMARK                            x       y       z     vdW  Elec       q    Type
REMARK                         _______ _______ _______ _____ _____    ______ ____
ROOT
ATOM      1  N   UNL     1       2.341   6.197  20.680  0.00  0.00    +0.000 N 
ATOM      2  H   UNL     1       3.311   6.170  20.982  0.00  0.00    +0.000 HD
ENDROOT
BRANCH   1   9
ATOM      3  O   UNL     1      -0.329  12.908  18.235  0.00  0.00    +0.000 OA
ATOM      4  C   UNL     1      -0.015  11.843  18.760  0.00  0.00    +0.000 C 
ATOM      5  C   UNL     1      -0.570  11.379  20.106  0.00  0.00    +0.000 C 
ATOM      6  O   UNL     1       0.120  10.379  20.840  0.00  0.00    +0.000 OA
ATOM      7  C   UNL     1       0.836   9.508  20.067  0.00  0.00    +0.000 A 
ATOM      8  C   UNL     1       1.255   8.332  20.687  0.00  0.00    +0.000 A 
ATOM      9  C   UNL     1       2.045   7.392  20.017  0.00  0.00    +0.000 A 
ATOM     10  C   UNL     1       2.372   7.642  18.677  0.00  0.00    +0.000 A 
ATOM     11  C   UNL     1       1.963   8.828  18.045  0.00  0.00    +0.000 A 
ATOM     12  C   UNL     1       1.195   9.758  18.745  0.00  0.00    +0.000 A 
ATOM     13  N   UNL     1       0.805  10.945  18.127  0.00  0.00    +0.000 N 
ATOM     14  H   UNL     1       1.122  11.190  17.199  0.00  0.00    +0.000 HD
ENDBRANCH   1   9
BRANCH   1  15
ATOM     15  C   UNL     1       1.950   4.914  20.097  0.00  0.00    +0.000 C 
BRANCH  15  16
ATOM     16  C   UNL     1       2.990   3.832  20.178  0.00  0.00    +0.000 A 
ATOM     17  C   UNL     1       2.953   2.706  20.982  0.00  0.00    +0.000 A 
ATOM     18  N   UNL     1       4.094   2.015  20.732  0.00  0.00    +0.000 N 
ATOM     19  N   UNL     1       4.877   2.593  19.821  0.00  0.00    +0.000 NA
ATOM     20  C   UNL     1       4.251   3.734  19.484  0.00  0.00    +0.000 A 
ATOM     21  H   UNL     1       4.403   1.143  21.149  0.00  0.00    +0.000 HD
BRANCH  20  22
ATOM     22  C   UNL     1       4.876   4.678  18.550  0.00  0.00    +0.000 A 
ATOM     23  C   UNL     1       6.015   5.414  18.910  0.00  0.00    +0.000 A 
ATOM     24  C   UNL     1       6.668   6.238  17.986  0.00  0.00    +0.000 A 
ATOM     25  C   UNL     1       6.166   6.377  16.696  0.00  0.00    +0.000 A 
ATOM     26  C   UNL     1       5.003   5.702  16.336  0.00  0.00    +0.000 A 
ATOM     27  C   UNL     1       4.370   4.860  17.253  0.00  0.00    +0.000 A 
ATOM     28  F   UNL     1       3.275   4.208  16.830  0.00  0.00    +0.000 F 
ENDBRANCH  20  22
ENDBRANCH  15  16
ENDBRANCH   1  15
TORSDOF 4
ENDMDL
MODEL 5
REMARK VINA RESULT:      -8.6      1.263      1.356
REMARK  Name = 
REMARK  4 active torsions:
REMARK  status: ('A' for Active; 'I' for Inactive)
REMARK    1  A    between atoms: C_7  and  N_8
REMARK    2  A    between atoms: N_8  and  C_9
REMARK    3  A    between atoms: C_9  and  C_10
REMARK    4  A    between atoms: C_14  and  C_15
REMARK                            x       y       z     vdW  Elec       q    Type
REMARK                         _______ _______ _______ _____ _____    ______ ____
ROOT
ATOM      1  N   UNL     1       2.618   7.304  17.703  0.00  0.00    +0.000 N 
ATOM      2  H   UNL     1       1.988   6.522  17.547  0.00  0.00    +0.000 HD
ENDROOT
BRANCH   1   9
ATOM      3  O   UNL     1      -0.701  11.516  23.124  0.00  0.00    +0.000 OA
ATOM      4  C   UNL     1      -0.173  10.706  22.368  0.00  0.00    +0.000 C 
ATOM      5  C   UNL     1       0.223   9.294  22.798  0.00  0.00    +0.000 C 
ATOM      6  O   UNL     1       1.177   8.571  22.035  0.00  0.00    +0.000 OA
ATOM      7  C   UNL     1       1.208   8.908  20.710  0.00  0.00    +0.000 A 
ATOM      8  C   UNL     1       1.872   8.022  19.863  0.00  0.00    +0.000 A 
ATOM      9  C   UNL     1       2.023   8.288  18.498  0.00  0.00    +0.000 A 
ATOM     10  C   UNL     1       1.444   9.459  17.988  0.00  0.00    +0.000 A 
ATOM     11  C   UNL     1       0.781  10.362  18.834  0.00  0.00    +0.000 A 
ATOM     12  C   UNL     1       0.666  10.083  20.195  0.00  0.00    +0.000 A 
ATOM     13  N   UNL     1       0.026  10.987  21.041  0.00  0.00    +0.000 N 
ATOM     14  H   UNL     1      -0.301  11.884  20.709  0.00  0.00    +0.000 HD
ENDBRANCH   1   9
BRANCH   1  15
ATOM     15  C   UNL     1       3.964   6.823  18.012  0.00  0.00    +0.000 C 
BRANCH  15  16
ATOM     16  C   UNL     1       4.336   5.512  17.376  0.00  0.00    +0.000 A 
ATOM     17  C   UNL     1       5.125   5.331  16.254  0.00  0.00    +0.000 A 
ATOM     18  N   UNL     1       5.190   3.993  16.039  0.00  0.00    +0.000 N 
ATOM     19  N   UNL     1       4.513   3.277  16.937  0.00  0.00    +0.000 NA
ATOM     20  C   UNL     1       3.941   4.178  17.754  0.00  0.00    +0.000 A 
ATOM     21  H   UNL     1       5.677   3.499  15.298  0.00  0.00    +0.000 HD
BRANCH  20  22
ATOM     22  C   UNL     1       3.041   3.743  18.829  0.00  0.00    +0.000 A 
ATOM     23  C   UNL     1       3.538   3.165  20.008  0.00  0.00    +0.000 A 
ATOM     24  C   UNL     1       2.688   2.842  21.072  0.00  0.00    +0.000 A 
ATOM     25  C   UNL     1       1.317   3.050  20.959  0.00  0.00    +0.000 A 
ATOM     26  C   UNL     1       0.796   3.566  19.775  0.00  0.00    +0.000 A 
ATOM     27  C   UNL     1       1.651   3.912  18.726  0.00  0.00    +0.000 A 
ATOM     28  F   UNL     1       1.089   4.442  17.629  0.00  0.00    +0.000 F 
ENDBRANCH  20  22
ENDBRANCH  15  16
ENDBRANCH   1  15
TORSDOF 4
ENDMDL
MODEL 6
REMARK VINA RESULT:      -8.6      0.943      1.341
REMARK  Name = 
REMARK  4 active torsions:
REMARK  status: ('A' for Active; 'I' for Inactive)
REMARK    1  A    between atoms: C_7  and  N_8
REMARK    2  A    between atoms: N_8  and  C_9
REMARK    3  A    between atoms: C_9  and  C_10
REMARK    4  A    between atoms: C_14  and  C_15
REMARK                            x       y       z     vdW  Elec       q    Type
REMARK                         _______ _______ _______ _____ _____    ______ ____
ROOT
ATOM      1  N   UNL     1       2.630   6.775  17.962  0.00  0.00    +0.000 N 
ATOM      2  H   UNL     1       2.395   5.902  18.427  0.00  0.00    +0.000 HD
ENDROOT
BRANCH   1   9
ATOM      3  O   UNL     1      -0.494  11.735  22.839  0.00  0.00    +0.000 OA
ATOM      4  C   UNL     1      -0.011  10.817  22.182  0.00  0.00    +0.000 C 
ATOM      5  C   UNL     1       0.262   9.428  22.758  0.00  0.00    +0.000 C 
ATOM      6  O   UNL     1       1.176   8.565  22.101  0.00  0.00    +0.000 OA
ATOM      7  C   UNL     1       1.269   8.767  20.752  0.00  0.00    +0.000 A 
ATOM      8  C   UNL     1       1.884   7.755  20.017  0.00  0.00    +0.000 A 
ATOM      9  C   UNL     1       2.092   7.874  18.638  0.00  0.00    +0.000 A 
ATOM     10  C   UNL     1       1.621   9.029  18.000  0.00  0.00    +0.000 A 
ATOM     11  C   UNL     1       1.007  10.059  18.732  0.00  0.00    +0.000 A 
ATOM     12  C   UNL     1       0.834   9.923  20.109  0.00  0.00    +0.000 A 
ATOM     13  N   UNL     1       0.244  10.951  20.842  0.00  0.00    +0.000 N 
ATOM     14  H   UNL     1      -0.002  11.833  20.414  0.00  0.00    +0.000 HD
ENDBRANCH   1   9
BRANCH   1  15
ATOM     15  C   UNL     1       4.035   6.776  17.555  0.00  0.00    +0.000 C 
BRANCH  15  16
ATOM     16  C   UNL     1       4.902   5.763  18.248  0.00  0.00    +0.000 A 
ATOM     17  C   UNL     1       6.282   5.789  18.356  0.00  0.00    +0.000 A 
ATOM     18  N   UNL     1       6.636   4.682  19.056  0.00  0.00    +0.000 N 
ATOM     19  N   UNL     1       5.597   3.932  19.426  0.00  0.00    +0.000 NA
ATOM     20  C   UNL     1       4.515   4.543  18.914  0.00  0.00    +0.000 A 
ATOM     21  H   UNL     1       7.567   4.375  19.316  0.00  0.00    +0.000 HD
BRANCH  20  22
ATOM     22  C   UNL     1       3.183   3.943  19.056  0.00  0.00    +0.000 A 
ATOM     23  C   UNL     1       2.636   3.135  18.048  0.00  0.00    +0.000 A 
ATOM     24  C   UNL     1       1.411   2.483  18.225  0.00  0.00    +0.000 A 
ATOM     25  C   UNL     1       0.687   2.662  19.400  0.00  0.00    +0.000 A 
ATOM     26  C   UNL     1       1.184   3.506  20.390  0.00  0.00    +0.000 A 
ATOM     27  C   UNL     1       2.420   4.134  20.219  0.00  0.00    +0.000 A 
ATOM     28  F   UNL     1       2.860   4.903  21.227  0.00  0.00    +0.000 F 
ENDBRANCH  20  22
ENDBRANCH  15  16
ENDBRANCH   1  15
TORSDOF 4
ENDMDL
MODEL 7
REMARK VINA RESULT:      -8.6      1.667      2.087
REMARK  Name = 
REMARK  4 active torsions:
REMARK  status: ('A' for Active; 'I' for Inactive)
REMARK    1  A    between atoms: C_7  and  N_8
REMARK    2  A    between atoms: N_8  and  C_9
REMARK    3  A    between atoms: C_9  and  C_10
REMARK    4  A    between atoms: C_14  and  C_15
REMARK                            x       y       z     vdW  Elec       q    Type
REMARK                         _______ _______ _______ _____ _____    ______ ____
ROOT
ATOM      1  N   UNL     1       3.262   7.179  17.656  0.00  0.00    +0.000 N 
ATOM      2  H   UNL     1       2.761   6.608  16.981  0.00  0.00    +0.000 HD
ENDROOT
BRANCH   1   9
ATOM      3  O   UNL     1      -1.419  11.709  21.620  0.00  0.00    +0.000 OA
ATOM      4  C   UNL     1      -0.651  11.115  20.869  0.00  0.00    +0.000 C 
ATOM      5  C   UNL     1      -0.186  11.680  19.528  0.00  0.00    +0.000 C 
ATOM      6  O   UNL     1       0.345  10.805  18.545  0.00  0.00    +0.000 OA
ATOM      7  C   UNL     1       0.949   9.689  19.054  0.00  0.00    +0.000 A 
ATOM      8  C   UNL     1       1.764   8.974  18.178  0.00  0.00    +0.000 A 
ATOM      9  C   UNL     1       2.387   7.783  18.565  0.00  0.00    +0.000 A 
ATOM     10  C   UNL     1       2.207   7.345  19.883  0.00  0.00    +0.000 A 
ATOM     11  C   UNL     1       1.382   8.053  20.772  0.00  0.00    +0.000 A 
ATOM     12  C   UNL     1       0.754   9.225  20.352  0.00  0.00    +0.000 A 
ATOM     13  N   UNL     1      -0.082   9.919  21.225  0.00  0.00    +0.000 N 
ATOM     14  H   UNL     1      -0.307   9.559  22.142  0.00  0.00    +0.000 HD
ENDBRANCH   1   9
BRANCH   1  15
ATOM     15  C   UNL     1       4.454   6.480  18.134  0.00  0.00    +0.000 C 
BRANCH  15  16
ATOM     16  C   UNL     1       4.666   5.109  17.555  0.00  0.00    +0.000 A 
ATOM     17  C   UNL     1       5.453   4.783  16.465  0.00  0.00    +0.000 A 
ATOM     18  N   UNL     1       5.346   3.441  16.298  0.00  0.00    +0.000 N 
ATOM     19  N   UNL     1       4.557   2.854  17.199  0.00  0.00    +0.000 NA
ATOM     20  C   UNL     1       4.088   3.853  17.967  0.00  0.00    +0.000 A 
ATOM     21  H   UNL     1       5.783   2.860  15.590  0.00  0.00    +0.000 HD
BRANCH  20  22
ATOM     22  C   UNL     1       3.110   3.581  19.027  0.00  0.00    +0.000 A 
ATOM     23  C   UNL     1       3.488   2.954  20.225  0.00  0.00    +0.000 A 
ATOM     24  C   UNL     1       2.578   2.785  21.274  0.00  0.00    +0.000 A 
ATOM     25  C   UNL     1       1.258   3.199  21.128  0.00  0.00    +0.000 A 
ATOM     26  C   UNL     1       0.847   3.769  19.926  0.00  0.00    +0.000 A 
ATOM     27  C   UNL     1       1.766   3.961  18.891  0.00  0.00    +0.000 A 
ATOM     28  F   UNL     1       1.314   4.552  17.774  0.00  0.00    +0.000 F 
ENDBRANCH  20  22
ENDBRANCH  15  16
ENDBRANCH   1  15
TORSDOF 4
ENDMDL
MODEL 8
REMARK VINA RESULT:      -8.6      2.146      3.710
REMARK  Name = 
REMARK  4 active torsions:
REMARK  status: ('A' for Active; 'I' for Inactive)
REMARK    1  A    between atoms: C_7  and  N_8
REMARK    2  A    between atoms: N_8  and  C_9
REMARK    3  A    between atoms: C_9  and  C_10
REMARK    4  A    between atoms: C_14  and  C_15
REMARK                            x       y       z     vdW  Elec       q    Type
REMARK                         _______ _______ _______ _____ _____    ______ ____
ROOT
ATOM      1  N   UNL     1       2.826   6.083  20.107  0.00  0.00    +0.000 N 
ATOM      2  H   UNL     1       3.555   5.697  19.514  0.00  0.00    +0.000 HD
ENDROOT
BRANCH   1   9
ATOM      3  O   UNL     1      -0.762  12.643  18.610  0.00  0.00    +0.000 OA
ATOM      4  C   UNL     1      -0.282  11.582  18.998  0.00  0.00    +0.000 C 
ATOM      5  C   UNL     1      -0.599  10.968  20.360  0.00  0.00    +0.000 C 
ATOM      6  O   UNL     1       0.275   9.994  20.910  0.00  0.00    +0.000 OA
ATOM      7  C   UNL     1       0.953   9.258  19.979  0.00  0.00    +0.000 A 
ATOM      8  C   UNL     1       1.560   8.090  20.437  0.00  0.00    +0.000 A 
ATOM      9  C   UNL     1       2.332   7.286  19.591  0.00  0.00    +0.000 A 
ATOM     10  C   UNL     1       2.445   7.664  18.247  0.00  0.00    +0.000 A 
ATOM     11  C   UNL     1       1.845   8.843  17.776  0.00  0.00    +0.000 A 
ATOM     12  C   UNL     1       1.100   9.638  18.647  0.00  0.00    +0.000 A 
ATOM     13  N   UNL     1       0.521  10.820  18.189  0.00  0.00    +0.000 N 
ATOM     14  H   UNL     1       0.683  11.161  17.251  0.00  0.00    +0.000 HD
ENDBRANCH   1   9
BRANCH   1  15
ATOM     15  C   UNL     1       1.904   5.032  20.536  0.00  0.00    +0.000 C 
BRANCH  15  16
ATOM     16  C   UNL     1       1.788   3.862  19.599  0.00  0.00    +0.000 A 
ATOM     17  C   UNL     1       0.813   2.881  19.616  0.00  0.00    +0.000 A 
ATOM     18  N   UNL     1       1.103   2.030  18.600  0.00  0.00    +0.000 N 
ATOM     19  N   UNL     1       2.189   2.378  17.908  0.00  0.00    +0.000 NA
ATOM     20  C   UNL     1       2.662   3.479  18.517  0.00  0.00    +0.000 A 
ATOM     21  H   UNL     1       0.604   1.191  18.322  0.00  0.00    +0.000 HD
BRANCH  20  22
ATOM     22  C   UNL     1       3.914   4.099  18.067  0.00  0.00    +0.000 A 
ATOM     23  C   UNL     1       3.974   4.844  16.879  0.00  0.00    +0.000 A 
ATOM     24  C   UNL     1       5.141   5.516  16.502  0.00  0.00    +0.000 A 
ATOM     25  C   UNL     1       6.287   5.419  17.285  0.00  0.00    +0.000 A 
ATOM     26  C   UNL     1       6.267   4.637  18.437  0.00  0.00    +0.000 A 
ATOM     27  C   UNL     1       5.091   3.989  18.823  0.00  0.00    +0.000 A 
ATOM     28  F   UNL     1       5.129   3.284  19.964  0.00  0.00    +0.000 F 
ENDBRANCH  20  22
ENDBRANCH  15  16
ENDBRANCH   1  15
TORSDOF 4
ENDMDL
MODEL 9
REMARK VINA RESULT:      -8.5      2.045      3.736
REMARK  Name = 
REMARK  4 active torsions:
REMARK  status: ('A' for Active; 'I' for Inactive)
REMARK    1  A    between atoms: C_7  and  N_8
REMARK    2  A    between atoms: N_8  and  C_9
REMARK    3  A    between atoms: C_9  and  C_10
REMARK    4  A    between atoms: C_14  and  C_15
REMARK                            x       y       z     vdW  Elec       q    Type
REMARK                         _______ _______ _______ _____ _____    ______ ____
ROOT
ATOM      1  N   UNL     1       2.964   6.586  20.091  0.00  0.00    +0.000 N 
ATOM      2  H   UNL     1       3.932   6.542  19.787  0.00  0.00    +0.000 HD
ENDROOT
BRANCH   1   9
ATOM      3  O   UNL     1      -1.438  12.601  18.482  0.00  0.00    +0.000 OA
ATOM      4  C   UNL     1      -0.816  11.625  18.894  0.00  0.00    +0.000 C 
ATOM      5  C   UNL     1      -0.978  11.065  20.307  0.00  0.00    +0.000 C 
ATOM      6  O   UNL     1       0.034  10.230  20.849  0.00  0.00    +0.000 OA
ATOM      7  C   UNL     1       0.734   9.518  19.916  0.00  0.00    +0.000 A 
ATOM      8  C   UNL     1       1.498   8.455  20.395  0.00  0.00    +0.000 A 
ATOM      9  C   UNL     1       2.305   7.691  19.545  0.00  0.00    +0.000 A 
ATOM     10  C   UNL     1       2.293   7.996  18.177  0.00  0.00    +0.000 A 
ATOM     11  C   UNL     1       1.533   9.070  17.685  0.00  0.00    +0.000 A 
ATOM     12  C   UNL     1       0.756   9.829  18.559  0.00  0.00    +0.000 A 
ATOM     13  N   UNL     1       0.018  10.909  18.076  0.00  0.00    +0.000 N 
ATOM     14  H   UNL     1       0.083  11.207  17.113  0.00  0.00    +0.000 HD
ENDBRANCH   1   9
BRANCH   1  15
ATOM     15  C   UNL     1       2.349   5.260  20.034  0.00  0.00    +0.000 C 
BRANCH  15  16
ATOM     16  C   UNL     1       2.622   4.483  18.775  0.00  0.00    +0.000 A 
ATOM     17  C   UNL     1       1.791   3.549  18.183  0.00  0.00    +0.000 A 
ATOM     18  N   UNL     1       2.438   3.102  17.077  0.00  0.00    +0.000 N 
ATOM     19  N   UNL     1       3.628   3.676  16.889  0.00  0.00    +0.000 NA
ATOM     20  C   UNL     1       3.794   4.503  17.935  0.00  0.00    +0.000 A 
ATOM     21  H   UNL     1       2.128   2.407  16.406  0.00  0.00    +0.000 HD
BRANCH  20  22
ATOM     22  C   UNL     1       5.047   5.249  18.103  0.00  0.00    +0.000 A 
ATOM     23  C   UNL     1       5.941   4.950  19.142  0.00  0.00    +0.000 A 
ATOM     24  C   UNL     1       7.180   5.593  19.242  0.00  0.00    +0.000 A 
ATOM     25  C   UNL     1       7.529   6.582  18.328  0.00  0.00    +0.000 A 
ATOM     26  C   UNL     1       6.632   6.937  17.324  0.00  0.00    +0.000 A 
ATOM     27  C   UNL     1       5.408   6.272  17.213  0.00  0.00    +0.000 A 
ATOM     28  F   UNL     1       4.607   6.635  16.198  0.00  0.00    +0.000 F 
ENDBRANCH  20  22
ENDBRANCH  15  16
ENDBRANCH   1  15
TORSDOF 4
ENDMDL
