MODEL 1
REMARK VINA RESULT:      -8.0      0.000      0.000
REMARK  Name = 
REMARK  5 active torsions:
REMARK  status: ('A' for Active; 'I' for Inactive)
REMARK    1  A    between atoms: C_1  and  C_2
REMARK    2  A    between atoms: C_2  and  C_3
REMARK    3  A    between atoms: C_2  and  N_9
REMARK    4  A    between atoms: C_3  and  C_4
REMARK    5  A    between atoms: C_15  and  C_16
REMARK                            x       y       z     vdW  Elec       q    Type
REMARK                         _______ _______ _______ _____ _____    ______ ____
ROOT
ATOM      1  N   UNL     1       0.400   8.540  21.772  0.00  0.00    +0.000 N 
ATOM      2  C   UNL     1       1.101   7.861  20.796  0.00  0.00    +0.000 C 
ATOM      3  O   UNL     1       1.410   8.382  19.734  0.00  0.00    +0.000 OA
ATOM      4  N   UNL     1       1.393   6.584  21.207  0.00  0.00    +0.000 N 
ATOM      5  C   UNL     1       2.243   5.796  20.493  0.00  0.00    +0.000 A 
ATOM      6  N   UNL     1       3.074   6.141  19.550  0.00  0.00    +0.000 NA
ATOM      7  C   UNL     1       3.723   5.026  19.067  0.00  0.00    +0.000 A 
ATOM      8  C   UNL     1       3.341   3.835  19.658  0.00  0.00    +0.000 A 
ATOM      9  S   UNL     1       2.206   4.145  20.912  0.00  0.00    +0.000 S 
ATOM     10  H   UNL     1       0.102   8.029  22.588  0.00  0.00    +0.000 HD
ATOM     11  H   UNL     1       0.859   6.146  21.934  0.00  0.00    +0.000 HD
ENDROOT
BRANCH   7  12
ATOM     12  C   UNL     1       4.695   5.156  17.991  0.00  0.00    +0.000 A 
ATOM     13  C   UNL     1       5.731   6.097  18.114  0.00  0.00    +0.000 A 
ATOM     14  C   UNL     1       6.686   6.245  17.106  0.00  0.00    +0.000 A 
ATOM     15  C   UNL     1       6.599   5.458  15.967  0.00  0.00    +0.000 A 
ATOM     16  C   UNL     1       5.587   4.499  15.831  0.00  0.00    +0.000 A 
ATOM     17  C   UNL     1       4.644   4.343  16.854  0.00  0.00    +0.000 A 
ATOM     18  C   UNL     1       5.595   3.580  14.644  0.00  0.00    +0.000 C 
ATOM     19  C   UNL     1       6.134   4.298  13.421  0.00  0.00    +0.000 C 
ATOM     20  C   UNL     1       7.437   5.001  13.720  0.00  0.00    +0.000 C 
ATOM     21  O   UNL     1       8.320   5.127  12.875  0.00  0.00    +0.000 OA
ATOM     22  N   UNL     1       7.540   5.604  14.944  0.00  0.00    +0.000 N 
ATOM     23  H   UNL     1       8.359   6.184  15.087  0.00  0.00    +0.000 HD
ENDBRANCH   7  12
BRANCH   1  25
ATOM     24  C   UNL     1      -0.734  10.360  22.900  0.00  0.00    +0.000 C 
ATOM     25  C   UNL     1      -0.031   9.918  21.619  0.00  0.00    +0.000 C 
BRANCH  25  26
ATOM     26  C   UNL     1       1.090  10.896  21.187  0.00  0.00    +0.000 C 
BRANCH  26  27
ATOM     27  C   UNL     1       0.692  12.137  20.360  0.00  0.00    +0.000 C 
ATOM     28  C   UNL     1       0.699  11.814  18.871  0.00  0.00    +0.000 C 
ATOM     29  C   UNL     1       2.127  12.102  18.456  0.00  0.00    +0.000 C 
ATOM     30  O   UNL     1       2.584  13.163  19.297  0.00  0.00    +0.000 OA
ATOM     31  C   UNL     1       1.667  13.310  20.387  0.00  0.00    +0.000 C 
ENDBRANCH  26  27
ENDBRANCH  25  26
ENDBRANCH   1  25
TORSDOF 4
ENDMDL
MODEL 2
REMARK VINA RESULT:      -7.9      3.970      5.920
REMARK  Name = 
REMARK  5 active torsions:
REMARK  status: ('A' for Active; 'I' for Inactive)
REMARK    1  A    between atoms: C_1  and  C_2
REMARK    2  A    between atoms: C_2  and  C_3
REMARK    3  A    between atoms: C_2  and  N_9
REMARK    4  A    between atoms: C_3  and  C_4
REMARK    5  A    between atoms: C_15  and  C_16
REMARK                            x       y       z     vdW  Elec       q    Type
REMARK                         _______ _______ _______ _____ _____    ______ ____
ROOT
ATOM      1  N   UNL     1      -1.114  12.864  22.091  0.00  0.00    +0.000 N 
ATOM      2  C   UNL     1      -0.270  11.848  21.690  0.00  0.00    +0.000 C 
ATOM      3  O   UNL     1       0.070  10.948  22.444  0.00  0.00    +0.000 OA
ATOM      4  N   UNL     1       0.083  12.001  20.372  0.00  0.00    +0.000 N 
ATOM      5  C   UNL     1       0.750  11.018  19.707  0.00  0.00    +0.000 A 
ATOM      6  N   UNL     1       0.916   9.772  20.051  0.00  0.00    +0.000 NA
ATOM      7  C   UNL     1       1.684   9.125  19.108  0.00  0.00    +0.000 A 
ATOM      8  C   UNL     1       2.105   9.924  18.060  0.00  0.00    +0.000 A 
ATOM      9  S   UNL     1       1.439  11.500  18.226  0.00  0.00    +0.000 S 
ATOM     10  H   UNL     1      -1.288  13.621  21.449  0.00  0.00    +0.000 HD
ATOM     11  H   UNL     1       0.017  12.897  19.926  0.00  0.00    +0.000 HD
ENDROOT
BRANCH   7  12
ATOM     12  C   UNL     1       2.021   7.719  19.281  0.00  0.00    +0.000 A 
ATOM     13  C   UNL     1       1.635   7.062  20.461  0.00  0.00    +0.000 A 
ATOM     14  C   UNL     1       1.935   5.713  20.658  0.00  0.00    +0.000 A 
ATOM     15  C   UNL     1       2.633   5.021  19.679  0.00  0.00    +0.000 A 
ATOM     16  C   UNL     1       3.011   5.650  18.486  0.00  0.00    +0.000 A 
ATOM     17  C   UNL     1       2.690   6.997  18.286  0.00  0.00    +0.000 A 
ATOM     18  C   UNL     1       3.654   4.841  17.397  0.00  0.00    +0.000 C 
ATOM     19  C   UNL     1       4.522   3.748  17.989  0.00  0.00    +0.000 C 
ATOM     20  C   UNL     1       3.780   2.961  19.044  0.00  0.00    +0.000 C 
ATOM     21  O   UNL     1       3.985   1.765  19.233  0.00  0.00    +0.000 OA
ATOM     22  N   UNL     1       2.951   3.674  19.868  0.00  0.00    +0.000 N 
ATOM     23  H   UNL     1       2.562   3.166  20.654  0.00  0.00    +0.000 HD
ENDBRANCH   7  12
BRANCH   1  25
ATOM     24  C   UNL     1      -1.359  14.335  24.000  0.00  0.00    +0.000 C 
ATOM     25  C   UNL     1      -1.661  12.951  23.433  0.00  0.00    +0.000 C 
BRANCH  25  26
ATOM     26  C   UNL     1      -3.161  12.577  23.540  0.00  0.00    +0.000 C 
BRANCH  26  27
ATOM     27  C   UNL     1      -4.182  13.447  22.776  0.00  0.00    +0.000 C 
ATOM     28  C   UNL     1      -5.269  13.949  23.718  0.00  0.00    +0.000 C 
ATOM     29  C   UNL     1      -6.307  12.846  23.676  0.00  0.00    +0.000 C 
ATOM     30  O   UNL     1      -6.239  12.281  22.366  0.00  0.00    +0.000 OA
ATOM     31  C   UNL     1      -5.036  12.732  21.734  0.00  0.00    +0.000 C 
ENDBRANCH  26  27
ENDBRANCH  25  26
ENDBRANCH   1  25
TORSDOF 4
ENDMDL
MODEL 3
REMARK VINA RESULT:      -7.9      4.611      7.034
REMARK  Name = 
REMARK  5 active torsions:
REMARK  status: ('A' for Active; 'I' for Inactive)
REMARK    1  A    between atoms: C_1  and  C_2
REMARK    2  A    between atoms: C_2  and  C_3
REMARK    3  A    between atoms: C_2  and  N_9
REMARK    4  A    between atoms: C_3  and  C_4
REMARK    5  A    between atoms: C_15  and  C_16
REMARK                            x       y       z     vdW  Elec       q    Type
REMARK                         _______ _______ _______ _____ _____    ______ ____
ROOT
ATOM      1  N   UNL     1      -2.970  13.417  22.836  0.00  0.00    +0.000 N 
ATOM      2  C   UNL     1      -1.932  12.643  22.359  0.00  0.00    +0.000 C 
ATOM      3  O   UNL     1      -1.362  11.815  23.056  0.00  0.00    +0.000 OA
ATOM      4  N   UNL     1      -1.677  12.931  21.041  0.00  0.00    +0.000 N 
ATOM      5  C   UNL     1      -0.829  12.159  20.307  0.00  0.00    +0.000 A 
ATOM      6  N   UNL     1      -0.366  10.973  20.581  0.00  0.00    +0.000 NA
ATOM      7  C   UNL     1       0.491  10.562  19.584  0.00  0.00    +0.000 A 
ATOM      8  C   UNL     1       0.674  11.482  18.566  0.00  0.00    +0.000 A 
ATOM      9  S   UNL     1      -0.330  12.852  18.833  0.00  0.00    +0.000 S 
ATOM     10  H   UNL     1      -3.340  14.140  22.240  0.00  0.00    +0.000 HD
ATOM     11  H   UNL     1      -1.966  13.805  20.644  0.00  0.00    +0.000 HD
ENDROOT
BRANCH   7  12
ATOM     12  C   UNL     1       1.151   9.268  19.674  0.00  0.00    +0.000 A 
ATOM     13  C   UNL     1       0.983   8.493  20.834  0.00  0.00    +0.000 A 
ATOM     14  C   UNL     1       1.594   7.243  20.953  0.00  0.00    +0.000 A 
ATOM     15  C   UNL     1       2.385   6.771  19.916  0.00  0.00    +0.000 A 
ATOM     16  C   UNL     1       2.550   7.517  18.741  0.00  0.00    +0.000 A 
ATOM     17  C   UNL     1       1.919   8.760  18.621  0.00  0.00    +0.000 A 
ATOM     18  C   UNL     1       3.308   6.923  17.590  0.00  0.00    +0.000 C 
ATOM     19  C   UNL     1       4.432   6.038  18.094  0.00  0.00    +0.000 C 
ATOM     20  C   UNL     1       3.942   5.060  19.137  0.00  0.00    +0.000 C 
ATOM     21  O   UNL     1       4.426   3.937  19.258  0.00  0.00    +0.000 OA
ATOM     22  N   UNL     1       3.013   5.528  20.026  0.00  0.00    +0.000 N 
ATOM     23  H   UNL     1       2.788   4.913  20.800  0.00  0.00    +0.000 HD
ENDBRANCH   7  12
BRANCH   1  25
ATOM     24  C   UNL     1      -3.304  14.670  24.883  0.00  0.00    +0.000 C 
ATOM     25  C   UNL     1      -3.467  13.316  24.197  0.00  0.00    +0.000 C 
BRANCH  25  26
ATOM     26  C   UNL     1      -4.908  12.759  24.314  0.00  0.00    +0.000 C 
BRANCH  26  27
ATOM     27  C   UNL     1      -6.012  13.415  23.458  0.00  0.00    +0.000 C 
ATOM     28  C   UNL     1      -7.385  13.160  24.068  0.00  0.00    +0.000 C 
ATOM     29  C   UNL     1      -7.806  11.843  23.447  0.00  0.00    +0.000 C 
ATOM     30  O   UNL     1      -7.217  11.807  22.145  0.00  0.00    +0.000 OA
ATOM     31  C   UNL     1      -6.223  12.834  22.063  0.00  0.00    +0.000 C 
ENDBRANCH  26  27
ENDBRANCH  25  26
ENDBRANCH   1  25
TORSDOF 4
ENDMDL
MODEL 4
REMARK VINA RESULT:      -7.8      0.878      1.192
REMARK  Name = 
REMARK  5 active torsions:
REMARK  status: ('A' for Active; 'I' for Inactive)
REMARK    1  A    between atoms: C_1  and  C_2
REMARK    2  A    between atoms: C_2  and  C_3
REMARK    3  A    between atoms: C_2  and  N_9
REMARK    4  A    between atoms: C_3  and  C_4
REMARK    5  A    between atoms: C_15  and  C_16
REMARK                            x       y       z     vdW  Elec       q    Type
REMARK                         _______ _______ _______ _____ _____    ______ ____
ROOT
ATOM      1  N   UNL     1       0.472   8.971  21.516  0.00  0.00    +0.000 N 
ATOM      2  C   UNL     1       1.149   8.222  20.575  0.00  0.00    +0.000 C 
ATOM      3  O   UNL     1       1.421   8.659  19.466  0.00  0.00    +0.000 OA
ATOM      4  N   UNL     1       1.464   6.984  21.076  0.00  0.00    +0.000 N 
ATOM      5  C   UNL     1       2.298   6.146  20.400  0.00  0.00    +0.000 A 
ATOM      6  N   UNL     1       3.096   6.420  19.408  0.00  0.00    +0.000 NA
ATOM      7  C   UNL     1       3.740   5.275  18.994  0.00  0.00    +0.000 A 
ATOM      8  C   UNL     1       3.386   4.131  19.688  0.00  0.00    +0.000 A 
ATOM      9  S   UNL     1       2.288   4.533  20.949  0.00  0.00    +0.000 S 
ATOM     10  H   UNL     1       0.203   8.525  22.378  0.00  0.00    +0.000 HD
ATOM     11  H   UNL     1       0.956   6.601  21.851  0.00  0.00    +0.000 HD
ENDROOT
BRANCH   7  12
ATOM     12  C   UNL     1       4.678   5.325  17.881  0.00  0.00    +0.000 A 
ATOM     13  C   UNL     1       5.724   6.262  17.909  0.00  0.00    +0.000 A 
ATOM     14  C   UNL     1       6.647   6.334  16.864  0.00  0.00    +0.000 A 
ATOM     15  C   UNL     1       6.517   5.476  15.781  0.00  0.00    +0.000 A 
ATOM     16  C   UNL     1       5.494   4.520  15.742  0.00  0.00    +0.000 A 
ATOM     17  C   UNL     1       4.584   4.440  16.802  0.00  0.00    +0.000 A 
ATOM     18  C   UNL     1       5.457   3.525  14.618  0.00  0.00    +0.000 C 
ATOM     19  C   UNL     1       5.960   4.156  13.333  0.00  0.00    +0.000 C 
ATOM     20  C   UNL     1       7.278   4.865  13.544  0.00  0.00    +0.000 C 
ATOM     21  O   UNL     1       8.134   4.927  12.665  0.00  0.00    +0.000 OA
ATOM     22  N   UNL     1       7.425   5.545  14.722  0.00  0.00    +0.000 N 
ATOM     23  H   UNL     1       8.252   6.126  14.800  0.00  0.00    +0.000 HD
ENDBRANCH   7  12
BRANCH   1  25
ATOM     24  C   UNL     1      -0.819  10.796  22.452  0.00  0.00    +0.000 C 
ATOM     25  C   UNL     1       0.025  10.331  21.268  0.00  0.00    +0.000 C 
BRANCH  25  26
ATOM     26  C   UNL     1       1.160  11.325  20.917  0.00  0.00    +0.000 C 
BRANCH  26  27
ATOM     27  C   UNL     1       1.053  12.113  19.594  0.00  0.00    +0.000 C 
ATOM     28  C   UNL     1       1.355  13.589  19.824  0.00  0.00    +0.000 C 
ATOM     29  C   UNL     1       0.003  14.172  20.181  0.00  0.00    +0.000 C 
ATOM     30  O   UNL     1      -0.967  13.403  19.467  0.00  0.00    +0.000 OA
ATOM     31  C   UNL     1      -0.337  12.214  18.976  0.00  0.00    +0.000 C 
ENDBRANCH  26  27
ENDBRANCH  25  26
ENDBRANCH   1  25
TORSDOF 4
ENDMDL
MODEL 5
REMARK VINA RESULT:      -7.8      2.184      9.697
REMARK  Name = 
REMARK  5 active torsions:
REMARK  status: ('A' for Active; 'I' for Inactive)
REMARK    1  A    between atoms: C_1  and  C_2
REMARK    2  A    between atoms: C_2  and  C_3
REMARK    3  A    between atoms: C_2  and  N_9
REMARK    4  A    between atoms: C_3  and  C_4
REMARK    5  A    between atoms: C_15  and  C_16
REMARK                            x       y       z     vdW  Elec       q    Type
REMARK                         _______ _______ _______ _____ _____    ______ ____
ROOT
ATOM      1  N   UNL     1       4.903   4.417  16.481  0.00  0.00    +0.000 N 
ATOM      2  C   UNL     1       4.385   5.434  17.257  0.00  0.00    +0.000 C 
ATOM      3  O   UNL     1       4.574   6.614  16.996  0.00  0.00    +0.000 OA
ATOM      4  N   UNL     1       3.647   4.925  18.296  0.00  0.00    +0.000 N 
ATOM      5  C   UNL     1       2.883   5.738  19.077  0.00  0.00    +0.000 A 
ATOM      6  N   UNL     1       2.512   6.966  18.852  0.00  0.00    +0.000 NA
ATOM      7  C   UNL     1       1.770   7.433  19.915  0.00  0.00    +0.000 A 
ATOM      8  C   UNL     1       1.614   6.529  20.951  0.00  0.00    +0.000 A 
ATOM      9  S   UNL     1       2.342   5.029  20.529  0.00  0.00    +0.000 S 
ATOM     10  H   UNL     1       4.784   3.468  16.798  0.00  0.00    +0.000 HD
ATOM     11  H   UNL     1       3.791   3.984  18.612  0.00  0.00    +0.000 HD
ENDROOT
BRANCH   7  12
ATOM     12  C   UNL     1       1.253   8.794  19.903  0.00  0.00    +0.000 A 
ATOM     13  C   UNL     1       1.421   9.581  18.752  0.00  0.00    +0.000 A 
ATOM     14  C   UNL     1       0.932  10.887  18.701  0.00  0.00    +0.000 A 
ATOM     15  C   UNL     1       0.284  11.414  19.809  0.00  0.00    +0.000 A 
ATOM     16  C   UNL     1       0.087  10.641  20.961  0.00  0.00    +0.000 A 
ATOM     17  C   UNL     1       0.562   9.326  20.998  0.00  0.00    +0.000 A 
ATOM     18  C   UNL     1      -0.727  11.199  22.093  0.00  0.00    +0.000 C 
ATOM     19  C   UNL     1      -0.522  12.697  22.207  0.00  0.00    +0.000 C 
ATOM     20  C   UNL     1      -0.693  13.383  20.871  0.00  0.00    +0.000 C 
ATOM     21  O   UNL     1      -1.150  14.520  20.774  0.00  0.00    +0.000 OA
ATOM     22  N   UNL     1      -0.199  12.725  19.778  0.00  0.00    +0.000 N 
ATOM     23  H   UNL     1      -0.197  13.246  18.908  0.00  0.00    +0.000 HD
ENDBRANCH   7  12
BRANCH   1  25
ATOM     24  C   UNL     1       7.159   4.893  15.736  0.00  0.00    +0.000 C 
ATOM     25  C   UNL     1       5.715   4.660  15.302  0.00  0.00    +0.000 C 
BRANCH  25  26
ATOM     26  C   UNL     1       5.590   3.575  14.203  0.00  0.00    +0.000 C 
BRANCH  26  27
ATOM     27  C   UNL     1       5.725   4.014  12.729  0.00  0.00    +0.000 C 
ATOM     28  C   UNL     1       4.818   3.177  11.836  0.00  0.00    +0.000 C 
ATOM     29  C   UNL     1       5.685   1.989  11.471  0.00  0.00    +0.000 C 
ATOM     30  O   UNL     1       7.031   2.468  11.438  0.00  0.00    +0.000 OA
ATOM     31  C   UNL     1       7.074   3.755  12.066  0.00  0.00    +0.000 C 
ENDBRANCH  26  27
ENDBRANCH  25  26
ENDBRANCH   1  25
TORSDOF 4
ENDMDL
MODEL 6
REMARK VINA RESULT:      -7.8      1.844      2.428
REMARK  Name = 
REMARK  5 active torsions:
REMARK  status: ('A' for Active; 'I' for Inactive)
REMARK    1  A    between atoms: C_1  and  C_2
REMARK    2  A    between atoms: C_2  and  C_3
REMARK    3  A    between atoms: C_2  and  N_9
REMARK    4  A    between atoms: C_3  and  C_4
REMARK    5  A    between atoms: C_15  and  C_16
REMARK                            x       y       z     vdW  Elec       q    Type
REMARK                         _______ _______ _______ _____ _____    ______ ____
ROOT
ATOM      1  N   UNL     1       0.498   9.179  21.522  0.00  0.00    +0.000 N 
ATOM      2  C   UNL     1       1.161   8.415  20.582  0.00  0.00    +0.000 C 
ATOM      3  O   UNL     1       1.467   8.855  19.483  0.00  0.00    +0.000 OA
ATOM      4  N   UNL     1       1.421   7.160  21.072  0.00  0.00    +0.000 N 
ATOM      5  C   UNL     1       2.233   6.299  20.398  0.00  0.00    +0.000 A 
ATOM      6  N   UNL     1       3.057   6.555  19.422  0.00  0.00    +0.000 NA
ATOM      7  C   UNL     1       3.663   5.390  19.004  0.00  0.00    +0.000 A 
ATOM      8  C   UNL     1       3.254   4.253  19.678  0.00  0.00    +0.000 A 
ATOM      9  S   UNL     1       2.152   4.681  20.926  0.00  0.00    +0.000 S 
ATOM     10  H   UNL     1       0.199   8.733  22.374  0.00  0.00    +0.000 HD
ATOM     11  H   UNL     1       0.886   6.787  21.834  0.00  0.00    +0.000 HD
ENDROOT
BRANCH   7  12
ATOM     12  C   UNL     1       4.619   5.418  17.907  0.00  0.00    +0.000 A 
ATOM     13  C   UNL     1       5.665   6.356  17.933  0.00  0.00    +0.000 A 
ATOM     14  C   UNL     1       6.606   6.407  16.903  0.00  0.00    +0.000 A 
ATOM     15  C   UNL     1       6.494   5.527  15.836  0.00  0.00    +0.000 A 
ATOM     16  C   UNL     1       5.471   4.571  15.798  0.00  0.00    +0.000 A 
ATOM     17  C   UNL     1       4.544   4.512  16.844  0.00  0.00    +0.000 A 
ATOM     18  C   UNL     1       5.453   3.554  14.693  0.00  0.00    +0.000 C 
ATOM     19  C   UNL     1       5.979   4.159  13.405  0.00  0.00    +0.000 C 
ATOM     20  C   UNL     1       7.293   4.872  13.624  0.00  0.00    +0.000 C 
ATOM     21  O   UNL     1       8.164   4.916  12.759  0.00  0.00    +0.000 OA
ATOM     22  N   UNL     1       7.420   5.576  14.791  0.00  0.00    +0.000 N 
ATOM     23  H   UNL     1       8.246   6.157  14.871  0.00  0.00    +0.000 HD
ENDBRANCH   7  12
BRANCH   1  25
ATOM     24  C   UNL     1      -0.663  10.631  19.969  0.00  0.00    +0.000 C 
ATOM     25  C   UNL     1       0.108  10.557  21.285  0.00  0.00    +0.000 C 
BRANCH  25  26
ATOM     26  C   UNL     1      -0.654  11.219  22.459  0.00  0.00    +0.000 C 
BRANCH  26  27
ATOM     27  C   UNL     1      -1.755  12.248  22.124  0.00  0.00    +0.000 C 
ATOM     28  C   UNL     1      -1.194  13.664  22.162  0.00  0.00    +0.000 C 
ATOM     29  C   UNL     1      -1.373  14.074  23.609  0.00  0.00    +0.000 C 
ATOM     30  O   UNL     1      -2.545  13.401  24.075  0.00  0.00    +0.000 OA
ATOM     31  C   UNL     1      -2.891  12.379  23.133  0.00  0.00    +0.000 C 
ENDBRANCH  26  27
ENDBRANCH  25  26
ENDBRANCH   1  25
TORSDOF 4
ENDMDL
MODEL 7
REMARK VINA RESULT:      -7.7      3.936      9.714
REMARK  Name = 
REMARK  5 active torsions:
REMARK  status: ('A' for Active; 'I' for Inactive)
REMARK    1  A    between atoms: C_1  and  C_2
REMARK    2  A    between atoms: C_2  and  C_3
REMARK    3  A    between atoms: C_2  and  N_9
REMARK    4  A    between atoms: C_3  and  C_4
REMARK    5  A    between atoms: C_15  and  C_16
REMARK                            x       y       z     vdW  Elec       q    Type
REMARK                         _______ _______ _______ _____ _____    ______ ____
ROOT
ATOM      1  N   UNL     1       3.289   6.363  18.885  0.00  0.00    +0.000 N 
ATOM      2  C   UNL     1       2.446   7.451  18.990  0.00  0.00    +0.000 C 
ATOM      3  O   UNL     1       1.959   7.995  18.009  0.00  0.00    +0.000 OA
ATOM      4  N   UNL     1       2.245   7.785  20.306  0.00  0.00    +0.000 N 
ATOM      5  C   UNL     1       1.301   8.700  20.660  0.00  0.00    +0.000 A 
ATOM      6  N   UNL     1       0.321   9.176  19.945  0.00  0.00    +0.000 NA
ATOM      7  C   UNL     1      -0.383  10.108  20.676  0.00  0.00    +0.000 A 
ATOM      8  C   UNL     1       0.110  10.333  21.950  0.00  0.00    +0.000 A 
ATOM      9  S   UNL     1       1.431   9.277  22.258  0.00  0.00    +0.000 S 
ATOM     10  H   UNL     1       3.725   6.015  19.723  0.00  0.00    +0.000 HD
ATOM     11  H   UNL     1       2.898   7.500  21.011  0.00  0.00    +0.000 HD
ENDROOT
BRANCH   7  12
ATOM     12  C   UNL     1      -1.521  10.794  20.082  0.00  0.00    +0.000 A 
ATOM     13  C   UNL     1      -2.156  11.818  20.804  0.00  0.00    +0.000 A 
ATOM     14  C   UNL     1      -3.246  12.503  20.263  0.00  0.00    +0.000 A 
ATOM     15  C   UNL     1      -3.710  12.157  19.003  0.00  0.00    +0.000 A 
ATOM     16  C   UNL     1      -3.080  11.152  18.257  0.00  0.00    +0.000 A 
ATOM     17  C   UNL     1      -1.976  10.482  18.796  0.00  0.00    +0.000 A 
ATOM     18  C   UNL     1      -3.529  10.887  16.849  0.00  0.00    +0.000 C 
ATOM     19  C   UNL     1      -5.023  11.110  16.717  0.00  0.00    +0.000 C 
ATOM     20  C   UNL     1      -5.439  12.440  17.303  0.00  0.00    +0.000 C 
ATOM     21  O   UNL     1      -6.371  13.095  16.841  0.00  0.00    +0.000 OA
ATOM     22  N   UNL     1      -4.808  12.825  18.454  0.00  0.00    +0.000 N 
ATOM     23  H   UNL     1      -5.182  13.647  18.913  0.00  0.00    +0.000 HD
ENDBRANCH   7  12
BRANCH   1  25
ATOM     24  C   UNL     1       4.891   6.519  17.074  0.00  0.00    +0.000 C 
ATOM     25  C   UNL     1       3.668   5.780  17.610  0.00  0.00    +0.000 C 
BRANCH  25  26
ATOM     26  C   UNL     1       3.866   4.244  17.642  0.00  0.00    +0.000 C 
BRANCH  26  27
ATOM     27  C   UNL     1       2.669   3.349  17.255  0.00  0.00    +0.000 C 
ATOM     28  C   UNL     1       1.370   3.923  17.807  0.00  0.00    +0.000 C 
ATOM     29  C   UNL     1       1.273   3.308  19.188  0.00  0.00    +0.000 C 
ATOM     30  O   UNL     1       1.894   2.024  19.100  0.00  0.00    +0.000 OA
ATOM     31  C   UNL     1       2.635   1.956  17.877  0.00  0.00    +0.000 C 
ENDBRANCH  26  27
ENDBRANCH  25  26
ENDBRANCH   1  25
TORSDOF 4
ENDMDL
MODEL 8
REMARK VINA RESULT:      -7.7      1.983      9.400
REMARK  Name = 
REMARK  5 active torsions:
REMARK  status: ('A' for Active; 'I' for Inactive)
REMARK    1  A    between atoms: C_1  and  C_2
REMARK    2  A    between atoms: C_2  and  C_3
REMARK    3  A    between atoms: C_2  and  N_9
REMARK    4  A    between atoms: C_3  and  C_4
REMARK    5  A    between atoms: C_15  and  C_16
REMARK                            x       y       z     vdW  Elec       q    Type
REMARK                         _______ _______ _______ _____ _____    ______ ____
ROOT
ATOM      1  N   UNL     1       4.849   4.232  16.324  0.00  0.00    +0.000 N 
ATOM      2  C   UNL     1       4.380   5.132  17.260  0.00  0.00    +0.000 C 
ATOM      3  O   UNL     1       4.637   6.326  17.202  0.00  0.00    +0.000 OA
ATOM      4  N   UNL     1       3.605   4.497  18.198  0.00  0.00    +0.000 N 
ATOM      5  C   UNL     1       2.879   5.209  19.104  0.00  0.00    +0.000 A 
ATOM      6  N   UNL     1       2.580   6.477  19.090  0.00  0.00    +0.000 NA
ATOM      7  C   UNL     1       1.854   6.799  20.216  0.00  0.00    +0.000 A 
ATOM      8  C   UNL     1       1.638   5.744  21.084  0.00  0.00    +0.000 A 
ATOM      9  S   UNL     1       2.285   4.298  20.415  0.00  0.00    +0.000 S 
ATOM     10  H   UNL     1       4.674   3.251  16.475  0.00  0.00    +0.000 HD
ATOM     11  H   UNL     1       3.692   3.510  18.351  0.00  0.00    +0.000 HD
ENDROOT
BRANCH   7  12
ATOM     12  C   UNL     1       1.414   8.170  20.434  0.00  0.00    +0.000 A 
ATOM     13  C   UNL     1       1.024   8.568  21.723  0.00  0.00    +0.000 A 
ATOM     14  C   UNL     1       0.603   9.875  21.972  0.00  0.00    +0.000 A 
ATOM     15  C   UNL     1       0.561  10.786  20.926  0.00  0.00    +0.000 A 
ATOM     16  C   UNL     1       0.965  10.418  19.636  0.00  0.00    +0.000 A 
ATOM     17  C   UNL     1       1.404   9.111  19.398  0.00  0.00    +0.000 A 
ATOM     18  C   UNL     1       1.026  11.460  18.557  0.00  0.00    +0.000 C 
ATOM     19  C   UNL     1      -0.074  12.486  18.746  0.00  0.00    +0.000 C 
ATOM     20  C   UNL     1      -0.108  13.007  20.165  0.00  0.00    +0.000 C 
ATOM     21  O   UNL     1      -0.439  14.160  20.430  0.00  0.00    +0.000 OA
ATOM     22  N   UNL     1       0.130  12.095  21.157  0.00  0.00    +0.000 N 
ATOM     23  H   UNL     1      -0.025  12.418  22.105  0.00  0.00    +0.000 HD
ENDBRANCH   7  12
BRANCH   1  25
ATOM     24  C   UNL     1       7.004   5.173  15.739  0.00  0.00    +0.000 C 
ATOM     25  C   UNL     1       5.684   4.624  15.203  0.00  0.00    +0.000 C 
BRANCH  25  26
ATOM     26  C   UNL     1       5.888   3.518  14.138  0.00  0.00    +0.000 C 
BRANCH  26  27
ATOM     27  C   UNL     1       5.951   3.940  12.654  0.00  0.00    +0.000 C 
ATOM     28  C   UNL     1       4.944   3.149  11.829  0.00  0.00    +0.000 C 
ATOM     29  C   UNL     1       5.718   1.913  11.420  0.00  0.00    +0.000 C 
ATOM     30  O   UNL     1       7.083   2.317  11.296  0.00  0.00    +0.000 OA
ATOM     31  C   UNL     1       7.238   3.603  11.908  0.00  0.00    +0.000 C 
ENDBRANCH  26  27
ENDBRANCH  25  26
ENDBRANCH   1  25
TORSDOF 4
ENDMDL
MODEL 9
REMARK VINA RESULT:      -7.6      2.115      2.566
REMARK  Name = 
REMARK  5 active torsions:
REMARK  status: ('A' for Active; 'I' for Inactive)
REMARK    1  A    between atoms: C_1  and  C_2
REMARK    2  A    between atoms: C_2  and  C_3
REMARK    3  A    between atoms: C_2  and  N_9
REMARK    4  A    between atoms: C_3  and  C_4
REMARK    5  A    between atoms: C_15  and  C_16
REMARK                            x       y       z     vdW  Elec       q    Type
REMARK                         _______ _______ _______ _____ _____    ______ ____
ROOT
ATOM      1  N   UNL     1       0.331  10.095  20.549  0.00  0.00    +0.000 N 
ATOM      2  C   UNL     1       1.030   9.202  19.762  0.00  0.00    +0.000 C 
ATOM      3  O   UNL     1       1.392   9.478  18.627  0.00  0.00    +0.000 OA
ATOM      4  N   UNL     1       1.254   8.030  20.440  0.00  0.00    +0.000 N 
ATOM      5  C   UNL     1       2.089   7.078  19.937  0.00  0.00    +0.000 A 
ATOM      6  N   UNL     1       2.960   7.188  18.974  0.00  0.00    +0.000 NA
ATOM      7  C   UNL     1       3.574   5.974  18.758  0.00  0.00    +0.000 A 
ATOM      8  C   UNL     1       3.123   4.947  19.568  0.00  0.00    +0.000 A 
ATOM      9  S   UNL     1       1.967   5.554  20.688  0.00  0.00    +0.000 S 
ATOM     10  H   UNL     1      -0.012   9.778  21.441  0.00  0.00    +0.000 HD
ATOM     11  H   UNL     1       0.681   7.773  21.221  0.00  0.00    +0.000 HD
ENDROOT
BRANCH   7  12
ATOM     12  C   UNL     1       4.581   5.840  17.715  0.00  0.00    +0.000 A 
ATOM     13  C   UNL     1       5.732   6.645  17.767  0.00  0.00    +0.000 A 
ATOM     14  C   UNL     1       6.722   6.540  16.789  0.00  0.00    +0.000 A 
ATOM     15  C   UNL     1       6.558   5.636  15.749  0.00  0.00    +0.000 A 
ATOM     16  C   UNL     1       5.429   4.809  15.688  0.00  0.00    +0.000 A 
ATOM     17  C   UNL     1       4.449   4.906  16.682  0.00  0.00    +0.000 A 
ATOM     18  C   UNL     1       5.342   3.757  14.621  0.00  0.00    +0.000 C 
ATOM     19  C   UNL     1       6.003   4.239  13.343  0.00  0.00    +0.000 C 
ATOM     20  C   UNL     1       7.382   4.797  13.610  0.00  0.00    +0.000 C 
ATOM     21  O   UNL     1       8.295   4.699  12.793  0.00  0.00    +0.000 OA
ATOM     22  N   UNL     1       7.535   5.528  14.756  0.00  0.00    +0.000 N 
ATOM     23  H   UNL     1       8.421   6.009  14.862  0.00  0.00    +0.000 HD
ENDBRANCH   7  12
BRANCH   1  25
ATOM     24  C   UNL     1       1.199  12.324  20.161  0.00  0.00    +0.000 C 
ATOM     25  C   UNL     1      -0.034  11.426  20.097  0.00  0.00    +0.000 C 
BRANCH  25  26
ATOM     26  C   UNL     1      -0.728  11.465  18.713  0.00  0.00    +0.000 C 
BRANCH  26  27
ATOM     27  C   UNL     1      -2.005  10.619  18.516  0.00  0.00    +0.000 C 
ATOM     28  C   UNL     1      -1.966   9.893  17.177  0.00  0.00    +0.000 C 
ATOM     29  C   UNL     1      -2.584  10.892  16.220  0.00  0.00    +0.000 C 
ATOM     30  O   UNL     1      -3.540  11.637  16.977  0.00  0.00    +0.000 OA
ATOM     31  C   UNL     1      -3.313  11.390  18.370  0.00  0.00    +0.000 C 
ENDBRANCH  26  27
ENDBRANCH  25  26
ENDBRANCH   1  25
TORSDOF 4
ENDMDL
