MODEL 1
REMARK VINA RESULT:      -8.5      0.000      0.000
REMARK  Name = 
REMARK  7 active torsions:
REMARK  status: ('A' for Active; 'I' for Inactive)
REMARK    1  A    between atoms: C_1  and  N_2
REMARK    2  A    between atoms: C_6  and  C_7
REMARK    3  A    between atoms: C_7  and  C_8
REMARK    4  A    between atoms: C_8  and  C_10
REMARK    5  A    between atoms: C_14  and  N_15
REMARK    6  A    between atoms: C_18  and  C_19
REMARK    7  A    between atoms: C_22  and  C_23
REMARK                            x       y       z     vdW  Elec       q    Type
REMARK                         _______ _______ _______ _____ _____    ______ ____
ROOT
ATOM      1  C   UNL     1       2.031   7.877  19.530  0.00  0.00    +0.000 A 
ATOM      2  C   UNL     1       2.470   8.559  18.393  0.00  0.00    +0.000 A 
ATOM      3  C   UNL     1       3.098   7.855  17.362  0.00  0.00    +0.000 A 
ATOM      4  C   UNL     1       3.384   6.498  17.514  0.00  0.00    +0.000 A 
ATOM      5  C   UNL     1       3.134   5.870  18.743  0.00  0.00    +0.000 A 
ATOM      6  C   UNL     1       2.317   6.514  19.674  0.00  0.00    +0.000 A 
ENDROOT
BRANCH   5   7
ATOM      7  N   UNL     1       4.063   4.866  19.258  0.00  0.00    +0.000 N 
ATOM      8  C   UNL     1       5.418   5.459  19.379  0.00  0.00    +0.000 C 
ATOM      9  C   UNL     1       5.979   5.181  18.015  0.00  0.00    +0.000 A 
ATOM     10  C   UNL     1       6.659   6.011  17.134  0.00  0.00    +0.000 A 
ATOM     11  C   UNL     1       6.781   5.569  15.802  0.00  0.00    +0.000 A 
ATOM     12  C   UNL     1       6.221   4.341  15.364  0.00  0.00    +0.000 A 
ATOM     13  C   UNL     1       5.523   3.536  16.270  0.00  0.00    +0.000 A 
ATOM     14  C   UNL     1       5.398   3.996  17.566  0.00  0.00    +0.000 A 
ATOM     15  C   UNL     1       4.236   3.709  18.455  0.00  0.00    +0.000 C 
ATOM     16  O   UNL     1       3.488   2.763  18.313  0.00  0.00    +0.000 OA
BRANCH  10  17
ATOM     17  C   UNL     1       7.036   7.425  17.483  0.00  0.00    +0.000 C 
ATOM     18  F   UNL     1       8.230   7.529  18.127  0.00  0.00    +0.000 F 
ENDBRANCH  10  17
BRANCH  12  19
ATOM     19  C   UNL     1       6.251   3.966  13.905  0.00  0.00    +0.000 C 
ATOM     20  F   UNL     1       7.096   4.736  13.166  0.00  0.00    +0.000 F 
ENDBRANCH  12  19
ENDBRANCH   5   7
BRANCH   1  21
ATOM     21  C   UNL     1       1.345   8.563  20.664  0.00  0.00    +0.000 C 
ATOM     22  N   UNL     1       1.748   8.343  21.880  0.00  0.00    +0.000 NA
ATOM     23  H   UNL     1       1.139   8.797  22.569  0.00  0.00    +0.000 HD
BRANCH  21  24
ATOM     24  C   UNL     1       0.135   9.421  20.394  0.00  0.00    +0.000 C 
BRANCH  24  30
ATOM     25  C   UNL     1      -1.081  11.981  18.730  0.00  0.00    +0.000 C 
ATOM     26  N   UNL     1      -0.133  11.943  19.814  0.00  0.00    +0.000 N 
ATOM     27  C   UNL     1       0.515  13.051  20.280  0.00  0.00    +0.000 A 
ATOM     28  N   UNL     1       1.259  12.729  21.307  0.00  0.00    +0.000 NA
ATOM     29  N   UNL     1       1.126  11.381  21.500  0.00  0.00    +0.000 NA
ATOM     30  C   UNL     1       0.318  10.891  20.576  0.00  0.00    +0.000 A 
ENDBRANCH  24  30
ENDBRANCH  21  24
ENDBRANCH   1  21
TORSDOF 6
ENDMDL
MODEL 2
REMARK VINA RESULT:      -8.3      0.746      1.032
REMARK  Name = 
REMARK  7 active torsions:
REMARK  status: ('A' for Active; 'I' for Inactive)
REMARK    1  A    between atoms: C_1  and  N_2
REMARK    2  A    between atoms: C_6  and  C_7
REMARK    3  A    between atoms: C_7  and  C_8
REMARK    4  A    between atoms: C_8  and  C_10
REMARK    5  A    between atoms: C_14  and  N_15
REMARK    6  A    between atoms: C_18  and  C_19
REMARK    7  A    between atoms: C_22  and  C_23
REMARK                            x       y       z     vdW  Elec       q    Type
REMARK                         _______ _______ _______ _____ _____    ______ ____
ROOT
ATOM      1  C   UNL     1       2.029   7.845  19.549  0.00  0.00    +0.000 A 
ATOM      2  C   UNL     1       2.462   8.536  18.415  0.00  0.00    +0.000 A 
ATOM      3  C   UNL     1       3.082   7.841  17.375  0.00  0.00    +0.000 A 
ATOM      4  C   UNL     1       3.367   6.482  17.512  0.00  0.00    +0.000 A 
ATOM      5  C   UNL     1       3.123   5.843  18.736  0.00  0.00    +0.000 A 
ATOM      6  C   UNL     1       2.313   6.480  19.679  0.00  0.00    +0.000 A 
ENDROOT
BRANCH   5   7
ATOM      7  N   UNL     1       4.054   4.833  19.237  0.00  0.00    +0.000 N 
ATOM      8  C   UNL     1       5.408   5.426  19.367  0.00  0.00    +0.000 C 
ATOM      9  C   UNL     1       5.970   5.170  17.999  0.00  0.00    +0.000 A 
ATOM     10  C   UNL     1       6.649   6.015  17.131  0.00  0.00    +0.000 A 
ATOM     11  C   UNL     1       6.772   5.593  15.792  0.00  0.00    +0.000 A 
ATOM     12  C   UNL     1       6.214   4.371  15.336  0.00  0.00    +0.000 A 
ATOM     13  C   UNL     1       5.517   3.551  16.229  0.00  0.00    +0.000 A 
ATOM     14  C   UNL     1       5.391   3.991  17.532  0.00  0.00    +0.000 A 
ATOM     15  C   UNL     1       4.229   3.689  18.416  0.00  0.00    +0.000 C 
ATOM     16  O   UNL     1       3.483   2.744  18.260  0.00  0.00    +0.000 OA
BRANCH  10  17
ATOM     17  C   UNL     1       7.023   7.423  17.502  0.00  0.00    +0.000 C 
ATOM     18  F   UNL     1       8.212   7.518  18.158  0.00  0.00    +0.000 F 
ENDBRANCH  10  17
BRANCH  12  19
ATOM     19  C   UNL     1       6.245   4.018  13.871  0.00  0.00    +0.000 C 
ATOM     20  F   UNL     1       7.178   4.715  13.167  0.00  0.00    +0.000 F 
ENDBRANCH  12  19
ENDBRANCH   5   7
BRANCH   1  21
ATOM     21  C   UNL     1       1.351   8.521  20.694  0.00  0.00    +0.000 C 
ATOM     22  N   UNL     1       1.757   8.284  21.905  0.00  0.00    +0.000 NA
ATOM     23  H   UNL     1       1.153   8.734  22.602  0.00  0.00    +0.000 HD
BRANCH  21  24
ATOM     24  C   UNL     1       0.146   9.390  20.438  0.00  0.00    +0.000 C 
BRANCH  24  30
ATOM     25  C   UNL     1      -1.167  10.852  23.073  0.00  0.00    +0.000 C 
ATOM     26  N   UNL     1      -0.395  11.407  21.991  0.00  0.00    +0.000 N 
ATOM     27  C   UNL     1      -0.160  12.745  21.849  0.00  0.00    +0.000 A 
ATOM     28  N   UNL     1       0.622  12.949  20.820  0.00  0.00    +0.000 NA
ATOM     29  N   UNL     1       0.877  11.730  20.253  0.00  0.00    +0.000 NA
ATOM     30  C   UNL     1       0.232  10.796  20.931  0.00  0.00    +0.000 A 
ENDBRANCH  24  30
ENDBRANCH  21  24
ENDBRANCH   1  21
TORSDOF 6
ENDMDL
MODEL 3
REMARK VINA RESULT:      -8.1      4.478      6.512
REMARK  Name = 
REMARK  7 active torsions:
REMARK  status: ('A' for Active; 'I' for Inactive)
REMARK    1  A    between atoms: C_1  and  N_2
REMARK    2  A    between atoms: C_6  and  C_7
REMARK    3  A    between atoms: C_7  and  C_8
REMARK    4  A    between atoms: C_8  and  C_10
REMARK    5  A    between atoms: C_14  and  N_15
REMARK    6  A    between atoms: C_18  and  C_19
REMARK    7  A    between atoms: C_22  and  C_23
REMARK                            x       y       z     vdW  Elec       q    Type
REMARK                         _______ _______ _______ _____ _____    ______ ____
ROOT
ATOM      1  C   UNL     1       7.948   7.573  18.010  0.00  0.00    +0.000 A 
ATOM      2  C   UNL     1       8.000   6.680  19.083  0.00  0.00    +0.000 A 
ATOM      3  C   UNL     1       7.795   5.317  18.861  0.00  0.00    +0.000 A 
ATOM      4  C   UNL     1       7.432   4.861  17.593  0.00  0.00    +0.000 A 
ATOM      5  C   UNL     1       7.173   5.786  16.572  0.00  0.00    +0.000 A 
ATOM      6  C   UNL     1       7.589   7.108  16.740  0.00  0.00    +0.000 A 
ENDROOT
BRANCH   5   7
ATOM      7  N   UNL     1       6.087   5.547  15.622  0.00  0.00    +0.000 N 
ATOM      8  C   UNL     1       4.924   6.400  15.973  0.00  0.00    +0.000 C 
ATOM      9  C   UNL     1       4.191   5.509  16.933  0.00  0.00    +0.000 A 
ATOM     10  C   UNL     1       3.643   5.783  18.179  0.00  0.00    +0.000 A 
ATOM     11  C   UNL     1       3.300   4.680  18.985  0.00  0.00    +0.000 A 
ATOM     12  C   UNL     1       3.517   3.344  18.560  0.00  0.00    +0.000 A 
ATOM     13  C   UNL     1       4.089   3.098  17.308  0.00  0.00    +0.000 A 
ATOM     14  C   UNL     1       4.436   4.194  16.541  0.00  0.00    +0.000 A 
ATOM     15  C   UNL     1       5.576   4.224  15.581  0.00  0.00    +0.000 C 
ATOM     16  O   UNL     1       6.068   3.235  15.076  0.00  0.00    +0.000 OA
BRANCH  10  17
ATOM     17  C   UNL     1       3.640   7.165  18.773  0.00  0.00    +0.000 C 
ATOM     18  F   UNL     1       2.512   7.875  18.497  0.00  0.00    +0.000 F 
ENDBRANCH  10  17
BRANCH  12  19
ATOM     19  C   UNL     1       3.266   2.194  19.501  0.00  0.00    +0.000 C 
ATOM     20  F   UNL     1       1.948   1.874  19.624  0.00  0.00    +0.000 F 
ENDBRANCH  12  19
ENDBRANCH   5   7
BRANCH   1  21
ATOM     21  C   UNL     1       8.167   9.040  18.173  0.00  0.00    +0.000 C 
ATOM     22  N   UNL     1       7.530   9.869  17.401  0.00  0.00    +0.000 NA
ATOM     23  H   UNL     1       7.836  10.836  17.549  0.00  0.00    +0.000 HD
BRANCH  21  24
ATOM     24  C   UNL     1       9.193   9.536  19.159  0.00  0.00    +0.000 C 
BRANCH  24  30
ATOM     25  C   UNL     1       9.128  12.125  21.183  0.00  0.00    +0.000 C 
ATOM     26  N   UNL     1       9.542  12.032  19.807  0.00  0.00    +0.000 N 
ATOM     27  C   UNL     1       9.910  13.116  19.061  0.00  0.00    +0.000 A 
ATOM     28  N   UNL     1      10.300  12.725  17.876  0.00  0.00    +0.000 NA
ATOM     29  N   UNL     1      10.154  11.365  17.826  0.00  0.00    +0.000 NA
ATOM     30  C   UNL     1       9.657  10.942  18.976  0.00  0.00    +0.000 A 
ENDBRANCH  24  30
ENDBRANCH  21  24
ENDBRANCH   1  21
TORSDOF 6
ENDMDL
MODEL 4
REMARK VINA RESULT:      -8.1      0.814      1.346
REMARK  Name = 
REMARK  7 active torsions:
REMARK  status: ('A' for Active; 'I' for Inactive)
REMARK    1  A    between atoms: C_1  and  N_2
REMARK    2  A    between atoms: C_6  and  C_7
REMARK    3  A    between atoms: C_7  and  C_8
REMARK    4  A    between atoms: C_8  and  C_10
REMARK    5  A    between atoms: C_14  and  N_15
REMARK    6  A    between atoms: C_18  and  C_19
REMARK    7  A    between atoms: C_22  and  C_23
REMARK                            x       y       z     vdW  Elec       q    Type
REMARK                         _______ _______ _______ _____ _____    ______ ____
ROOT
ATOM      1  C   UNL     1       1.957   7.839  19.671  0.00  0.00    +0.000 A 
ATOM      2  C   UNL     1       2.367   8.539  18.534  0.00  0.00    +0.000 A 
ATOM      3  C   UNL     1       2.977   7.853  17.481  0.00  0.00    +0.000 A 
ATOM      4  C   UNL     1       3.275   6.496  17.609  0.00  0.00    +0.000 A 
ATOM      5  C   UNL     1       3.055   5.850  18.834  0.00  0.00    +0.000 A 
ATOM      6  C   UNL     1       2.253   6.477  19.791  0.00  0.00    +0.000 A 
ENDROOT
BRANCH   5   7
ATOM      7  N   UNL     1       4.001   4.846  19.316  0.00  0.00    +0.000 N 
ATOM      8  C   UNL     1       5.355   5.444  19.412  0.00  0.00    +0.000 C 
ATOM      9  C   UNL     1       5.885   5.185  18.032  0.00  0.00    +0.000 A 
ATOM     10  C   UNL     1       6.541   6.029  17.145  0.00  0.00    +0.000 A 
ATOM     11  C   UNL     1       6.634   5.602  15.805  0.00  0.00    +0.000 A 
ATOM     12  C   UNL     1       6.070   4.377  15.367  0.00  0.00    +0.000 A 
ATOM     13  C   UNL     1       5.397   3.557  16.280  0.00  0.00    +0.000 A 
ATOM     14  C   UNL     1       5.301   4.002  17.584  0.00  0.00    +0.000 A 
ATOM     15  C   UNL     1       4.161   3.698  18.496  0.00  0.00    +0.000 C 
ATOM     16  O   UNL     1       3.415   2.750  18.361  0.00  0.00    +0.000 OA
BRANCH  10  17
ATOM     17  C   UNL     1       6.918   7.440  17.501  0.00  0.00    +0.000 C 
ATOM     18  F   UNL     1       8.142   7.547  18.086  0.00  0.00    +0.000 F 
ENDBRANCH  10  17
BRANCH  12  19
ATOM     19  C   UNL     1       6.067   4.018  13.904  0.00  0.00    +0.000 C 
ATOM     20  F   UNL     1       4.825   4.028  13.347  0.00  0.00    +0.000 F 
ENDBRANCH  12  19
ENDBRANCH   5   7
BRANCH   1  21
ATOM     21  C   UNL     1       1.290   8.506  20.829  0.00  0.00    +0.000 C 
ATOM     22  N   UNL     1       1.902   8.556  21.974  0.00  0.00    +0.000 NA
ATOM     23  H   UNL     1       1.304   8.954  22.706  0.00  0.00    +0.000 HD
BRANCH  21  24
ATOM     24  C   UNL     1      -0.118   9.023  20.682  0.00  0.00    +0.000 C 
BRANCH  24  30
ATOM     25  C   UNL     1       0.940  12.125  20.923  0.00  0.00    +0.000 C 
ATOM     26  N   UNL     1       0.084  11.510  19.943  0.00  0.00    +0.000 N 
ATOM     27  C   UNL     1      -0.534  12.208  18.945  0.00  0.00    +0.000 A 
ATOM     28  N   UNL     1      -1.190  11.384  18.169  0.00  0.00    +0.000 NA
ATOM     29  N   UNL     1      -1.031  10.126  18.683  0.00  0.00    +0.000 NA
ATOM     30  C   UNL     1      -0.296  10.198  19.780  0.00  0.00    +0.000 A 
ENDBRANCH  24  30
ENDBRANCH  21  24
ENDBRANCH   1  21
TORSDOF 6
ENDMDL
MODEL 5
REMARK VINA RESULT:      -7.8      6.894      9.936
REMARK  Name = 
REMARK  7 active torsions:
REMARK  status: ('A' for Active; 'I' for Inactive)
REMARK    1  A    between atoms: C_1  and  N_2
REMARK    2  A    between atoms: C_6  and  C_7
REMARK    3  A    between atoms: C_7  and  C_8
REMARK    4  A    between atoms: C_8  and  C_10
REMARK    5  A    between atoms: C_14  and  N_15
REMARK    6  A    between atoms: C_18  and  C_19
REMARK    7  A    between atoms: C_22  and  C_23
REMARK                            x       y       z     vdW  Elec       q    Type
REMARK                         _______ _______ _______ _____ _____    ______ ____
ROOT
ATOM      1  C   UNL     1      -3.071  10.901  17.746  0.00  0.00    +0.000 A 
ATOM      2  C   UNL     1      -2.454  10.087  16.793  0.00  0.00    +0.000 A 
ATOM      3  C   UNL     1      -1.160   9.612  17.021  0.00  0.00    +0.000 A 
ATOM      4  C   UNL     1      -0.446  10.034  18.142  0.00  0.00    +0.000 A 
ATOM      5  C   UNL     1      -0.992  11.017  18.982  0.00  0.00    +0.000 A 
ATOM      6  C   UNL     1      -2.352  11.317  18.872  0.00  0.00    +0.000 A 
ENDROOT
BRANCH   5   7
ATOM      7  N   UNL     1      -0.132  12.042  19.569  0.00  0.00    +0.000 N 
ATOM      8  C   UNL     1       0.588  11.477  20.738  0.00  0.00    +0.000 C 
ATOM      9  C   UNL     1      -0.388  11.757  21.843  0.00  0.00    +0.000 A 
ATOM     10  C   UNL     1      -0.861  10.934  22.856  0.00  0.00    +0.000 A 
ATOM     11  C   UNL     1      -2.007  11.370  23.552  0.00  0.00    +0.000 A 
ATOM     12  C   UNL     1      -2.666  12.583  23.227  0.00  0.00    +0.000 A 
ATOM     13  C   UNL     1      -2.178  13.381  22.187  0.00  0.00    +0.000 A 
ATOM     14  C   UNL     1      -1.065  12.927  21.505  0.00  0.00    +0.000 A 
ATOM     15  C   UNL     1      -0.791  13.197  20.065  0.00  0.00    +0.000 C 
ATOM     16  O   UNL     1      -1.265  14.127  19.444  0.00  0.00    +0.000 OA
BRANCH  10  17
ATOM     17  C   UNL     1      -0.360   9.531  23.059  0.00  0.00    +0.000 C 
ATOM     18  F   UNL     1      -0.823   8.647  22.132  0.00  0.00    +0.000 F 
ENDBRANCH  10  17
BRANCH  12  19
ATOM     19  C   UNL     1      -3.964  12.949  23.898  0.00  0.00    +0.000 C 
ATOM     20  F   UNL     1      -4.266  12.155  24.961  0.00  0.00    +0.000 F 
ENDBRANCH  12  19
ENDBRANCH   5   7
BRANCH   1  21
ATOM     21  C   UNL     1      -4.454  11.436  17.573  0.00  0.00    +0.000 C 
ATOM     22  N   UNL     1      -4.995  11.433  16.392  0.00  0.00    +0.000 NA
ATOM     23  H   UNL     1      -5.903  11.910  16.391  0.00  0.00    +0.000 HD
BRANCH  21  24
ATOM     24  C   UNL     1      -5.163  12.061  18.748  0.00  0.00    +0.000 C 
BRANCH  24  30
ATOM     25  C   UNL     1      -7.017  12.591  21.409  0.00  0.00    +0.000 C 
ATOM     26  N   UNL     1      -6.940  11.441  20.545  0.00  0.00    +0.000 N 
ATOM     27  C   UNL     1      -7.615  10.279  20.784  0.00  0.00    +0.000 A 
ATOM     28  N   UNL     1      -7.410   9.438  19.803  0.00  0.00    +0.000 NA
ATOM     29  N   UNL     1      -6.558  10.043  18.920  0.00  0.00    +0.000 NA
ATOM     30  C   UNL     1      -6.235  11.239  19.381  0.00  0.00    +0.000 A 
ENDBRANCH  24  30
ENDBRANCH  21  24
ENDBRANCH   1  21
TORSDOF 6
ENDMDL
MODEL 6
REMARK VINA RESULT:      -7.8      4.602      6.380
REMARK  Name = 
REMARK  7 active torsions:
REMARK  status: ('A' for Active; 'I' for Inactive)
REMARK    1  A    between atoms: C_1  and  N_2
REMARK    2  A    between atoms: C_6  and  C_7
REMARK    3  A    between atoms: C_7  and  C_8
REMARK    4  A    between atoms: C_8  and  C_10
REMARK    5  A    between atoms: C_14  and  N_15
REMARK    6  A    between atoms: C_18  and  C_19
REMARK    7  A    between atoms: C_22  and  C_23
REMARK                            x       y       z     vdW  Elec       q    Type
REMARK                         _______ _______ _______ _____ _____    ______ ____
ROOT
ATOM      1  C   UNL     1       8.140   7.620  18.294  0.00  0.00    +0.000 A 
ATOM      2  C   UNL     1       8.104   6.623  19.273  0.00  0.00    +0.000 A 
ATOM      3  C   UNL     1       7.729   5.324  18.924  0.00  0.00    +0.000 A 
ATOM      4  C   UNL     1       7.287   5.045  17.631  0.00  0.00    +0.000 A 
ATOM      5  C   UNL     1       7.122   6.093  16.714  0.00  0.00    +0.000 A 
ATOM      6  C   UNL     1       7.700   7.333  16.997  0.00  0.00    +0.000 A 
ENDROOT
BRANCH   5   7
ATOM      7  N   UNL     1       5.996   6.084  15.781  0.00  0.00    +0.000 N 
ATOM      8  C   UNL     1       4.823   6.739  16.412  0.00  0.00    +0.000 C 
ATOM      9  C   UNL     1       4.176   5.574  17.102  0.00  0.00    +0.000 A 
ATOM     10  C   UNL     1       3.687   5.451  18.396  0.00  0.00    +0.000 A 
ATOM     11  C   UNL     1       3.428   4.146  18.860  0.00  0.00    +0.000 A 
ATOM     12  C   UNL     1       3.670   3.001  18.058  0.00  0.00    +0.000 A 
ATOM     13  C   UNL     1       4.182   3.156  16.765  0.00  0.00    +0.000 A 
ATOM     14  C   UNL     1       4.447   4.442  16.336  0.00  0.00    +0.000 A 
ATOM     15  C   UNL     1       5.532   4.804  15.380  0.00  0.00    +0.000 C 
ATOM     16  O   UNL     1       6.031   4.028  14.590  0.00  0.00    +0.000 OA
BRANCH  10  17
ATOM     17  C   UNL     1       3.666   6.601  19.365  0.00  0.00    +0.000 C 
ATOM     18  F   UNL     1       2.834   7.612  18.993  0.00  0.00    +0.000 F 
ENDBRANCH  10  17
BRANCH  12  19
ATOM     19  C   UNL     1       3.512   1.618  18.634  0.00  0.00    +0.000 C 
ATOM     20  F   UNL     1       2.291   1.403  19.196  0.00  0.00    +0.000 F 
ENDBRANCH  12  19
ENDBRANCH   5   7
BRANCH   1  21
ATOM     21  C   UNL     1       8.540   9.026  18.592  0.00  0.00    +0.000 C 
ATOM     22  N   UNL     1       9.000   9.321  19.771  0.00  0.00    +0.000 NA
ATOM     23  H   UNL     1       9.149  10.331  19.877  0.00  0.00    +0.000 HD
BRANCH  21  24
ATOM     24  C   UNL     1       8.315  10.101  17.559  0.00  0.00    +0.000 C 
BRANCH  24  30
ATOM     25  C   UNL     1       7.378  13.248  17.449  0.00  0.00    +0.000 C 
ATOM     26  N   UNL     1       8.690  12.675  17.611  0.00  0.00    +0.000 N 
ATOM     27  C   UNL     1       9.833  13.421  17.654  0.00  0.00    +0.000 A 
ATOM     28  N   UNL     1      10.860  12.643  17.876  0.00  0.00    +0.000 NA
ATOM     29  N   UNL     1      10.392  11.359  17.946  0.00  0.00    +0.000 NA
ATOM     30  C   UNL     1       9.085  11.365  17.746  0.00  0.00    +0.000 A 
ENDBRANCH  24  30
ENDBRANCH  21  24
ENDBRANCH   1  21
TORSDOF 6
ENDMDL
MODEL 7
REMARK VINA RESULT:      -7.7      4.445      6.491
REMARK  Name = 
REMARK  7 active torsions:
REMARK  status: ('A' for Active; 'I' for Inactive)
REMARK    1  A    between atoms: C_1  and  N_2
REMARK    2  A    between atoms: C_6  and  C_7
REMARK    3  A    between atoms: C_7  and  C_8
REMARK    4  A    between atoms: C_8  and  C_10
REMARK    5  A    between atoms: C_14  and  N_15
REMARK    6  A    between atoms: C_18  and  C_19
REMARK    7  A    between atoms: C_22  and  C_23
REMARK                            x       y       z     vdW  Elec       q    Type
REMARK                         _______ _______ _______ _____ _____    ______ ____
ROOT
ATOM      1  C   UNL     1       7.991   7.626  18.075  0.00  0.00    +0.000 A 
ATOM      2  C   UNL     1       8.022   6.703  19.123  0.00  0.00    +0.000 A 
ATOM      3  C   UNL     1       7.769   5.354  18.865  0.00  0.00    +0.000 A 
ATOM      4  C   UNL     1       7.379   4.946  17.590  0.00  0.00    +0.000 A 
ATOM      5  C   UNL     1       7.142   5.907  16.597  0.00  0.00    +0.000 A 
ATOM      6  C   UNL     1       7.604   7.210  16.796  0.00  0.00    +0.000 A 
ENDROOT
BRANCH   5   7
ATOM      7  N   UNL     1       6.040   5.732  15.651  0.00  0.00    +0.000 N 
ATOM      8  C   UNL     1       4.870   6.526  16.101  0.00  0.00    +0.000 C 
ATOM      9  C   UNL     1       4.174   5.540  16.992  0.00  0.00    +0.000 A 
ATOM     10  C   UNL     1       3.650   5.691  18.269  0.00  0.00    +0.000 A 
ATOM     11  C   UNL     1       3.344   4.514  18.980  0.00  0.00    +0.000 A 
ATOM     12  C   UNL     1       3.576   3.226  18.434  0.00  0.00    +0.000 A 
ATOM     13  C   UNL     1       4.125   3.104  17.153  0.00  0.00    +0.000 A 
ATOM     14  C   UNL     1       4.435   4.269  16.480  0.00  0.00    +0.000 A 
ATOM     15  C   UNL     1       5.553   4.407  15.503  0.00  0.00    +0.000 C 
ATOM     16  O   UNL     1       6.051   3.477  14.903  0.00  0.00    +0.000 OA
BRANCH  10  17
ATOM     17  C   UNL     1       3.634   7.015  18.983  0.00  0.00    +0.000 C 
ATOM     18  F   UNL     1       2.582   7.163  19.834  0.00  0.00    +0.000 F 
ENDBRANCH  10  17
BRANCH  12  19
ATOM     19  C   UNL     1       3.367   1.992  19.273  0.00  0.00    +0.000 C 
ATOM     20  F   UNL     1       2.065   1.784  19.613  0.00  0.00    +0.000 F 
ENDBRANCH  12  19
ENDBRANCH   5   7
BRANCH   1  21
ATOM     21  C   UNL     1       8.261   9.081  18.276  0.00  0.00    +0.000 C 
ATOM     22  N   UNL     1       7.620   9.953  17.557  0.00  0.00    +0.000 NA
ATOM     23  H   UNL     1       7.961  10.905  17.724  0.00  0.00    +0.000 HD
BRANCH  21  24
ATOM     24  C   UNL     1       9.340   9.513  19.235  0.00  0.00    +0.000 C 
BRANCH  24  30
ATOM     25  C   UNL     1      11.039  11.831  17.642  0.00  0.00    +0.000 C 
ATOM     26  N   UNL     1      10.248  11.920  18.842  0.00  0.00    +0.000 N 
ATOM     27  C   UNL     1      10.159  13.053  19.599  0.00  0.00    +0.000 A 
ATOM     28  N   UNL     1       9.320  12.862  20.584  0.00  0.00    +0.000 NA
ATOM     29  N   UNL     1       8.875  11.571  20.497  0.00  0.00    +0.000 NA
ATOM     30  C   UNL     1       9.463  10.981  19.470  0.00  0.00    +0.000 A 
ENDBRANCH  24  30
ENDBRANCH  21  24
ENDBRANCH   1  21
TORSDOF 6
ENDMDL
MODEL 8
REMARK VINA RESULT:      -7.7      3.838      7.716
REMARK  Name = 
REMARK  7 active torsions:
REMARK  status: ('A' for Active; 'I' for Inactive)
REMARK    1  A    between atoms: C_1  and  N_2
REMARK    2  A    between atoms: C_6  and  C_7
REMARK    3  A    between atoms: C_7  and  C_8
REMARK    4  A    between atoms: C_8  and  C_10
REMARK    5  A    between atoms: C_14  and  N_15
REMARK    6  A    between atoms: C_18  and  C_19
REMARK    7  A    between atoms: C_22  and  C_23
REMARK                            x       y       z     vdW  Elec       q    Type
REMARK                         _______ _______ _______ _____ _____    ______ ____
ROOT
ATOM      1  C   UNL     1       2.289   4.122  18.678  0.00  0.00    +0.000 A 
ATOM      2  C   UNL     1       1.921   3.673  19.948  0.00  0.00    +0.000 A 
ATOM      3  C   UNL     1       1.383   4.572  20.872  0.00  0.00    +0.000 A 
ATOM      4  C   UNL     1       1.315   5.932  20.568  0.00  0.00    +0.000 A 
ATOM      5  C   UNL     1       1.884   6.405  19.376  0.00  0.00    +0.000 A 
ATOM      6  C   UNL     1       2.214   5.486  18.377  0.00  0.00    +0.000 A 
ENDROOT
BRANCH   5   7
ATOM      7  N   UNL     1       2.581   7.689  19.353  0.00  0.00    +0.000 N 
ATOM      8  C   UNL     1       2.240   8.462  20.573  0.00  0.00    +0.000 C 
ATOM      9  C   UNL     1       1.012   9.195  20.118  0.00  0.00    +0.000 A 
ATOM     10  C   UNL     1      -0.219   9.365  20.739  0.00  0.00    +0.000 A 
ATOM     11  C   UNL     1      -1.282   9.827  19.937  0.00  0.00    +0.000 A 
ATOM     12  C   UNL     1      -1.118  10.092  18.554  0.00  0.00    +0.000 A 
ATOM     13  C   UNL     1       0.129   9.892  17.951  0.00  0.00    +0.000 A 
ATOM     14  C   UNL     1       1.153   9.421  18.750  0.00  0.00    +0.000 A 
ATOM     15  C   UNL     1       2.263   8.550  18.270  0.00  0.00    +0.000 C 
ATOM     16  O   UNL     1       2.619   8.477  17.111  0.00  0.00    +0.000 OA
BRANCH  10  17
ATOM     17  C   UNL     1      -0.503   8.852  22.123  0.00  0.00    +0.000 C 
ATOM     18  F   UNL     1       0.267   9.427  23.088  0.00  0.00    +0.000 F 
ENDBRANCH  10  17
BRANCH  12  19
ATOM     19  C   UNL     1      -2.307  10.451  17.700  0.00  0.00    +0.000 C 
ATOM     20  F   UNL     1      -3.159   9.410  17.495  0.00  0.00    +0.000 F 
ENDBRANCH  12  19
ENDBRANCH   5   7
BRANCH   1  21
ATOM     21  C   UNL     1       2.860   3.216  17.638  0.00  0.00    +0.000 C 
ATOM     22  N   UNL     1       2.254   2.099  17.364  0.00  0.00    +0.000 NA
ATOM     23  H   UNL     1       2.794   1.528  16.705  0.00  0.00    +0.000 HD
BRANCH  21  24
ATOM     24  C   UNL     1       4.178   3.559  16.993  0.00  0.00    +0.000 C 
BRANCH  24  30
ATOM     25  C   UNL     1       5.434   6.558  16.518  0.00  0.00    +0.000 C 
ATOM     26  N   UNL     1       5.700   5.594  17.554  0.00  0.00    +0.000 N 
ATOM     27  C   UNL     1       6.658   5.768  18.511  0.00  0.00    +0.000 A 
ATOM     28  N   UNL     1       6.628   4.768  19.354  0.00  0.00    +0.000 NA
ATOM     29  N   UNL     1       5.659   3.903  18.926  0.00  0.00    +0.000 NA
ATOM     30  C   UNL     1       5.120   4.374  17.814  0.00  0.00    +0.000 A 
ENDBRANCH  24  30
ENDBRANCH  21  24
ENDBRANCH   1  21
TORSDOF 6
ENDMDL
MODEL 9
REMARK VINA RESULT:      -7.7      6.667      9.449
REMARK  Name = 
REMARK  7 active torsions:
REMARK  status: ('A' for Active; 'I' for Inactive)
REMARK    1  A    between atoms: C_1  and  N_2
REMARK    2  A    between atoms: C_6  and  C_7
REMARK    3  A    between atoms: C_7  and  C_8
REMARK    4  A    between atoms: C_8  and  C_10
REMARK    5  A    between atoms: C_14  and  N_15
REMARK    6  A    between atoms: C_18  and  C_19
REMARK    7  A    between atoms: C_22  and  C_23
REMARK                            x       y       z     vdW  Elec       q    Type
REMARK                         _______ _______ _______ _____ _____    ______ ____
ROOT
ATOM      1  C   UNL     1      -3.628  11.371  18.267  0.00  0.00    +0.000 A 
ATOM      2  C   UNL     1      -3.756  10.748  17.023  0.00  0.00    +0.000 A 
ATOM      3  C   UNL     1      -2.718   9.947  16.540  0.00  0.00    +0.000 A 
ATOM      4  C   UNL     1      -1.517   9.857  17.244  0.00  0.00    +0.000 A 
ATOM      5  C   UNL     1      -1.319  10.653  18.380  0.00  0.00    +0.000 A 
ATOM      6  C   UNL     1      -2.423  11.272  18.971  0.00  0.00    +0.000 A 
ENDROOT
BRANCH   5   7
ATOM      7  N   UNL     1      -0.008  11.244  18.644  0.00  0.00    +0.000 N 
ATOM      8  C   UNL     1       0.697  10.447  19.679  0.00  0.00    +0.000 C 
ATOM      9  C   UNL     1       0.218  11.113  20.935  0.00  0.00    +0.000 A 
ATOM     10  C   UNL     1      -0.274  10.567  22.114  0.00  0.00    +0.000 A 
ATOM     11  C   UNL     1      -0.943  11.440  22.994  0.00  0.00    +0.000 A 
ATOM     12  C   UNL     1      -1.130  12.813  22.691  0.00  0.00    +0.000 A 
ATOM     13  C   UNL     1      -0.642  13.331  21.487  0.00  0.00    +0.000 A 
ATOM     14  C   UNL     1      -0.006  12.455  20.629  0.00  0.00    +0.000 A 
ATOM     15  C   UNL     1      -0.014  12.573  19.143  0.00  0.00    +0.000 C 
ATOM     16  O   UNL     1      -0.222  13.609  18.544  0.00  0.00    +0.000 OA
BRANCH  10  17
ATOM     17  C   UNL     1      -0.332   9.084  22.354  0.00  0.00    +0.000 C 
ATOM     18  F   UNL     1      -0.898   8.387  21.331  0.00  0.00    +0.000 F 
ENDBRANCH  10  17
BRANCH  12  19
ATOM     19  C   UNL     1      -1.969  13.685  23.589  0.00  0.00    +0.000 C 
ATOM     20  F   UNL     1      -2.557  14.725  22.936  0.00  0.00    +0.000 F 
ENDBRANCH  12  19
ENDBRANCH   5   7
BRANCH   1  21
ATOM     21  C   UNL     1      -4.700  12.232  18.848  0.00  0.00    +0.000 C 
ATOM     22  N   UNL     1      -5.638  12.691  18.076  0.00  0.00    +0.000 NA
ATOM     23  H   UNL     1      -6.255  13.340  18.575  0.00  0.00    +0.000 HD
BRANCH  21  24
ATOM     24  C   UNL     1      -4.625  12.638  20.299  0.00  0.00    +0.000 C 
BRANCH  24  30
ATOM     25  C   UNL     1      -5.894  14.323  22.818  0.00  0.00    +0.000 C 
ATOM     26  N   UNL     1      -6.327  13.090  22.214  0.00  0.00    +0.000 N 
ATOM     27  C   UNL     1      -7.358  12.339  22.701  0.00  0.00    +0.000 A 
ATOM     28  N   UNL     1      -7.570  11.315  21.915  0.00  0.00    +0.000 NA
ATOM     29  N   UNL     1      -6.642  11.372  20.912  0.00  0.00    +0.000 NA
ATOM     30  C   UNL     1      -5.859  12.420  21.107  0.00  0.00    +0.000 A 
ENDBRANCH  24  30
ENDBRANCH  21  24
ENDBRANCH   1  21
TORSDOF 6
ENDMDL
