MODEL 1
REMARK VINA RESULT:     -10.2      0.000      0.000
REMARK  Name = 
REMARK  2 active torsions:
REMARK  status: ('A' for Active; 'I' for Inactive)
REMARK    1  A    between atoms: C_8  and  N_9
REMARK    2  A    between atoms: C_10  and  C_12
REMARK                            x       y       z     vdW  Elec       q    Type
REMARK                         _______ _______ _______ _____ _____    ______ ____
ROOT
ATOM      1  N   UNL     1       2.671   7.135  19.079  0.00  0.00    +0.000 N 
ATOM      2  C   UNL     1       3.132   7.059  17.772  0.00  0.00    +0.000 C 
ATOM      3  O   UNL     1       2.907   7.880  16.884  0.00  0.00    +0.000 OA
ATOM      4  H   UNL     1       3.069   6.474  19.738  0.00  0.00    +0.000 HD
ENDROOT
BRANCH   2   5
ATOM      5  C   UNL     1       4.018   5.833  17.475  0.00  0.00    +0.000 C 
ATOM      6  C   UNL     1       3.430   4.572  18.065  0.00  0.00    +0.000 A 
ATOM      7  C   UNL     1       2.099   4.203  17.803  0.00  0.00    +0.000 A 
ATOM      8  C   UNL     1       1.558   3.047  18.367  0.00  0.00    +0.000 A 
ATOM      9  C   UNL     1       2.343   2.237  19.183  0.00  0.00    +0.000 A 
ATOM     10  C   UNL     1       3.672   2.580  19.426  0.00  0.00    +0.000 A 
ATOM     11  C   UNL     1       4.213   3.742  18.869  0.00  0.00    +0.000 A 
ATOM     12  O   UNL     1       5.528   3.988  19.169  0.00  0.00    +0.000 OA
ATOM     13  C   UNL     1       6.117   5.127  18.683  0.00  0.00    +0.000 A 
ATOM     14  C   UNL     1       7.454   5.315  19.040  0.00  0.00    +0.000 A 
ATOM     15  C   UNL     1       8.142   6.447  18.610  0.00  0.00    +0.000 A 
ATOM     16  C   UNL     1       7.497   7.390  17.818  0.00  0.00    +0.000 A 
ATOM     17  C   UNL     1       6.163   7.200  17.448  0.00  0.00    +0.000 A 
ATOM     18  C   UNL     1       5.457   6.065  17.887  0.00  0.00    +0.000 A 
ENDBRANCH   2   5
BRANCH   1  26
ATOM     19  O   UNL     1      -0.904  13.168  18.052  0.00  0.00    +0.000 OA
ATOM     20  C   UNL     1      -0.634  12.208  18.770  0.00  0.00    +0.000 C 
ATOM     21  C   UNL     1      -1.419  11.857  20.032  0.00  0.00    +0.000 C 
ATOM     22  O   UNL     1      -0.789  11.061  21.025  0.00  0.00    +0.000 OA
ATOM     23  C   UNL     1       0.071  10.128  20.515  0.00  0.00    +0.000 A 
ATOM     24  C   UNL     1       0.400   9.063  21.342  0.00  0.00    +0.000 A 
ATOM     25  C   UNL     1       1.267   8.067  20.887  0.00  0.00    +0.000 A 
ATOM     26  C   UNL     1       1.832   8.139  19.609  0.00  0.00    +0.000 A 
ATOM     27  C   UNL     1       1.555   9.254  18.807  0.00  0.00    +0.000 A 
ATOM     28  C   UNL     1       0.657  10.229  19.251  0.00  0.00    +0.000 A 
ATOM     29  N   UNL     1       0.347  11.315  18.430  0.00  0.00    +0.000 N 
ATOM     30  H   UNL     1       0.821  11.468  17.551  0.00  0.00    +0.000 HD
ENDBRANCH   1  26
TORSDOF 2
ENDMDL
MODEL 2
REMARK VINA RESULT:     -10.0      1.562      1.805
REMARK  Name = 
REMARK  2 active torsions:
REMARK  status: ('A' for Active; 'I' for Inactive)
REMARK    1  A    between atoms: C_8  and  N_9
REMARK    2  A    between atoms: C_10  and  C_12
REMARK                            x       y       z     vdW  Elec       q    Type
REMARK                         _______ _______ _______ _____ _____    ______ ____
ROOT
ATOM      1  N   UNL     1       2.197   8.066  17.534  0.00  0.00    +0.000 N 
ATOM      2  C   UNL     1       2.649   7.084  18.405  0.00  0.00    +0.000 C 
ATOM      3  O   UNL     1       2.510   7.091  19.627  0.00  0.00    +0.000 OA
ATOM      4  H   UNL     1       2.240   7.847  16.545  0.00  0.00    +0.000 HD
ENDROOT
BRANCH   2   5
ATOM      5  C   UNL     1       3.352   5.895  17.722  0.00  0.00    +0.000 C 
ATOM      6  C   UNL     1       2.831   4.574  18.241  0.00  0.00    +0.000 A 
ATOM      7  C   UNL     1       1.454   4.296  18.257  0.00  0.00    +0.000 A 
ATOM      8  C   UNL     1       0.980   3.081  18.755  0.00  0.00    +0.000 A 
ATOM      9  C   UNL     1       1.876   2.125  19.225  0.00  0.00    +0.000 A 
ATOM     10  C   UNL     1       3.245   2.381  19.188  0.00  0.00    +0.000 A 
ATOM     11  C   UNL     1       3.720   3.599  18.697  0.00  0.00    +0.000 A 
ATOM     12  O   UNL     1       5.083   3.751  18.702  0.00  0.00    +0.000 OA
ATOM     13  C   UNL     1       5.621   4.935  18.265  0.00  0.00    +0.000 A 
ATOM     14  C   UNL     1       7.014   5.019  18.311  0.00  0.00    +0.000 A 
ATOM     15  C   UNL     1       7.660   6.183  17.901  0.00  0.00    +0.000 A 
ATOM     16  C   UNL     1       6.915   7.263  17.440  0.00  0.00    +0.000 A 
ATOM     17  C   UNL     1       5.521   7.178  17.380  0.00  0.00    +0.000 A 
ATOM     18  C   UNL     1       4.860   6.010  17.802  0.00  0.00    +0.000 A 
ENDBRANCH   2   5
BRANCH   1  26
ATOM     19  O   UNL     1      -3.904  11.502  18.632  0.00  0.00    +0.000 OA
ATOM     20  C   UNL     1      -2.677  11.479  18.696  0.00  0.00    +0.000 C 
ATOM     21  C   UNL     1      -1.857  12.510  19.469  0.00  0.00    +0.000 C 
ATOM     22  O   UNL     1      -0.493  12.694  19.120  0.00  0.00    +0.000 OA
ATOM     23  C   UNL     1       0.127  11.546  18.712  0.00  0.00    +0.000 A 
ATOM     24  C   UNL     1       1.515  11.537  18.754  0.00  0.00    +0.000 A 
ATOM     25  C   UNL     1       2.218  10.395  18.359  0.00  0.00    +0.000 A 
ATOM     26  C   UNL     1       1.541   9.262  17.896  0.00  0.00    +0.000 A 
ATOM     27  C   UNL     1       0.144   9.304  17.785  0.00  0.00    +0.000 A 
ATOM     28  C   UNL     1      -0.557  10.434  18.217  0.00  0.00    +0.000 A 
ATOM     29  N   UNL     1      -1.951  10.454  18.149  0.00  0.00    +0.000 N 
ATOM     30  H   UNL     1      -2.473   9.706  17.713  0.00  0.00    +0.000 HD
ENDBRANCH   1  26
TORSDOF 2
ENDMDL
MODEL 3
REMARK VINA RESULT:     -10.0      1.572      1.917
REMARK  Name = 
REMARK  2 active torsions:
REMARK  status: ('A' for Active; 'I' for Inactive)
REMARK    1  A    between atoms: C_8  and  N_9
REMARK    2  A    between atoms: C_10  and  C_12
REMARK                            x       y       z     vdW  Elec       q    Type
REMARK                         _______ _______ _______ _____ _____    ______ ____
ROOT
ATOM      1  N   UNL     1       2.171   8.077  17.568  0.00  0.00    +0.000 N 
ATOM      2  C   UNL     1       2.666   7.085  18.403  0.00  0.00    +0.000 C 
ATOM      3  O   UNL     1       2.555   7.060  19.628  0.00  0.00    +0.000 OA
ATOM      4  H   UNL     1       2.196   7.883  16.572  0.00  0.00    +0.000 HD
ENDROOT
BRANCH   2   5
ATOM      5  C   UNL     1       3.381   5.931  17.675  0.00  0.00    +0.000 C 
ATOM      6  C   UNL     1       2.871   4.585  18.139  0.00  0.00    +0.000 A 
ATOM      7  C   UNL     1       1.497   4.295  18.140  0.00  0.00    +0.000 A 
ATOM      8  C   UNL     1       1.032   3.057  18.588  0.00  0.00    +0.000 A 
ATOM      9  C   UNL     1       1.935   2.090  19.022  0.00  0.00    +0.000 A 
ATOM     10  C   UNL     1       3.303   2.360  18.999  0.00  0.00    +0.000 A 
ATOM     11  C   UNL     1       3.768   3.601  18.559  0.00  0.00    +0.000 A 
ATOM     12  O   UNL     1       5.129   3.765  18.575  0.00  0.00    +0.000 OA
ATOM     13  C   UNL     1       5.657   4.970  18.187  0.00  0.00    +0.000 A 
ATOM     14  C   UNL     1       7.049   5.064  18.240  0.00  0.00    +0.000 A 
ATOM     15  C   UNL     1       7.686   6.250  17.880  0.00  0.00    +0.000 A 
ATOM     16  C   UNL     1       6.933   7.341  17.460  0.00  0.00    +0.000 A 
ATOM     17  C   UNL     1       5.540   7.246  17.393  0.00  0.00    +0.000 A 
ATOM     18  C   UNL     1       4.888   6.056  17.765  0.00  0.00    +0.000 A 
ENDBRANCH   2   5
BRANCH   1  26
ATOM     19  O   UNL     1       2.458  15.007  19.023  0.00  0.00    +0.000 OA
ATOM     20  C   UNL     1       1.792  13.989  18.858  0.00  0.00    +0.000 C 
ATOM     21  C   UNL     1       0.271  13.994  18.712  0.00  0.00    +0.000 C 
ATOM     22  O   UNL     1      -0.444  12.799  18.993  0.00  0.00    +0.000 OA
ATOM     23  C   UNL     1       0.237  11.662  18.655  0.00  0.00    +0.000 A 
ATOM     24  C   UNL     1      -0.517  10.506  18.504  0.00  0.00    +0.000 A 
ATOM     25  C   UNL     1       0.108   9.307  18.152  0.00  0.00    +0.000 A 
ATOM     26  C   UNL     1       1.494   9.247  17.973  0.00  0.00    +0.000 A 
ATOM     27  C   UNL     1       2.258  10.401  18.201  0.00  0.00    +0.000 A 
ATOM     28  C   UNL     1       1.625  11.607  18.515  0.00  0.00    +0.000 A 
ATOM     29  N   UNL     1       2.384  12.764  18.695  0.00  0.00    +0.000 N 
ATOM     30  H   UNL     1       3.395  12.742  18.691  0.00  0.00    +0.000 HD
ENDBRANCH   1  26
TORSDOF 2
ENDMDL
MODEL 4
REMARK VINA RESULT:     -10.0      1.507      2.134
REMARK  Name = 
REMARK  2 active torsions:
REMARK  status: ('A' for Active; 'I' for Inactive)
REMARK    1  A    between atoms: C_8  and  N_9
REMARK    2  A    between atoms: C_10  and  C_12
REMARK                            x       y       z     vdW  Elec       q    Type
REMARK                         _______ _______ _______ _____ _____    ______ ____
ROOT
ATOM      1  N   UNL     1       2.245   7.984  17.983  0.00  0.00    +0.000 N 
ATOM      2  C   UNL     1       2.718   6.875  18.670  0.00  0.00    +0.000 C 
ATOM      3  O   UNL     1       2.682   6.720  19.890  0.00  0.00    +0.000 OA
ATOM      4  H   UNL     1       2.194   7.902  16.973  0.00  0.00    +0.000 HD
ENDROOT
BRANCH   2   5
ATOM      5  C   UNL     1       3.299   5.764  17.774  0.00  0.00    +0.000 C 
ATOM      6  C   UNL     1       2.766   4.405  18.164  0.00  0.00    +0.000 A 
ATOM      7  C   UNL     1       1.384   4.175  18.275  0.00  0.00    +0.000 A 
ATOM      8  C   UNL     1       0.901   2.921  18.654  0.00  0.00    +0.000 A 
ATOM      9  C   UNL     1       1.789   1.880  18.908  0.00  0.00    +0.000 A 
ATOM     10  C   UNL     1       3.161   2.092  18.773  0.00  0.00    +0.000 A 
ATOM     11  C   UNL     1       3.646   3.348  18.402  0.00  0.00    +0.000 A 
ATOM     12  O   UNL     1       5.010   3.450  18.297  0.00  0.00    +0.000 OA
ATOM     13  C   UNL     1       5.560   4.662  17.968  0.00  0.00    +0.000 A 
ATOM     14  C   UNL     1       6.954   4.691  17.891  0.00  0.00    +0.000 A 
ATOM     15  C   UNL     1       7.615   5.876  17.577  0.00  0.00    +0.000 A 
ATOM     16  C   UNL     1       6.883   7.033  17.334  0.00  0.00    +0.000 A 
ATOM     17  C   UNL     1       5.487   7.006  17.397  0.00  0.00    +0.000 A 
ATOM     18  C   UNL     1       4.812   5.816  17.724  0.00  0.00    +0.000 A 
ENDBRANCH   2   5
BRANCH   1  26
ATOM     19  O   UNL     1      -1.447  10.903  23.282  0.00  0.00    +0.000 OA
ATOM     20  C   UNL     1      -0.771  11.038  22.265  0.00  0.00    +0.000 C 
ATOM     21  C   UNL     1      -0.210  12.381  21.801  0.00  0.00    +0.000 C 
ATOM     22  O   UNL     1       0.137  12.537  20.433  0.00  0.00    +0.000 OA
ATOM     23  C   UNL     1       0.625  11.396  19.858  0.00  0.00    +0.000 A 
ATOM     24  C   UNL     1       1.360  11.550  18.690  0.00  0.00    +0.000 A 
ATOM     25  C   UNL     1       1.897  10.430  18.050  0.00  0.00    +0.000 A 
ATOM     26  C   UNL     1       1.683   9.144  18.559  0.00  0.00    +0.000 A 
ATOM     27  C   UNL     1       0.879   8.989  19.696  0.00  0.00    +0.000 A 
ATOM     28  C   UNL     1       0.376  10.114  20.355  0.00  0.00    +0.000 A 
ATOM     29  N   UNL     1      -0.386   9.959  21.514  0.00  0.00    +0.000 N 
ATOM     30  H   UNL     1      -0.663   9.046  21.849  0.00  0.00    +0.000 HD
ENDBRANCH   1  26
TORSDOF 2
ENDMDL
MODEL 5
REMARK VINA RESULT:     -10.0      1.209      1.927
REMARK  Name = 
REMARK  2 active torsions:
REMARK  status: ('A' for Active; 'I' for Inactive)
REMARK    1  A    between atoms: C_8  and  N_9
REMARK    2  A    between atoms: C_10  and  C_12
REMARK                            x       y       z     vdW  Elec       q    Type
REMARK                         _______ _______ _______ _____ _____    ______ ____
ROOT
ATOM      1  N   UNL     1       2.878   7.149  18.567  0.00  0.00    +0.000 N 
ATOM      2  C   UNL     1       3.530   7.011  17.349  0.00  0.00    +0.000 C 
ATOM      3  O   UNL     1       3.402   7.757  16.380  0.00  0.00    +0.000 OA
ATOM      4  H   UNL     1       3.203   6.557  19.323  0.00  0.00    +0.000 HD
ENDROOT
BRANCH   2   5
ATOM      5  C   UNL     1       4.504   5.818  17.275  0.00  0.00    +0.000 C 
ATOM      6  C   UNL     1       3.899   4.574  17.884  0.00  0.00    +0.000 A 
ATOM      7  C   UNL     1       2.635   4.112  17.479  0.00  0.00    +0.000 A 
ATOM      8  C   UNL     1       2.076   2.972  18.060  0.00  0.00    +0.000 A 
ATOM      9  C   UNL     1       2.778   2.273  19.037  0.00  0.00    +0.000 A 
ATOM     10  C   UNL     1       4.044   2.709  19.426  0.00  0.00    +0.000 A 
ATOM     11  C   UNL     1       4.602   3.853  18.851  0.00  0.00    +0.000 A 
ATOM     12  O   UNL     1       5.850   4.196  19.302  0.00  0.00    +0.000 OA
ATOM     13  C   UNL     1       6.447   5.327  18.806  0.00  0.00    +0.000 A 
ATOM     14  C   UNL     1       7.713   5.617  19.321  0.00  0.00    +0.000 A 
ATOM     15  C   UNL     1       8.400   6.751  18.894  0.00  0.00    +0.000 A 
ATOM     16  C   UNL     1       7.827   7.593  17.948  0.00  0.00    +0.000 A 
ATOM     17  C   UNL     1       6.567   7.299  17.421  0.00  0.00    +0.000 A 
ATOM     18  C   UNL     1       5.860   6.162  17.854  0.00  0.00    +0.000 A 
ENDBRANCH   2   5
BRANCH   1  26
ATOM     19  O   UNL     1      -0.764  10.586  23.582  0.00  0.00    +0.000 OA
ATOM     20  C   UNL     1      -0.439  10.472  22.403  0.00  0.00    +0.000 C 
ATOM     21  C   UNL     1      -0.716  11.541  21.348  0.00  0.00    +0.000 C 
ATOM     22  O   UNL     1      -0.744  11.156  19.981  0.00  0.00    +0.000 OA
ATOM     23  C   UNL     1       0.136  10.155  19.676  0.00  0.00    +0.000 A 
ATOM     24  C   UNL     1       0.474  10.007  18.337  0.00  0.00    +0.000 A 
ATOM     25  C   UNL     1       1.374   9.011  17.950  0.00  0.00    +0.000 A 
ATOM     26  C   UNL     1       1.925   8.138  18.894  0.00  0.00    +0.000 A 
ATOM     27  C   UNL     1       1.524   8.245  20.233  0.00  0.00    +0.000 A 
ATOM     28  C   UNL     1       0.653   9.267  20.622  0.00  0.00    +0.000 A 
ATOM     29  N   UNL     1       0.291   9.399  21.964  0.00  0.00    +0.000 N 
ATOM     30  H   UNL     1       0.572   8.721  22.658  0.00  0.00    +0.000 HD
ENDBRANCH   1  26
TORSDOF 2
ENDMDL
MODEL 6
REMARK VINA RESULT:      -9.8      1.482      3.689
REMARK  Name = 
REMARK  2 active torsions:
REMARK  status: ('A' for Active; 'I' for Inactive)
REMARK    1  A    between atoms: C_8  and  N_9
REMARK    2  A    between atoms: C_10  and  C_12
REMARK                            x       y       z     vdW  Elec       q    Type
REMARK                         _______ _______ _______ _____ _____    ______ ____
ROOT
ATOM      1  N   UNL     1       2.169   7.420  20.181  0.00  0.00    +0.000 N 
ATOM      2  C   UNL     1       2.454   6.888  18.930  0.00  0.00    +0.000 C 
ATOM      3  O   UNL     1       2.076   7.348  17.854  0.00  0.00    +0.000 OA
ATOM      4  H   UNL     1       2.681   7.029  20.965  0.00  0.00    +0.000 HD
ENDROOT
BRANCH   2   5
ATOM      5  C   UNL     1       3.347   5.632  18.955  0.00  0.00    +0.000 C 
ATOM      6  C   UNL     1       4.271   5.589  17.760  0.00  0.00    +0.000 A 
ATOM      7  C   UNL     1       5.093   6.683  17.441  0.00  0.00    +0.000 A 
ATOM      8  C   UNL     1       5.930   6.643  16.325  0.00  0.00    +0.000 A 
ATOM      9  C   UNL     1       5.969   5.503  15.526  0.00  0.00    +0.000 A 
ATOM     10  C   UNL     1       5.177   4.403  15.850  0.00  0.00    +0.000 A 
ATOM     11  C   UNL     1       4.334   4.445  16.962  0.00  0.00    +0.000 A 
ATOM     12  O   UNL     1       3.599   3.311  17.194  0.00  0.00    +0.000 OA
ATOM     13  C   UNL     1       2.724   3.292  18.250  0.00  0.00    +0.000 A 
ATOM     14  C   UNL     1       2.004   2.107  18.416  0.00  0.00    +0.000 A 
ATOM     15  C   UNL     1       1.078   1.988  19.450  0.00  0.00    +0.000 A 
ATOM     16  C   UNL     1       0.876   3.050  20.324  0.00  0.00    +0.000 A 
ATOM     17  C   UNL     1       1.605   4.232  20.170  0.00  0.00    +0.000 A 
ATOM     18  C   UNL     1       2.533   4.366  19.122  0.00  0.00    +0.000 A 
ENDBRANCH   2   5
BRANCH   1  26
ATOM     19  O   UNL     1      -0.567  13.538  17.877  0.00  0.00    +0.000 OA
ATOM     20  C   UNL     1      -0.513  12.661  18.735  0.00  0.00    +0.000 C 
ATOM     21  C   UNL     1      -1.518  12.543  19.879  0.00  0.00    +0.000 C 
ATOM     22  O   UNL     1      -1.136  11.834  21.050  0.00  0.00    +0.000 OA
ATOM     23  C   UNL     1      -0.306  10.776  20.802  0.00  0.00    +0.000 A 
ATOM     24  C   UNL     1      -0.222   9.805  21.791  0.00  0.00    +0.000 A 
ATOM     25  C   UNL     1       0.600   8.690  21.606  0.00  0.00    +0.000 A 
ATOM     26  C   UNL     1       1.363   8.549  20.442  0.00  0.00    +0.000 A 
ATOM     27  C   UNL     1       1.331   9.568  19.481  0.00  0.00    +0.000 A 
ATOM     28  C   UNL     1       0.478  10.663  19.653  0.00  0.00    +0.000 A 
ATOM     29  N   UNL     1       0.414  11.654  18.672  0.00  0.00    +0.000 N 
ATOM     30  H   UNL     1       1.033  11.651  17.873  0.00  0.00    +0.000 HD
ENDBRANCH   1  26
TORSDOF 2
ENDMDL
MODEL 7
REMARK VINA RESULT:      -9.8      1.281      1.316
REMARK  Name = 
REMARK  2 active torsions:
REMARK  status: ('A' for Active; 'I' for Inactive)
REMARK    1  A    between atoms: C_8  and  N_9
REMARK    2  A    between atoms: C_10  and  C_12
REMARK                            x       y       z     vdW  Elec       q    Type
REMARK                         _______ _______ _______ _____ _____    ______ ____
ROOT
ATOM      1  N   UNL     1       2.037   7.817  18.324  0.00  0.00    +0.000 N 
ATOM      2  C   UNL     1       2.681   6.711  18.862  0.00  0.00    +0.000 C 
ATOM      3  O   UNL     1       2.847   6.493  20.061  0.00  0.00    +0.000 OA
ATOM      4  H   UNL     1       1.834   7.782  17.330  0.00  0.00    +0.000 HD
ENDROOT
BRANCH   2   5
ATOM      5  C   UNL     1       3.185   5.692  17.821  0.00  0.00    +0.000 C 
ATOM      6  C   UNL     1       2.701   4.296  18.137  0.00  0.00    +0.000 A 
ATOM      7  C   UNL     1       1.338   4.035  18.355  0.00  0.00    +0.000 A 
ATOM      8  C   UNL     1       0.901   2.746  18.665  0.00  0.00    +0.000 A 
ATOM      9  C   UNL     1       1.817   1.701  18.743  0.00  0.00    +0.000 A 
ATOM     10  C   UNL     1       3.168   1.945  18.502  0.00  0.00    +0.000 A 
ATOM     11  C   UNL     1       3.607   3.236  18.199  0.00  0.00    +0.000 A 
ATOM     12  O   UNL     1       4.954   3.368  17.978  0.00  0.00    +0.000 OA
ATOM     13  C   UNL     1       5.463   4.613  17.708  0.00  0.00    +0.000 A 
ATOM     14  C   UNL     1       6.843   4.671  17.505  0.00  0.00    +0.000 A 
ATOM     15  C   UNL     1       7.462   5.889  17.237  0.00  0.00    +0.000 A 
ATOM     16  C   UNL     1       6.702   7.051  17.166  0.00  0.00    +0.000 A 
ATOM     17  C   UNL     1       5.319   6.996  17.355  0.00  0.00    +0.000 A 
ATOM     18  C   UNL     1       4.686   5.772  17.637  0.00  0.00    +0.000 A 
ENDBRANCH   2   5
BRANCH   1  26
ATOM     19  O   UNL     1      -0.197  14.543  18.331  0.00  0.00    +0.000 OA
ATOM     20  C   UNL     1      -0.075  13.469  18.914  0.00  0.00    +0.000 C 
ATOM     21  C   UNL     1      -0.785  13.141  20.227  0.00  0.00    +0.000 C 
ATOM     22  O   UNL     1      -0.249  12.117  21.053  0.00  0.00    +0.000 OA
ATOM     23  C   UNL     1       0.325  11.093  20.352  0.00  0.00    +0.000 A 
ATOM     24  C   UNL     1       0.492   9.892  21.027  0.00  0.00    +0.000 A 
ATOM     25  C   UNL     1       1.066   8.798  20.373  0.00  0.00    +0.000 A 
ATOM     26  C   UNL     1       1.500   8.903  19.048  0.00  0.00    +0.000 A 
ATOM     27  C   UNL     1       1.397  10.139  18.396  0.00  0.00    +0.000 A 
ATOM     28  C   UNL     1       0.788  11.220  19.040  0.00  0.00    +0.000 A 
ATOM     29  N   UNL     1       0.644  12.437  18.371  0.00  0.00    +0.000 N 
ATOM     30  H   UNL     1       1.048  12.592  17.458  0.00  0.00    +0.000 HD
ENDBRANCH   1  26
TORSDOF 2
ENDMDL
MODEL 8
REMARK VINA RESULT:      -9.6      1.894      3.556
REMARK  Name = 
REMARK  2 active torsions:
REMARK  status: ('A' for Active; 'I' for Inactive)
REMARK    1  A    between atoms: C_8  and  N_9
REMARK    2  A    between atoms: C_10  and  C_12
REMARK                            x       y       z     vdW  Elec       q    Type
REMARK                         _______ _______ _______ _____ _____    ______ ____
ROOT
ATOM      1  N   UNL     1       2.214   8.042  19.511  0.00  0.00    +0.000 N 
ATOM      2  C   UNL     1       2.284   6.923  18.693  0.00  0.00    +0.000 C 
ATOM      3  O   UNL     1       1.478   6.628  17.812  0.00  0.00    +0.000 OA
ATOM      4  H   UNL     1       3.032   8.239  20.078  0.00  0.00    +0.000 HD
ENDROOT
BRANCH   2   5
ATOM      5  C   UNL     1       3.512   6.025  18.939  0.00  0.00    +0.000 C 
ATOM      6  C   UNL     1       4.252   5.737  17.652  0.00  0.00    +0.000 A 
ATOM      7  C   UNL     1       4.656   6.781  16.802  0.00  0.00    +0.000 A 
ATOM      8  C   UNL     1       5.322   6.507  15.606  0.00  0.00    +0.000 A 
ATOM      9  C   UNL     1       5.607   5.190  15.255  0.00  0.00    +0.000 A 
ATOM     10  C   UNL     1       5.233   4.150  16.105  0.00  0.00    +0.000 A 
ATOM     11  C   UNL     1       4.560   4.423  17.298  0.00  0.00    +0.000 A 
ATOM     12  O   UNL     1       4.239   3.331  18.062  0.00  0.00    +0.000 OA
ATOM     13  C   UNL     1       3.548   3.519  19.232  0.00  0.00    +0.000 A 
ATOM     14  C   UNL     1       3.248   2.360  19.949  0.00  0.00    +0.000 A 
ATOM     15  C   UNL     1       2.537   2.439  21.145  0.00  0.00    +0.000 A 
ATOM     16  C   UNL     1       2.131   3.678  21.628  0.00  0.00    +0.000 A 
ATOM     17  C   UNL     1       2.441   4.842  20.919  0.00  0.00    +0.000 A 
ATOM     18  C   UNL     1       3.149   4.771  19.706  0.00  0.00    +0.000 A 
ENDBRANCH   2   5
BRANCH   1  26
ATOM     19  O   UNL     1      -2.941  11.357  15.951  0.00  0.00    +0.000 OA
ATOM     20  C   UNL     1      -2.354  11.146  17.009  0.00  0.00    +0.000 C 
ATOM     21  C   UNL     1      -2.889  11.590  18.369  0.00  0.00    +0.000 C 
ATOM     22  O   UNL     1      -1.974  11.733  19.446  0.00  0.00    +0.000 OA
ATOM     23  C   UNL     1      -0.948  10.830  19.416  0.00  0.00    +0.000 A 
ATOM     24  C   UNL     1      -0.265  10.621  20.607  0.00  0.00    +0.000 A 
ATOM     25  C   UNL     1       0.791   9.708  20.655  0.00  0.00    +0.000 A 
ATOM     26  C   UNL     1       1.190   9.014  19.508  0.00  0.00    +0.000 A 
ATOM     27  C   UNL     1       0.546   9.284  18.292  0.00  0.00    +0.000 A 
ATOM     28  C   UNL     1      -0.535  10.170  18.257  0.00  0.00    +0.000 A 
ATOM     29  N   UNL     1      -1.205  10.401  17.054  0.00  0.00    +0.000 N 
ATOM     30  H   UNL     1      -0.877  10.013  16.180  0.00  0.00    +0.000 HD
ENDBRANCH   1  26
TORSDOF 2
ENDMDL
MODEL 9
REMARK VINA RESULT:      -9.5      1.683      2.371
REMARK  Name = 
REMARK  2 active torsions:
REMARK  status: ('A' for Active; 'I' for Inactive)
REMARK    1  A    between atoms: C_8  and  N_9
REMARK    2  A    between atoms: C_10  and  C_12
REMARK                            x       y       z     vdW  Elec       q    Type
REMARK                         _______ _______ _______ _____ _____    ______ ____
ROOT
ATOM      1  N   UNL     1       2.696   6.712  18.690  0.00  0.00    +0.000 N 
ATOM      2  C   UNL     1       2.184   5.679  17.915  0.00  0.00    +0.000 C 
ATOM      3  O   UNL     1       1.132   5.716  17.279  0.00  0.00    +0.000 OA
ATOM      4  H   UNL     1       3.647   6.597  19.023  0.00  0.00    +0.000 HD
ENDROOT
BRANCH   2   5
ATOM      5  C   UNL     1       3.066   4.416  17.866  0.00  0.00    +0.000 C 
ATOM      6  C   UNL     1       2.944   3.608  19.138  0.00  0.00    +0.000 A 
ATOM      7  C   UNL     1       1.685   3.224  19.632  0.00  0.00    +0.000 A 
ATOM      8  C   UNL     1       1.580   2.494  20.817  0.00  0.00    +0.000 A 
ATOM      9  C   UNL     1       2.729   2.124  21.511  0.00  0.00    +0.000 A 
ATOM     10  C   UNL     1       3.982   2.478  21.014  0.00  0.00    +0.000 A 
ATOM     11  C   UNL     1       4.089   3.215  19.832  0.00  0.00    +0.000 A 
ATOM     12  O   UNL     1       5.366   3.510  19.429  0.00  0.00    +0.000 OA
ATOM     13  C   UNL     1       5.547   4.259  18.295  0.00  0.00    +0.000 A 
ATOM     14  C   UNL     1       6.874   4.528  17.954  0.00  0.00    +0.000 A 
ATOM     15  C   UNL     1       7.168   5.292  16.827  0.00  0.00    +0.000 A 
ATOM     16  C   UNL     1       6.136   5.784  16.036  0.00  0.00    +0.000 A 
ATOM     17  C   UNL     1       4.807   5.506  16.366  0.00  0.00    +0.000 A 
ATOM     18  C   UNL     1       4.500   4.745  17.508  0.00  0.00    +0.000 A 
ENDBRANCH   2   5
BRANCH   1  26
ATOM     19  O   UNL     1      -0.551  11.095  23.214  0.00  0.00    +0.000 OA
ATOM     20  C   UNL     1      -0.042  10.899  22.113  0.00  0.00    +0.000 C 
ATOM     21  C   UNL     1       0.285  12.020  21.128  0.00  0.00    +0.000 C 
ATOM     22  O   UNL     1       0.418  11.697  19.751  0.00  0.00    +0.000 OA
ATOM     23  C   UNL     1       0.955  10.459  19.528  0.00  0.00    +0.000 A 
ATOM     24  C   UNL     1       1.498  10.231  18.271  0.00  0.00    +0.000 A 
ATOM     25  C   UNL     1       2.071   8.992  17.972  0.00  0.00    +0.000 A 
ATOM     26  C   UNL     1       2.085   7.963  18.919  0.00  0.00    +0.000 A 
ATOM     27  C   UNL     1       1.469   8.175  20.161  0.00  0.00    +0.000 A 
ATOM     28  C   UNL     1       0.931   9.428  20.469  0.00  0.00    +0.000 A 
ATOM     29  N   UNL     1       0.361   9.649  21.724  0.00  0.00    +0.000 N 
ATOM     30  H   UNL     1       0.244   8.902  22.394  0.00  0.00    +0.000 HD
ENDBRANCH   1  26
TORSDOF 2
ENDMDL
