MODEL 1
REMARK VINA RESULT:      -8.9      0.000      0.000
REMARK  Name = 
REMARK  4 active torsions:
REMARK  status: ('A' for Active; 'I' for Inactive)
REMARK    1  A    between atoms: C_1  and  C_2
REMARK    2  A    between atoms: C_7  and  C_8
REMARK    3  A    between atoms: C_11  and  C_12
REMARK    4  A    between atoms: C_12  and  N_13
REMARK                            x       y       z     vdW  Elec       q    Type
REMARK                         _______ _______ _______ _____ _____    ______ ____
ROOT
ATOM      1  N   UNL     1       7.097   5.848  17.651  0.00  0.00    +0.000 N 
ATOM      2  C   UNL     1       7.080   4.834  16.716  0.00  0.00    +0.000 C 
ATOM      3  O   UNL     1       7.699   4.791  15.675  0.00  0.00    +0.000 OA
ATOM      4  N   UNL     1       6.102   3.890  17.098  0.00  0.00    +0.000 N 
ATOM      5  C   UNL     1       5.181   4.570  17.982  0.00  0.00    +0.000 C 
ATOM      6  C   UNL     1       4.214   5.428  17.093  0.00  0.00    +0.000 C 
ATOM      7  C   UNL     1       3.218   6.199  17.957  0.00  0.00    +0.000 C 
ATOM      8  C   UNL     1       2.278   5.207  18.641  0.00  0.00    +0.000 C 
ATOM      9  C   UNL     1       3.061   4.055  19.219  0.00  0.00    +0.000 A 
ATOM     10  S   UNL     1       2.327   2.988  20.319  0.00  0.00    +0.000 S 
ATOM     11  C   UNL     1       3.774   2.097  20.481  0.00  0.00    +0.000 A 
ATOM     12  C   UNL     1       4.794   2.591  19.698  0.00  0.00    +0.000 A 
ATOM     13  C   UNL     1       4.377   3.717  18.930  0.00  0.00    +0.000 A 
ATOM     14  C   UNL     1       6.228   5.467  18.641  0.00  0.00    +0.000 C 
ATOM     15  O   UNL     1       6.268   5.854  19.797  0.00  0.00    +0.000 OA
ATOM     16  H   UNL     1       6.507   3.019  17.419  0.00  0.00    +0.000 HD
ENDROOT
BRANCH   1  17
ATOM     17  C   UNL     1       6.925   7.210  17.182  0.00  0.00    +0.000 C 
BRANCH  17  21
ATOM     18  C   UNL     1       8.758  10.055  18.156  0.00  0.00    +0.000 A 
ATOM     19  N   UNL     1       9.107   9.236  19.164  0.00  0.00    +0.000 NA
ATOM     20  O   UNL     1       8.531   8.011  18.820  0.00  0.00    +0.000 OA
ATOM     21  C   UNL     1       7.902   8.211  17.630  0.00  0.00    +0.000 A 
ATOM     22  N   UNL     1       8.014   9.439  17.183  0.00  0.00    +0.000 NA
BRANCH  18  29
ATOM     23  C   UNL     1      11.551  11.098  18.633  0.00  0.00    +0.000 C 
ATOM     24  C   UNL     1      10.369  11.988  18.344  0.00  0.00    +0.000 A 
ATOM     25  C   UNL     1      10.585  13.377  18.303  0.00  0.00    +0.000 A 
ATOM     26  C   UNL     1       9.543  14.258  18.018  0.00  0.00    +0.000 A 
ATOM     27  C   UNL     1       8.273  13.766  17.754  0.00  0.00    +0.000 A 
ATOM     28  C   UNL     1       8.037  12.389  17.799  0.00  0.00    +0.000 A 
ATOM     29  C   UNL     1       9.069  11.483  18.107  0.00  0.00    +0.000 A 
ENDBRANCH  18  29
ENDBRANCH  17  21
ENDBRANCH   1  17
TORSDOF 3
ENDMDL
MODEL 2
REMARK VINA RESULT:      -8.5      0.705      1.460
REMARK  Name = 
REMARK  4 active torsions:
REMARK  status: ('A' for Active; 'I' for Inactive)
REMARK    1  A    between atoms: C_1  and  C_2
REMARK    2  A    between atoms: C_7  and  C_8
REMARK    3  A    between atoms: C_11  and  C_12
REMARK    4  A    between atoms: C_12  and  N_13
REMARK                            x       y       z     vdW  Elec       q    Type
REMARK                         _______ _______ _______ _____ _____    ______ ____
ROOT
ATOM      1  N   UNL     1       7.128   6.262  17.527  0.00  0.00    +0.000 N 
ATOM      2  C   UNL     1       7.007   5.468  16.405  0.00  0.00    +0.000 C 
ATOM      3  O   UNL     1       7.573   5.614  15.343  0.00  0.00    +0.000 OA
ATOM      4  N   UNL     1       5.996   4.511  16.641  0.00  0.00    +0.000 N 
ATOM      5  C   UNL     1       5.159   5.034  17.699  0.00  0.00    +0.000 C 
ATOM      6  C   UNL     1       4.201   6.103  17.063  0.00  0.00    +0.000 C 
ATOM      7  C   UNL     1       3.294   6.723  18.124  0.00  0.00    +0.000 C 
ATOM      8  C   UNL     1       2.332   5.655  18.643  0.00  0.00    +0.000 C 
ATOM      9  C   UNL     1       3.073   4.373  18.925  0.00  0.00    +0.000 A 
ATOM     10  S   UNL     1       2.332   3.135  19.823  0.00  0.00    +0.000 S 
ATOM     11  C   UNL     1       3.731   2.163  19.714  0.00  0.00    +0.000 A 
ATOM     12  C   UNL     1       4.739   2.762  18.990  0.00  0.00    +0.000 A 
ATOM     13  C   UNL     1       4.352   4.041  18.496  0.00  0.00    +0.000 A 
ATOM     14  C   UNL     1       6.286   5.724  18.466  0.00  0.00    +0.000 C 
ATOM     15  O   UNL     1       6.403   5.859  19.672  0.00  0.00    +0.000 OA
ATOM     16  H   UNL     1       6.363   3.574  16.752  0.00  0.00    +0.000 HD
ENDROOT
BRANCH   1  17
ATOM     17  C   UNL     1       7.012   7.698  17.358  0.00  0.00    +0.000 C 
BRANCH  17  21
ATOM     18  C   UNL     1       9.310  10.211  18.262  0.00  0.00    +0.000 A 
ATOM     19  N   UNL     1       9.300   9.522  19.417  0.00  0.00    +0.000 NA
ATOM     20  O   UNL     1       8.504   8.408  19.140  0.00  0.00    +0.000 OA
ATOM     21  C   UNL     1       8.124   8.530  17.839  0.00  0.00    +0.000 A 
ATOM     22  N   UNL     1       8.592   9.609  17.260  0.00  0.00    +0.000 NA
BRANCH  18  29
ATOM     23  C   UNL     1       7.772  12.652  17.370  0.00  0.00    +0.000 C 
ATOM     24  C   UNL     1       9.254  12.657  17.646  0.00  0.00    +0.000 A 
ATOM     25  C   UNL     1       9.953  13.865  17.470  0.00  0.00    +0.000 A 
ATOM     26  C   UNL     1      11.319  13.950  17.730  0.00  0.00    +0.000 A 
ATOM     27  C   UNL     1      12.007  12.834  18.185  0.00  0.00    +0.000 A 
ATOM     28  C   UNL     1      11.333  11.622  18.357  0.00  0.00    +0.000 A 
ATOM     29  C   UNL     1       9.958  11.509  18.079  0.00  0.00    +0.000 A 
ENDBRANCH  18  29
ENDBRANCH  17  21
ENDBRANCH   1  17
TORSDOF 3
ENDMDL
MODEL 3
REMARK VINA RESULT:      -8.5      0.924      1.042
REMARK  Name = 
REMARK  4 active torsions:
REMARK  status: ('A' for Active; 'I' for Inactive)
REMARK    1  A    between atoms: C_1  and  C_2
REMARK    2  A    between atoms: C_7  and  C_8
REMARK    3  A    between atoms: C_11  and  C_12
REMARK    4  A    between atoms: C_12  and  N_13
REMARK                            x       y       z     vdW  Elec       q    Type
REMARK                         _______ _______ _______ _____ _____    ______ ____
ROOT
ATOM      1  N   UNL     1       7.027   6.070  17.519  0.00  0.00    +0.000 N 
ATOM      2  C   UNL     1       6.934   5.212  16.442  0.00  0.00    +0.000 C 
ATOM      3  O   UNL     1       7.504   5.312  15.377  0.00  0.00    +0.000 OA
ATOM      4  N   UNL     1       5.943   4.246  16.724  0.00  0.00    +0.000 N 
ATOM      5  C   UNL     1       5.086   4.806  17.746  0.00  0.00    +0.000 C 
ATOM      6  C   UNL     1       4.109   5.816  17.046  0.00  0.00    +0.000 C 
ATOM      7  C   UNL     1       3.179   6.471  18.065  0.00  0.00    +0.000 C 
ATOM      8  C   UNL     1       2.239   5.411  18.636  0.00  0.00    +0.000 C 
ATOM      9  C   UNL     1       3.008   4.164  18.994  0.00  0.00    +0.000 A 
ATOM     10  S   UNL     1       2.289   2.960  19.954  0.00  0.00    +0.000 S 
ATOM     11  C   UNL     1       3.711   2.018  19.908  0.00  0.00    +0.000 A 
ATOM     12  C   UNL     1       4.710   2.599  19.159  0.00  0.00    +0.000 A 
ATOM     13  C   UNL     1       4.297   3.839  18.592  0.00  0.00    +0.000 A 
ATOM     14  C   UNL     1       6.191   5.565  18.481  0.00  0.00    +0.000 C 
ATOM     15  O   UNL     1       6.295   5.769  19.679  0.00  0.00    +0.000 OA
ATOM     16  H   UNL     1       6.332   3.326  16.889  0.00  0.00    +0.000 HD
ENDROOT
BRANCH   1  17
ATOM     17  C   UNL     1       6.879   7.491  17.271  0.00  0.00    +0.000 C 
BRANCH  17  21
ATOM     18  C   UNL     1       8.890  10.091  18.535  0.00  0.00    +0.000 A 
ATOM     19  N   UNL     1       9.309   9.102  19.343  0.00  0.00    +0.000 NA
ATOM     20  O   UNL     1       8.662   7.966  18.851  0.00  0.00    +0.000 OA
ATOM     21  C   UNL     1       7.928   8.383  17.784  0.00  0.00    +0.000 A 
ATOM     22  N   UNL     1       8.036   9.668  17.550  0.00  0.00    +0.000 NA
BRANCH  18  29
ATOM     23  C   UNL     1       9.039  11.384  21.260  0.00  0.00    +0.000 C 
ATOM     24  C   UNL     1       9.300  12.124  19.973  0.00  0.00    +0.000 A 
ATOM     25  C   UNL     1       9.621  13.491  20.052  0.00  0.00    +0.000 A 
ATOM     26  C   UNL     1       9.898  14.233  18.905  0.00  0.00    +0.000 A 
ATOM     27  C   UNL     1       9.873  13.618  17.661  0.00  0.00    +0.000 A 
ATOM     28  C   UNL     1       9.546  12.262  17.561  0.00  0.00    +0.000 A 
ATOM     29  C   UNL     1       9.242  11.501  18.704  0.00  0.00    +0.000 A 
ENDBRANCH  18  29
ENDBRANCH  17  21
ENDBRANCH   1  17
TORSDOF 3
ENDMDL
MODEL 4
REMARK VINA RESULT:      -8.5      5.144      7.053
REMARK  Name = 
REMARK  4 active torsions:
REMARK  status: ('A' for Active; 'I' for Inactive)
REMARK    1  A    between atoms: C_1  and  C_2
REMARK    2  A    between atoms: C_7  and  C_8
REMARK    3  A    between atoms: C_11  and  C_12
REMARK    4  A    between atoms: C_12  and  N_13
REMARK                            x       y       z     vdW  Elec       q    Type
REMARK                         _______ _______ _______ _____ _____    ______ ____
ROOT
ATOM      1  N   UNL     1       2.367   5.891  18.653  0.00  0.00    +0.000 N 
ATOM      2  C   UNL     1       2.064   4.550  18.534  0.00  0.00    +0.000 C 
ATOM      3  O   UNL     1       1.194   3.943  19.121  0.00  0.00    +0.000 OA
ATOM      4  N   UNL     1       3.033   3.944  17.704  0.00  0.00    +0.000 N 
ATOM      5  C   UNL     1       4.201   4.798  17.727  0.00  0.00    +0.000 C 
ATOM      6  C   UNL     1       4.967   4.522  19.069  0.00  0.00    +0.000 C 
ATOM      7  C   UNL     1       6.208   5.405  19.181  0.00  0.00    +0.000 C 
ATOM      8  C   UNL     1       7.215   4.988  18.111  0.00  0.00    +0.000 C 
ATOM      9  C   UNL     1       6.524   4.804  16.782  0.00  0.00    +0.000 A 
ATOM     10  S   UNL     1       7.436   4.677  15.354  0.00  0.00    +0.000 S 
ATOM     11  C   UNL     1       6.018   4.539  14.415  0.00  0.00    +0.000 A 
ATOM     12  C   UNL     1       4.870   4.570  15.176  0.00  0.00    +0.000 A 
ATOM     13  C   UNL     1       5.157   4.691  16.566  0.00  0.00    +0.000 A 
ATOM     14  C   UNL     1       3.432   6.116  17.819  0.00  0.00    +0.000 C 
ATOM     15  O   UNL     1       3.723   7.193  17.328  0.00  0.00    +0.000 OA
ATOM     16  H   UNL     1       2.662   3.680  16.800  0.00  0.00    +0.000 HD
ENDROOT
BRANCH   1  17
ATOM     17  C   UNL     1       2.514   6.439  19.988  0.00  0.00    +0.000 C 
BRANCH  17  21
ATOM     18  C   UNL     1       0.633   9.416  20.058  0.00  0.00    +0.000 A 
ATOM     19  N   UNL     1       0.338   8.962  21.289  0.00  0.00    +0.000 NA
ATOM     20  O   UNL     1       1.136   7.825  21.431  0.00  0.00    +0.000 OA
ATOM     21  C   UNL     1       1.846   7.715  20.275  0.00  0.00    +0.000 A 
ATOM     22  N   UNL     1       1.576   8.661  19.408  0.00  0.00    +0.000 NA
BRANCH  18  29
ATOM     23  C   UNL     1       1.506  12.256  20.599  0.00  0.00    +0.000 C 
ATOM     24  C   UNL     1       0.369  11.896  19.676  0.00  0.00    +0.000 A 
ATOM     25  C   UNL     1      -0.322  12.945  19.043  0.00  0.00    +0.000 A 
ATOM     26  C   UNL     1      -1.368  12.686  18.160  0.00  0.00    +0.000 A 
ATOM     27  C   UNL     1      -1.731  11.375  17.881  0.00  0.00    +0.000 A 
ATOM     28  C   UNL     1      -1.062  10.320  18.508  0.00  0.00    +0.000 A 
ATOM     29  C   UNL     1      -0.018  10.560  19.420  0.00  0.00    +0.000 A 
ENDBRANCH  18  29
ENDBRANCH  17  21
ENDBRANCH   1  17
TORSDOF 3
ENDMDL
MODEL 5
REMARK VINA RESULT:      -8.5      5.190      7.103
REMARK  Name = 
REMARK  4 active torsions:
REMARK  status: ('A' for Active; 'I' for Inactive)
REMARK    1  A    between atoms: C_1  and  C_2
REMARK    2  A    between atoms: C_7  and  C_8
REMARK    3  A    between atoms: C_11  and  C_12
REMARK    4  A    between atoms: C_12  and  N_13
REMARK                            x       y       z     vdW  Elec       q    Type
REMARK                         _______ _______ _______ _____ _____    ______ ____
ROOT
ATOM      1  N   UNL     1       2.299   5.997  18.677  0.00  0.00    +0.000 N 
ATOM      2  C   UNL     1       1.972   4.663  18.551  0.00  0.00    +0.000 C 
ATOM      3  O   UNL     1       1.085   4.072  19.129  0.00  0.00    +0.000 OA
ATOM      4  N   UNL     1       2.937   4.041  17.730  0.00  0.00    +0.000 N 
ATOM      5  C   UNL     1       4.121   4.872  17.765  0.00  0.00    +0.000 C 
ATOM      6  C   UNL     1       4.868   4.578  19.114  0.00  0.00    +0.000 C 
ATOM      7  C   UNL     1       6.125   5.436  19.241  0.00  0.00    +0.000 C 
ATOM      8  C   UNL     1       7.134   5.001  18.179  0.00  0.00    +0.000 C 
ATOM      9  C   UNL     1       6.453   4.835  16.843  0.00  0.00    +0.000 A 
ATOM     10  S   UNL     1       7.375   4.692  15.424  0.00  0.00    +0.000 S 
ATOM     11  C   UNL     1       5.964   4.583  14.470  0.00  0.00    +0.000 A 
ATOM     12  C   UNL     1       4.810   4.636  15.220  0.00  0.00    +0.000 A 
ATOM     13  C   UNL     1       5.086   4.749  16.614  0.00  0.00    +0.000 A 
ATOM     14  C   UNL     1       3.376   6.204  17.853  0.00  0.00    +0.000 C 
ATOM     15  O   UNL     1       3.693   7.276  17.367  0.00  0.00    +0.000 OA
ATOM     16  H   UNL     1       2.569   3.785  16.822  0.00  0.00    +0.000 HD
ENDROOT
BRANCH   1  17
ATOM     17  C   UNL     1       2.444   6.540  20.014  0.00  0.00    +0.000 C 
BRANCH  17  21
ATOM     18  C   UNL     1       0.689   9.593  20.055  0.00  0.00    +0.000 A 
ATOM     19  N   UNL     1       0.064   8.989  21.081  0.00  0.00    +0.000 NA
ATOM     20  O   UNL     1       0.767   7.793  21.247  0.00  0.00    +0.000 OA
ATOM     21  C   UNL     1       1.756   7.803  20.313  0.00  0.00    +0.000 A 
ATOM     22  N   UNL     1       1.751   8.879  19.564  0.00  0.00    +0.000 NA
BRANCH  18  29
ATOM     23  C   UNL     1      -1.688   9.755  18.198  0.00  0.00    +0.000 C 
ATOM     24  C   UNL     1      -0.841  10.945  18.572  0.00  0.00    +0.000 A 
ATOM     25  C   UNL     1      -1.177  12.193  18.016  0.00  0.00    +0.000 A 
ATOM     26  C   UNL     1      -0.453  13.340  18.335  0.00  0.00    +0.000 A 
ATOM     27  C   UNL     1       0.608  13.264  19.227  0.00  0.00    +0.000 A 
ATOM     28  C   UNL     1       0.963  12.031  19.782  0.00  0.00    +0.000 A 
ATOM     29  C   UNL     1       0.260  10.857  19.456  0.00  0.00    +0.000 A 
ENDBRANCH  18  29
ENDBRANCH  17  21
ENDBRANCH   1  17
TORSDOF 3
ENDMDL
MODEL 6
REMARK VINA RESULT:      -8.2      6.817      9.522
REMARK  Name = 
REMARK  4 active torsions:
REMARK  status: ('A' for Active; 'I' for Inactive)
REMARK    1  A    between atoms: C_1  and  C_2
REMARK    2  A    between atoms: C_7  and  C_8
REMARK    3  A    between atoms: C_11  and  C_12
REMARK    4  A    between atoms: C_12  and  N_13
REMARK                            x       y       z     vdW  Elec       q    Type
REMARK                         _______ _______ _______ _____ _____    ______ ____
ROOT
ATOM      1  N   UNL     1      -0.278  10.019  19.510  0.00  0.00    +0.000 N 
ATOM      2  C   UNL     1      -1.239  10.628  18.730  0.00  0.00    +0.000 C 
ATOM      3  O   UNL     1      -1.496  10.390  17.569  0.00  0.00    +0.000 OA
ATOM      4  N   UNL     1      -1.804  11.693  19.466  0.00  0.00    +0.000 N 
ATOM      5  C   UNL     1      -0.849  12.050  20.492  0.00  0.00    +0.000 C 
ATOM      6  C   UNL     1       0.271  12.919  19.817  0.00  0.00    +0.000 C 
ATOM      7  C   UNL     1       1.337  13.321  20.834  0.00  0.00    +0.000 C 
ATOM      8  C   UNL     1       0.718  14.277  21.853  0.00  0.00    +0.000 C 
ATOM      9  C   UNL     1      -0.621  13.758  22.313  0.00  0.00    +0.000 A 
ATOM     10  S   UNL     1      -1.374  14.429  23.681  0.00  0.00    +0.000 S 
ATOM     11  C   UNL     1      -2.691  13.353  23.532  0.00  0.00    +0.000 A 
ATOM     12  C   UNL     1      -2.570  12.510  22.450  0.00  0.00    +0.000 A 
ATOM     13  C   UNL     1      -1.378  12.762  21.710  0.00  0.00    +0.000 A 
ATOM     14  C   UNL     1      -0.340  10.629  20.736  0.00  0.00    +0.000 C 
ATOM     15  O   UNL     1       0.025  10.131  21.787  0.00  0.00    +0.000 OA
ATOM     16  H   UNL     1      -2.756  11.505  19.755  0.00  0.00    +0.000 HD
ENDROOT
BRANCH   1  17
ATOM     17  C   UNL     1       1.059   9.888  18.963  0.00  0.00    +0.000 C 
BRANCH  17  21
ATOM     18  C   UNL     1       2.917   6.950  18.397  0.00  0.00    +0.000 A 
ATOM     19  N   UNL     1       2.702   6.801  19.716  0.00  0.00    +0.000 NA
ATOM     20  O   UNL     1       1.854   7.862  20.042  0.00  0.00    +0.000 OA
ATOM     21  C   UNL     1       1.631   8.537  18.882  0.00  0.00    +0.000 A 
ATOM     22  N   UNL     1       2.255   8.020  17.852  0.00  0.00    +0.000 NA
BRANCH  18  29
ATOM     23  C   UNL     1       2.280   4.063  17.782  0.00  0.00    +0.000 C 
ATOM     24  C   UNL     1       3.540   4.752  17.325  0.00  0.00    +0.000 A 
ATOM     25  C   UNL     1       4.467   4.003  16.578  0.00  0.00    +0.000 A 
ATOM     26  C   UNL     1       5.642   4.581  16.102  0.00  0.00    +0.000 A 
ATOM     27  C   UNL     1       5.904   5.921  16.350  0.00  0.00    +0.000 A 
ATOM     28  C   UNL     1       4.999   6.681  17.098  0.00  0.00    +0.000 A 
ATOM     29  C   UNL     1       3.817   6.111  17.607  0.00  0.00    +0.000 A 
ENDBRANCH  18  29
ENDBRANCH  17  21
ENDBRANCH   1  17
TORSDOF 3
ENDMDL
MODEL 7
REMARK VINA RESULT:      -8.2      7.048      9.806
REMARK  Name = 
REMARK  4 active torsions:
REMARK  status: ('A' for Active; 'I' for Inactive)
REMARK    1  A    between atoms: C_1  and  C_2
REMARK    2  A    between atoms: C_7  and  C_8
REMARK    3  A    between atoms: C_11  and  C_12
REMARK    4  A    between atoms: C_12  and  N_13
REMARK                            x       y       z     vdW  Elec       q    Type
REMARK                         _______ _______ _______ _____ _____    ______ ____
ROOT
ATOM      1  N   UNL     1      -0.478  10.191  19.049  0.00  0.00    +0.000 N 
ATOM      2  C   UNL     1      -1.426  10.399  18.069  0.00  0.00    +0.000 C 
ATOM      3  O   UNL     1      -1.568   9.766  17.045  0.00  0.00    +0.000 OA
ATOM      4  N   UNL     1      -2.139  11.577  18.379  0.00  0.00    +0.000 N 
ATOM      5  C   UNL     1      -1.303  12.356  19.266  0.00  0.00    +0.000 C 
ATOM      6  C   UNL     1      -0.215  13.072  18.390  0.00  0.00    +0.000 C 
ATOM      7  C   UNL     1       0.727  13.902  19.258  0.00  0.00    +0.000 C 
ATOM      8  C   UNL     1      -0.053  15.065  19.869  0.00  0.00    +0.000 C 
ATOM      9  C   UNL     1      -1.372  14.583  20.417  0.00  0.00    +0.000 A 
ATOM     10  S   UNL     1      -2.287  15.579  21.446  0.00  0.00    +0.000 S 
ATOM     11  C   UNL     1      -3.487  14.376  21.609  0.00  0.00    +0.000 A 
ATOM     12  C   UNL     1      -3.206  13.242  20.879  0.00  0.00    +0.000 A 
ATOM     13  C   UNL     1      -1.988  13.367  20.151  0.00  0.00    +0.000 A 
ATOM     14  C   UNL     1      -0.690  11.160  19.995  0.00  0.00    +0.000 C 
ATOM     15  O   UNL     1      -0.366  11.079  21.168  0.00  0.00    +0.000 OA
ATOM     16  H   UNL     1      -3.090  11.391  18.672  0.00  0.00    +0.000 HD
ENDROOT
BRANCH   1  17
ATOM     17  C   UNL     1       0.904  10.036  18.638  0.00  0.00    +0.000 C 
BRANCH  17  21
ATOM     18  C   UNL     1       2.778   7.064  18.386  0.00  0.00    +0.000 A 
ATOM     19  N   UNL     1       2.583   7.067  19.717  0.00  0.00    +0.000 NA
ATOM     20  O   UNL     1       1.732   8.153  19.932  0.00  0.00    +0.000 OA
ATOM     21  C   UNL     1       1.486   8.688  18.705  0.00  0.00    +0.000 A 
ATOM     22  N   UNL     1       2.098   8.058  17.732  0.00  0.00    +0.000 NA
BRANCH  18  29
ATOM     23  C   UNL     1       2.024   4.185  17.871  0.00  0.00    +0.000 C 
ATOM     24  C   UNL     1       3.339   4.789  17.450  0.00  0.00    +0.000 A 
ATOM     25  C   UNL     1       4.264   3.959  16.789  0.00  0.00    +0.000 A 
ATOM     26  C   UNL     1       5.490   4.456  16.351  0.00  0.00    +0.000 A 
ATOM     27  C   UNL     1       5.807   5.792  16.551  0.00  0.00    +0.000 A 
ATOM     28  C   UNL     1       4.906   6.630  17.214  0.00  0.00    +0.000 A 
ATOM     29  C   UNL     1       3.672   6.144  17.684  0.00  0.00    +0.000 A 
ENDBRANCH  18  29
ENDBRANCH  17  21
ENDBRANCH   1  17
TORSDOF 3
ENDMDL
MODEL 8
REMARK VINA RESULT:      -8.1      6.625      9.844
REMARK  Name = 
REMARK  4 active torsions:
REMARK  status: ('A' for Active; 'I' for Inactive)
REMARK    1  A    between atoms: C_1  and  C_2
REMARK    2  A    between atoms: C_7  and  C_8
REMARK    3  A    between atoms: C_11  and  C_12
REMARK    4  A    between atoms: C_12  and  N_13
REMARK                            x       y       z     vdW  Elec       q    Type
REMARK                         _______ _______ _______ _____ _____    ______ ____
ROOT
ATOM      1  N   UNL     1       0.040   9.839  19.438  0.00  0.00    +0.000 N 
ATOM      2  C   UNL     1      -0.985  10.358  18.674  0.00  0.00    +0.000 C 
ATOM      3  O   UNL     1      -1.251  10.081  17.524  0.00  0.00    +0.000 OA
ATOM      4  N   UNL     1      -1.612  11.389  19.407  0.00  0.00    +0.000 N 
ATOM      5  C   UNL     1      -0.662  11.837  20.402  0.00  0.00    +0.000 C 
ATOM      6  C   UNL     1       0.370  12.777  19.685  0.00  0.00    +0.000 C 
ATOM      7  C   UNL     1       1.426  13.278  20.667  0.00  0.00    +0.000 C 
ATOM      8  C   UNL     1       0.760  14.201  21.687  0.00  0.00    +0.000 C 
ATOM      9  C   UNL     1      -0.523  13.590  22.190  0.00  0.00    +0.000 A 
ATOM     10  S   UNL     1      -1.292  14.224  23.566  0.00  0.00    +0.000 S 
ATOM     11  C   UNL     1      -2.524  13.048  23.469  0.00  0.00    +0.000 A 
ATOM     12  C   UNL     1      -2.365  12.198  22.397  0.00  0.00    +0.000 A 
ATOM     13  C   UNL     1      -1.215  12.528  21.623  0.00  0.00    +0.000 A 
ATOM     14  C   UNL     1      -0.039  10.464  20.655  0.00  0.00    +0.000 C 
ATOM     15  O   UNL     1       0.388  10.014  21.705  0.00  0.00    +0.000 OA
ATOM     16  H   UNL     1      -2.539  11.133  19.724  0.00  0.00    +0.000 HD
ENDROOT
BRANCH   1  17
ATOM     17  C   UNL     1       1.369   9.801  18.858  0.00  0.00    +0.000 C 
BRANCH  17  21
ATOM     18  C   UNL     1       2.487   6.474  19.144  0.00  0.00    +0.000 A 
ATOM     19  N   UNL     1       2.938   6.732  17.904  0.00  0.00    +0.000 NA
ATOM     20  O   UNL     1       2.658   8.088  17.717  0.00  0.00    +0.000 OA
ATOM     21  C   UNL     1       2.080   8.516  18.872  0.00  0.00    +0.000 A 
ATOM     22  N   UNL     1       1.955   7.571  19.772  0.00  0.00    +0.000 NA
BRANCH  18  29
ATOM     23  C   UNL     1       4.930   4.699  19.112  0.00  0.00    +0.000 C 
ATOM     24  C   UNL     1       3.621   4.301  19.744  0.00  0.00    +0.000 A 
ATOM     25  C   UNL     1       3.538   3.030  20.342  0.00  0.00    +0.000 A 
ATOM     26  C   UNL     1       2.366   2.605  20.966  0.00  0.00    +0.000 A 
ATOM     27  C   UNL     1       1.264   3.447  21.017  0.00  0.00    +0.000 A 
ATOM     28  C   UNL     1       1.324   4.709  20.419  0.00  0.00    +0.000 A 
ATOM     29  C   UNL     1       2.489   5.150  19.765  0.00  0.00    +0.000 A 
ENDBRANCH  18  29
ENDBRANCH  17  21
ENDBRANCH   1  17
TORSDOF 3
ENDMDL
MODEL 9
REMARK VINA RESULT:      -8.0      6.319      9.059
REMARK  Name = 
REMARK  4 active torsions:
REMARK  status: ('A' for Active; 'I' for Inactive)
REMARK    1  A    between atoms: C_1  and  C_2
REMARK    2  A    between atoms: C_7  and  C_8
REMARK    3  A    between atoms: C_11  and  C_12
REMARK    4  A    between atoms: C_12  and  N_13
REMARK                            x       y       z     vdW  Elec       q    Type
REMARK                         _______ _______ _______ _____ _____    ______ ____
ROOT
ATOM      1  N   UNL     1       0.290   9.833  19.040  0.00  0.00    +0.000 N 
ATOM      2  C   UNL     1      -0.829  10.288  18.373  0.00  0.00    +0.000 C 
ATOM      3  O   UNL     1      -1.275   9.871  17.325  0.00  0.00    +0.000 OA
ATOM      4  N   UNL     1      -1.312  11.435  19.040  0.00  0.00    +0.000 N 
ATOM      5  C   UNL     1      -0.211  11.971  19.810  0.00  0.00    +0.000 C 
ATOM      6  C   UNL     1       0.720  12.760  18.822  0.00  0.00    +0.000 C 
ATOM      7  C   UNL     1       1.926  13.343  19.556  0.00  0.00    +0.000 C 
ATOM      8  C   UNL     1       1.446  14.423  20.525  0.00  0.00    +0.000 C 
ATOM      9  C   UNL     1       0.242  13.941  21.294  0.00  0.00    +0.000 A 
ATOM     10  S   UNL     1      -0.291  14.788  22.668  0.00  0.00    +0.000 S 
ATOM     11  C   UNL     1      -1.550  13.663  22.921  0.00  0.00    +0.000 A 
ATOM     12  C   UNL     1      -1.577  12.671  21.966  0.00  0.00    +0.000 A 
ATOM     13  C   UNL     1      -0.553  12.843  20.991  0.00  0.00    +0.000 A 
ATOM     14  C   UNL     1       0.413  10.619  20.156  0.00  0.00    +0.000 C 
ATOM     15  O   UNL     1       0.987  10.296  21.182  0.00  0.00    +0.000 OA
ATOM     16  H   UNL     1      -2.185  11.265  19.524  0.00  0.00    +0.000 HD
ENDROOT
BRANCH   1  17
ATOM     17  C   UNL     1       1.512   9.660  18.279  0.00  0.00    +0.000 C 
BRANCH  17  21
ATOM     18  C   UNL     1       3.537   6.789  18.029  0.00  0.00    +0.000 A 
ATOM     19  N   UNL     1       3.041   6.578  19.260  0.00  0.00    +0.000 NA
ATOM     20  O   UNL     1       2.111   7.606  19.431  0.00  0.00    +0.000 OA
ATOM     21  C   UNL     1       2.128   8.326  18.276  0.00  0.00    +0.000 A 
ATOM     22  N   UNL     1       2.979   7.867  17.391  0.00  0.00    +0.000 NA
BRANCH  18  29
ATOM     23  C   UNL     1       3.132   3.925  17.163  0.00  0.00    +0.000 C 
ATOM     24  C   UNL     1       4.443   4.656  17.030  0.00  0.00    +0.000 A 
ATOM     25  C   UNL     1       5.534   3.958  16.481  0.00  0.00    +0.000 A 
ATOM     26  C   UNL     1       6.770   4.578  16.307  0.00  0.00    +0.000 A 
ATOM     27  C   UNL     1       6.933   5.910  16.664  0.00  0.00    +0.000 A 
ATOM     28  C   UNL     1       5.863   6.617  17.221  0.00  0.00    +0.000 A 
ATOM     29  C   UNL     1       4.614   6.004  17.426  0.00  0.00    +0.000 A 
ENDBRANCH  18  29
ENDBRANCH  17  21
ENDBRANCH   1  17
TORSDOF 3
ENDMDL
