MODEL 1
REMARK VINA RESULT:      -9.5      0.000      0.000
REMARK  Name = 
REMARK  5 active torsions:
REMARK  status: ('A' for Active; 'I' for Inactive)
REMARK    1  A    between atoms: C_1  and  O_2
REMARK    2  A    between atoms: O_2  and  C_3
REMARK    3  A    between atoms: C_6  and  C_7
REMARK    4  A    between atoms: C_15  and  N_16
REMARK    5  A    between atoms: C_17  and  C_19
REMARK                            x       y       z     vdW  Elec       q    Type
REMARK                         _______ _______ _______ _____ _____    ______ ____
ROOT
ATOM      1  C   UNL     1       2.938   4.232  20.330  0.00  0.00    +0.000 A 
ATOM      2  C   UNL     1       3.699   3.099  19.991  0.00  0.00    +0.000 A 
ATOM      3  C   UNL     1       4.805   3.207  19.150  0.00  0.00    +0.000 A 
ATOM      4  C   UNL     1       5.165   4.451  18.636  0.00  0.00    +0.000 A 
ATOM      5  C   UNL     1       4.430   5.581  18.989  0.00  0.00    +0.000 A 
ATOM      6  C   UNL     1       3.287   5.487  19.786  0.00  0.00    +0.000 A 
ENDROOT
BRANCH   4   7
ATOM      7  C   UNL     1       6.384   4.555  17.787  0.00  0.00    +0.000 C 
ATOM      8  O   UNL     1       7.473   4.472  18.345  0.00  0.00    +0.000 OA
ATOM      9  N   UNL     1       6.252   4.711  16.420  0.00  0.00    +0.000 N 
ATOM     10  C   UNL     1       5.056   4.642  15.602  0.00  0.00    +0.000 C 
ATOM     11  C   UNL     1       5.563   4.145  14.258  0.00  0.00    +0.000 C 
ATOM     12  C   UNL     1       6.947   4.773  14.155  0.00  0.00    +0.000 C 
ATOM     13  C   UNL     1       7.430   4.882  15.596  0.00  0.00    +0.000 C 
ENDBRANCH   4   7
BRANCH   6  14
ATOM     14  N   UNL     1       2.489   6.631  20.061  0.00  0.00    +0.000 N 
ATOM     15  C   UNL     1       2.252   7.677  19.177  0.00  0.00    +0.000 C 
ATOM     16  O   UNL     1       2.673   7.758  18.024  0.00  0.00    +0.000 OA
ATOM     17  H   UNL     1       1.940   6.616  20.918  0.00  0.00    +0.000 HD
BRANCH  15  18
ATOM     18  C   UNL     1       1.330   8.750  19.658  0.00  0.00    +0.000 A 
ATOM     19  C   UNL     1       0.993   9.771  18.777  0.00  0.00    +0.000 A 
ATOM     20  C   UNL     1       0.120  10.758  19.211  0.00  0.00    +0.000 A 
ATOM     21  C   UNL     1      -0.328  10.741  20.532  0.00  0.00    +0.000 A 
ATOM     22  C   UNL     1      -1.145  11.772  21.024  0.00  0.00    +0.000 A 
ATOM     23  C   UNL     1      -1.533  11.781  22.360  0.00  0.00    +0.000 A 
ATOM     24  C   UNL     1      -1.122  10.751  23.199  0.00  0.00    +0.000 A 
ATOM     25  C   UNL     1      -0.330   9.712  22.697  0.00  0.00    +0.000 A 
ATOM     26  C   UNL     1       0.089   9.679  21.373  0.00  0.00    +0.000 A 
ATOM     27  N   UNL     1       0.874   8.671  20.938  0.00  0.00    +0.000 NA
ENDBRANCH  15  18
ENDBRANCH   6  14
BRANCH   1  29
ATOM     28  C   UNL     1       1.317   2.881  21.411  0.00  0.00    +0.000 C 
ATOM     29  O   UNL     1       1.839   4.186  21.155  0.00  0.00    +0.000 OA
ENDBRANCH   1  29
TORSDOF 4
ENDMDL
MODEL 2
REMARK VINA RESULT:      -9.5      0.781      1.456
REMARK  Name = 
REMARK  5 active torsions:
REMARK  status: ('A' for Active; 'I' for Inactive)
REMARK    1  A    between atoms: C_1  and  O_2
REMARK    2  A    between atoms: O_2  and  C_3
REMARK    3  A    between atoms: C_6  and  C_7
REMARK    4  A    between atoms: C_15  and  N_16
REMARK    5  A    between atoms: C_17  and  C_19
REMARK                            x       y       z     vdW  Elec       q    Type
REMARK                         _______ _______ _______ _____ _____    ______ ____
ROOT
ATOM      1  C   UNL     1       2.533   4.015  20.101  0.00  0.00    +0.000 A 
ATOM      2  C   UNL     1       3.189   2.932  19.486  0.00  0.00    +0.000 A 
ATOM      3  C   UNL     1       4.359   3.127  18.756  0.00  0.00    +0.000 A 
ATOM      4  C   UNL     1       4.891   4.409  18.631  0.00  0.00    +0.000 A 
ATOM      5  C   UNL     1       4.260   5.482  19.258  0.00  0.00    +0.000 A 
ATOM      6  C   UNL     1       3.058   5.317  19.949  0.00  0.00    +0.000 A 
ENDROOT
BRANCH   4   7
ATOM      7  C   UNL     1       6.175   4.588  17.897  0.00  0.00    +0.000 C 
ATOM      8  O   UNL     1       7.211   4.566  18.552  0.00  0.00    +0.000 OA
ATOM      9  N   UNL     1       6.159   4.744  16.523  0.00  0.00    +0.000 N 
ATOM     10  C   UNL     1       5.048   4.608  15.600  0.00  0.00    +0.000 C 
ATOM     11  C   UNL     1       5.705   4.148  14.308  0.00  0.00    +0.000 C 
ATOM     12  C   UNL     1       7.053   4.858  14.331  0.00  0.00    +0.000 C 
ATOM     13  C   UNL     1       7.396   4.987  15.810  0.00  0.00    +0.000 C 
ENDBRANCH   4   7
BRANCH   6  14
ATOM     14  N   UNL     1       2.372   6.432  20.503  0.00  0.00    +0.000 N 
ATOM     15  C   UNL     1       1.987   7.568  19.802  0.00  0.00    +0.000 C 
ATOM     16  O   UNL     1       2.158   7.768  18.600  0.00  0.00    +0.000 OA
ATOM     17  H   UNL     1       2.016   6.329  21.451  0.00  0.00    +0.000 HD
BRANCH  15  18
ATOM     18  C   UNL     1       1.221   8.592  20.576  0.00  0.00    +0.000 A 
ATOM     19  C   UNL     1       1.221   8.501  21.962  0.00  0.00    +0.000 A 
ATOM     20  C   UNL     1       0.530   9.461  22.687  0.00  0.00    +0.000 A 
ATOM     21  C   UNL     1      -0.204  10.434  22.008  0.00  0.00    +0.000 A 
ATOM     22  C   UNL     1      -0.980  11.368  22.713  0.00  0.00    +0.000 A 
ATOM     23  C   UNL     1      -1.760  12.293  22.025  0.00  0.00    +0.000 A 
ATOM     24  C   UNL     1      -1.748  12.297  20.634  0.00  0.00    +0.000 A 
ATOM     25  C   UNL     1      -0.952  11.382  19.937  0.00  0.00    +0.000 A 
ATOM     26  C   UNL     1      -0.173  10.435  20.592  0.00  0.00    +0.000 A 
ATOM     27  N   UNL     1       0.560   9.555  19.878  0.00  0.00    +0.000 NA
ENDBRANCH  15  18
ENDBRANCH   6  14
BRANCH   1  29
ATOM     28  C   UNL     1       1.311   2.729  21.675  0.00  0.00    +0.000 C 
ATOM     29  O   UNL     1       1.377   3.882  20.833  0.00  0.00    +0.000 OA
ENDBRANCH   1  29
TORSDOF 4
ENDMDL
MODEL 3
REMARK VINA RESULT:      -8.9      1.532      1.836
REMARK  Name = 
REMARK  5 active torsions:
REMARK  status: ('A' for Active; 'I' for Inactive)
REMARK    1  A    between atoms: C_1  and  O_2
REMARK    2  A    between atoms: O_2  and  C_3
REMARK    3  A    between atoms: C_6  and  C_7
REMARK    4  A    between atoms: C_15  and  N_16
REMARK    5  A    between atoms: C_17  and  C_19
REMARK                            x       y       z     vdW  Elec       q    Type
REMARK                         _______ _______ _______ _____ _____    ______ ____
ROOT
ATOM      1  C   UNL     1       3.235   4.151  18.153  0.00  0.00    +0.000 A 
ATOM      2  C   UNL     1       3.965   3.167  17.461  0.00  0.00    +0.000 A 
ATOM      3  C   UNL     1       4.996   3.521  16.593  0.00  0.00    +0.000 A 
ATOM      4  C   UNL     1       5.310   4.865  16.404  0.00  0.00    +0.000 A 
ATOM      5  C   UNL     1       4.607   5.844  17.105  0.00  0.00    +0.000 A 
ATOM      6  C   UNL     1       3.536   5.514  17.938  0.00  0.00    +0.000 A 
ENDROOT
BRANCH   4   7
ATOM      7  C   UNL     1       6.453   5.220  15.517  0.00  0.00    +0.000 C 
ATOM      8  O   UNL     1       7.394   5.827  16.019  0.00  0.00    +0.000 OA
ATOM      9  N   UNL     1       6.430   4.839  14.189  0.00  0.00    +0.000 N 
ATOM     10  C   UNL     1       5.491   3.972  13.502  0.00  0.00    +0.000 C 
ATOM     11  C   UNL     1       6.321   3.344  12.394  0.00  0.00    +0.000 C 
ATOM     12  C   UNL     1       7.293   4.456  12.015  0.00  0.00    +0.000 C 
ATOM     13  C   UNL     1       7.504   5.240  13.304  0.00  0.00    +0.000 C 
ENDBRANCH   4   7
BRANCH   6  14
ATOM     14  N   UNL     1       2.764   6.524  18.574  0.00  0.00    +0.000 N 
ATOM     15  C   UNL     1       2.596   7.821  18.105  0.00  0.00    +0.000 C 
ATOM     16  O   UNL     1       3.065   8.280  17.064  0.00  0.00    +0.000 OA
ATOM     17  H   UNL     1       2.181   6.235  19.357  0.00  0.00    +0.000 HD
BRANCH  15  18
ATOM     18  C   UNL     1       1.689   8.699  18.906  0.00  0.00    +0.000 A 
ATOM     19  C   UNL     1       1.122   9.802  18.280  0.00  0.00    +0.000 A 
ATOM     20  C   UNL     1       0.262  10.608  19.011  0.00  0.00    +0.000 A 
ATOM     21  C   UNL     1       0.055  10.336  20.365  0.00  0.00    +0.000 A 
ATOM     22  C   UNL     1      -0.743  11.182  21.151  0.00  0.00    +0.000 A 
ATOM     23  C   UNL     1      -0.890  10.939  22.514  0.00  0.00    +0.000 A 
ATOM     24  C   UNL     1      -0.256   9.840  23.084  0.00  0.00    +0.000 A 
ATOM     25  C   UNL     1       0.517   8.986  22.290  0.00  0.00    +0.000 A 
ATOM     26  C   UNL     1       0.697   9.207  20.931  0.00  0.00    +0.000 A 
ATOM     27  N   UNL     1       1.472   8.371  20.208  0.00  0.00    +0.000 NA
ENDBRANCH  15  18
ENDBRANCH   6  14
BRANCH   1  29
ATOM     28  C   UNL     1       1.130   3.107  18.469  0.00  0.00    +0.000 C 
ATOM     29  O   UNL     1       2.210   3.861  19.022  0.00  0.00    +0.000 OA
ENDBRANCH   1  29
TORSDOF 4
ENDMDL
MODEL 4
REMARK VINA RESULT:      -8.6      1.529      1.782
REMARK  Name = 
REMARK  5 active torsions:
REMARK  status: ('A' for Active; 'I' for Inactive)
REMARK    1  A    between atoms: C_1  and  O_2
REMARK    2  A    between atoms: O_2  and  C_3
REMARK    3  A    between atoms: C_6  and  C_7
REMARK    4  A    between atoms: C_15  and  N_16
REMARK    5  A    between atoms: C_17  and  C_19
REMARK                            x       y       z     vdW  Elec       q    Type
REMARK                         _______ _______ _______ _____ _____    ______ ____
ROOT
ATOM      1  C   UNL     1       2.712   4.065  17.961  0.00  0.00    +0.000 A 
ATOM      2  C   UNL     1       3.414   3.003  17.363  0.00  0.00    +0.000 A 
ATOM      3  C   UNL     1       4.570   3.239  16.621  0.00  0.00    +0.000 A 
ATOM      4  C   UNL     1       5.039   4.541  16.468  0.00  0.00    +0.000 A 
ATOM      5  C   UNL     1       4.362   5.595  17.079  0.00  0.00    +0.000 A 
ATOM      6  C   UNL     1       3.173   5.387  17.780  0.00  0.00    +0.000 A 
ENDROOT
BRANCH   4   7
ATOM      7  C   UNL     1       6.308   4.766  15.721  0.00  0.00    +0.000 C 
ATOM      8  O   UNL     1       7.301   5.078  16.371  0.00  0.00    +0.000 OA
ATOM      9  N   UNL     1       6.333   4.595  14.350  0.00  0.00    +0.000 N 
ATOM     10  C   UNL     1       5.306   4.058  13.476  0.00  0.00    +0.000 C 
ATOM     11  C   UNL     1       6.092   3.433  12.334  0.00  0.00    +0.000 C 
ATOM     12  C   UNL     1       7.300   4.353  12.199  0.00  0.00    +0.000 C 
ATOM     13  C   UNL     1       7.544   4.879  13.608  0.00  0.00    +0.000 C 
ENDBRANCH   4   7
BRANCH   6  14
ATOM     14  N   UNL     1       2.438   6.479  18.318  0.00  0.00    +0.000 N 
ATOM     15  C   UNL     1       2.345   6.799  19.667  0.00  0.00    +0.000 C 
ATOM     16  O   UNL     1       2.900   6.206  20.590  0.00  0.00    +0.000 OA
ATOM     17  H   UNL     1       2.066   7.156  17.654  0.00  0.00    +0.000 HD
BRANCH  15  18
ATOM     18  C   UNL     1       1.565   8.030  20.000  0.00  0.00    +0.000 A 
ATOM     19  C   UNL     1       1.535   9.060  19.067  0.00  0.00    +0.000 A 
ATOM     20  C   UNL     1       0.795  10.196  19.360  0.00  0.00    +0.000 A 
ATOM     21  C   UNL     1       0.174  10.304  20.605  0.00  0.00    +0.000 A 
ATOM     22  C   UNL     1      -0.512  11.476  20.963  0.00  0.00    +0.000 A 
ATOM     23  C   UNL     1      -1.072  11.600  22.231  0.00  0.00    +0.000 A 
ATOM     24  C   UNL     1      -0.965  10.546  23.132  0.00  0.00    +0.000 A 
ATOM     25  C   UNL     1      -0.304   9.371  22.760  0.00  0.00    +0.000 A 
ATOM     26  C   UNL     1       0.280   9.219  21.509  0.00  0.00    +0.000 A 
ATOM     27  N   UNL     1       0.931   8.077  21.202  0.00  0.00    +0.000 NA
ENDBRANCH  15  18
ENDBRANCH   6  14
BRANCH   1  29
ATOM     28  C   UNL     1       1.602   2.817  19.645  0.00  0.00    +0.000 C 
ATOM     29  O   UNL     1       1.568   3.892  18.704  0.00  0.00    +0.000 OA
ENDBRANCH   1  29
TORSDOF 4
ENDMDL
MODEL 5
REMARK VINA RESULT:      -8.5      1.481      2.070
REMARK  Name = 
REMARK  5 active torsions:
REMARK  status: ('A' for Active; 'I' for Inactive)
REMARK    1  A    between atoms: C_1  and  O_2
REMARK    2  A    between atoms: O_2  and  C_3
REMARK    3  A    between atoms: C_6  and  C_7
REMARK    4  A    between atoms: C_15  and  N_16
REMARK    5  A    between atoms: C_17  and  C_19
REMARK                            x       y       z     vdW  Elec       q    Type
REMARK                         _______ _______ _______ _____ _____    ______ ____
ROOT
ATOM      1  C   UNL     1       3.054   4.212  18.313  0.00  0.00    +0.000 A 
ATOM      2  C   UNL     1       3.671   3.279  17.459  0.00  0.00    +0.000 A 
ATOM      3  C   UNL     1       4.738   3.654  16.645  0.00  0.00    +0.000 A 
ATOM      4  C   UNL     1       5.203   4.967  16.675  0.00  0.00    +0.000 A 
ATOM      5  C   UNL     1       4.612   5.889  17.537  0.00  0.00    +0.000 A 
ATOM      6  C   UNL     1       3.508   5.549  18.321  0.00  0.00    +0.000 A 
ENDROOT
BRANCH   4   7
ATOM      7  C   UNL     1       6.382   5.332  15.841  0.00  0.00    +0.000 C 
ATOM      8  O   UNL     1       7.304   5.926  16.391  0.00  0.00    +0.000 OA
ATOM      9  N   UNL     1       6.411   4.976  14.506  0.00  0.00    +0.000 N 
ATOM     10  C   UNL     1       5.497   4.126  13.766  0.00  0.00    +0.000 C 
ATOM     11  C   UNL     1       6.368   3.515  12.680  0.00  0.00    +0.000 C 
ATOM     12  C   UNL     1       7.359   4.628  12.361  0.00  0.00    +0.000 C 
ATOM     13  C   UNL     1       7.521   5.387  13.672  0.00  0.00    +0.000 C 
ENDBRANCH   4   7
BRANCH   6  14
ATOM     14  N   UNL     1       2.852   6.521  19.124  0.00  0.00    +0.000 N 
ATOM     15  C   UNL     1       2.278   7.696  18.655  0.00  0.00    +0.000 C 
ATOM     16  O   UNL     1       2.229   8.058  17.481  0.00  0.00    +0.000 OA
ATOM     17  H   UNL     1       2.670   6.271  20.094  0.00  0.00    +0.000 HD
BRANCH  15  18
ATOM     18  C   UNL     1       1.587   8.544  19.675  0.00  0.00    +0.000 A 
ATOM     19  C   UNL     1       1.527   8.079  20.983  0.00  0.00    +0.000 A 
ATOM     20  C   UNL     1       0.906   8.871  21.937  0.00  0.00    +0.000 A 
ATOM     21  C   UNL     1       0.296  10.064  21.545  0.00  0.00    +0.000 A 
ATOM     22  C   UNL     1      -0.412  10.844  22.473  0.00  0.00    +0.000 A 
ATOM     23  C   UNL     1      -1.072  11.998  22.059  0.00  0.00    +0.000 A 
ATOM     24  C   UNL     1      -1.007  12.380  20.723  0.00  0.00    +0.000 A 
ATOM     25  C   UNL     1      -0.279  11.612  19.809  0.00  0.00    +0.000 A 
ATOM     26  C   UNL     1       0.379  10.448  20.184  0.00  0.00    +0.000 A 
ATOM     27  N   UNL     1       1.049   9.724  19.263  0.00  0.00    +0.000 NA
ENDBRANCH  15  18
ENDBRANCH   6  14
BRANCH   1  29
ATOM     28  C   UNL     1       1.196   2.795  18.718  0.00  0.00    +0.000 C 
ATOM     29  O   UNL     1       1.999   3.899  19.138  0.00  0.00    +0.000 OA
ENDBRANCH   1  29
TORSDOF 4
ENDMDL
MODEL 6
REMARK VINA RESULT:      -8.1      4.801      7.669
REMARK  Name = 
REMARK  5 active torsions:
REMARK  status: ('A' for Active; 'I' for Inactive)
REMARK    1  A    between atoms: C_1  and  O_2
REMARK    2  A    between atoms: O_2  and  C_3
REMARK    3  A    between atoms: C_6  and  C_7
REMARK    4  A    between atoms: C_15  and  N_16
REMARK    5  A    between atoms: C_17  and  C_19
REMARK                            x       y       z     vdW  Elec       q    Type
REMARK                         _______ _______ _______ _____ _____    ______ ____
ROOT
ATOM      1  C   UNL     1       6.227   5.545  16.082  0.00  0.00    +0.000 A 
ATOM      2  C   UNL     1       5.562   4.320  15.885  0.00  0.00    +0.000 A 
ATOM      3  C   UNL     1       4.378   4.033  16.561  0.00  0.00    +0.000 A 
ATOM      4  C   UNL     1       3.842   4.967  17.444  0.00  0.00    +0.000 A 
ATOM      5  C   UNL     1       4.482   6.192  17.625  0.00  0.00    +0.000 A 
ATOM      6  C   UNL     1       5.697   6.478  16.999  0.00  0.00    +0.000 A 
ENDROOT
BRANCH   4   7
ATOM      7  C   UNL     1       2.545   4.666  18.112  0.00  0.00    +0.000 C 
ATOM      8  O   UNL     1       1.517   4.894  17.484  0.00  0.00    +0.000 OA
ATOM      9  N   UNL     1       2.543   4.125  19.384  0.00  0.00    +0.000 N 
ATOM     10  C   UNL     1       3.658   3.634  20.172  0.00  0.00    +0.000 C 
ATOM     11  C   UNL     1       3.039   2.550  21.040  0.00  0.00    +0.000 C 
ATOM     12  C   UNL     1       1.634   3.077  21.307  0.00  0.00    +0.000 C 
ATOM     13  C   UNL     1       1.287   3.893  20.068  0.00  0.00    +0.000 C 
ENDBRANCH   4   7
BRANCH   6  14
ATOM     14  N   UNL     1       6.391   7.691  17.264  0.00  0.00    +0.000 N 
ATOM     15  C   UNL     1       7.532   7.808  18.048  0.00  0.00    +0.000 C 
ATOM     16  O   UNL     1       8.125   6.886  18.605  0.00  0.00    +0.000 OA
ATOM     17  H   UNL     1       6.109   8.510  16.729  0.00  0.00    +0.000 HD
BRANCH  15  18
ATOM     18  C   UNL     1       8.130   9.176  18.140  0.00  0.00    +0.000 A 
ATOM     19  C   UNL     1       7.691  10.145  17.246  0.00  0.00    +0.000 A 
ATOM     20  C   UNL     1       8.225  11.422  17.341  0.00  0.00    +0.000 A 
ATOM     21  C   UNL     1       9.236  11.672  18.270  0.00  0.00    +0.000 A 
ATOM     22  C   UNL     1       9.854  12.932  18.332  0.00  0.00    +0.000 A 
ATOM     23  C   UNL     1      10.906  13.152  19.217  0.00  0.00    +0.000 A 
ATOM     24  C   UNL     1      11.325  12.122  20.052  0.00  0.00    +0.000 A 
ATOM     25  C   UNL     1      10.687  10.878  20.004  0.00  0.00    +0.000 A 
ATOM     26  C   UNL     1       9.645  10.618  19.123  0.00  0.00    +0.000 A 
ATOM     27  N   UNL     1       9.076   9.394  19.093  0.00  0.00    +0.000 NA
ENDBRANCH  15  18
ENDBRANCH   6  14
BRANCH   1  29
ATOM     28  C   UNL     1       7.601   5.265  14.170  0.00  0.00    +0.000 C 
ATOM     29  O   UNL     1       7.396   5.883  15.442  0.00  0.00    +0.000 OA
ENDBRANCH   1  29
TORSDOF 4
ENDMDL
MODEL 7
REMARK VINA RESULT:      -8.1      1.747      2.406
REMARK  Name = 
REMARK  5 active torsions:
REMARK  status: ('A' for Active; 'I' for Inactive)
REMARK    1  A    between atoms: C_1  and  O_2
REMARK    2  A    between atoms: O_2  and  C_3
REMARK    3  A    between atoms: C_6  and  C_7
REMARK    4  A    between atoms: C_15  and  N_16
REMARK    5  A    between atoms: C_17  and  C_19
REMARK                            x       y       z     vdW  Elec       q    Type
REMARK                         _______ _______ _______ _____ _____    ______ ____
ROOT
ATOM      1  C   UNL     1       2.642   4.233  17.921  0.00  0.00    +0.000 A 
ATOM      2  C   UNL     1       3.316   3.177  17.281  0.00  0.00    +0.000 A 
ATOM      3  C   UNL     1       4.477   3.412  16.547  0.00  0.00    +0.000 A 
ATOM      4  C   UNL     1       4.979   4.707  16.443  0.00  0.00    +0.000 A 
ATOM      5  C   UNL     1       4.330   5.754  17.094  0.00  0.00    +0.000 A 
ATOM      6  C   UNL     1       3.136   5.549  17.790  0.00  0.00    +0.000 A 
ENDROOT
BRANCH   4   7
ATOM      7  C   UNL     1       6.253   4.928  15.702  0.00  0.00    +0.000 C 
ATOM      8  O   UNL     1       7.225   5.310  16.347  0.00  0.00    +0.000 OA
ATOM      9  N   UNL     1       6.306   4.677  14.344  0.00  0.00    +0.000 N 
ATOM     10  C   UNL     1       5.311   4.056  13.489  0.00  0.00    +0.000 C 
ATOM     11  C   UNL     1       6.135   3.390  12.399  0.00  0.00    +0.000 C 
ATOM     12  C   UNL     1       7.316   4.338  12.227  0.00  0.00    +0.000 C 
ATOM     13  C   UNL     1       7.520   4.955  13.605  0.00  0.00    +0.000 C 
ENDBRANCH   4   7
BRANCH   6  14
ATOM     14  N   UNL     1       2.430   6.638  18.370  0.00  0.00    +0.000 N 
ATOM     15  C   UNL     1       2.315   6.888  19.732  0.00  0.00    +0.000 C 
ATOM     16  O   UNL     1       2.824   6.224  20.633  0.00  0.00    +0.000 OA
ATOM     17  H   UNL     1       2.100   7.364  17.736  0.00  0.00    +0.000 HD
BRANCH  15  18
ATOM     18  C   UNL     1       1.574   8.129  20.114  0.00  0.00    +0.000 A 
ATOM     19  C   UNL     1       1.189   8.281  21.440  0.00  0.00    +0.000 A 
ATOM     20  C   UNL     1       0.521   9.440  21.806  0.00  0.00    +0.000 A 
ATOM     21  C   UNL     1       0.187  10.375  20.825  0.00  0.00    +0.000 A 
ATOM     22  C   UNL     1      -0.562  11.517  21.150  0.00  0.00    +0.000 A 
ATOM     23  C   UNL     1      -0.945  12.411  20.154  0.00  0.00    +0.000 A 
ATOM     24  C   UNL     1      -0.562  12.172  18.838  0.00  0.00    +0.000 A 
ATOM     25  C   UNL     1       0.206  11.046  18.524  0.00  0.00    +0.000 A 
ATOM     26  C   UNL     1       0.593  10.126  19.491  0.00  0.00    +0.000 A 
ATOM     27  N   UNL     1       1.313   9.040  19.139  0.00  0.00    +0.000 NA
ENDBRANCH  15  18
ENDBRANCH   6  14
BRANCH   1  29
ATOM     28  C   UNL     1       1.217   2.719  19.062  0.00  0.00    +0.000 C 
ATOM     29  O   UNL     1       1.494   4.062  18.659  0.00  0.00    +0.000 OA
ENDBRANCH   1  29
TORSDOF 4
ENDMDL
MODEL 8
REMARK VINA RESULT:      -8.0      3.452      8.700
REMARK  Name = 
REMARK  5 active torsions:
REMARK  status: ('A' for Active; 'I' for Inactive)
REMARK    1  A    between atoms: C_1  and  O_2
REMARK    2  A    between atoms: O_2  and  C_3
REMARK    3  A    between atoms: C_6  and  C_7
REMARK    4  A    between atoms: C_15  and  N_16
REMARK    5  A    between atoms: C_17  and  C_19
REMARK                            x       y       z     vdW  Elec       q    Type
REMARK                         _______ _______ _______ _____ _____    ______ ____
ROOT
ATOM      1  C   UNL     1      -0.791  11.036  19.248  0.00  0.00    +0.000 A 
ATOM      2  C   UNL     1      -1.349  12.320  19.391  0.00  0.00    +0.000 A 
ATOM      3  C   UNL     1      -0.609  13.363  19.943  0.00  0.00    +0.000 A 
ATOM      4  C   UNL     1       0.701  13.136  20.361  0.00  0.00    +0.000 A 
ATOM      5  C   UNL     1       1.267  11.873  20.200  0.00  0.00    +0.000 A 
ATOM      6  C   UNL     1       0.526  10.801  19.698  0.00  0.00    +0.000 A 
ENDROOT
BRANCH   4   7
ATOM      7  C   UNL     1       1.495  14.278  20.895  0.00  0.00    +0.000 C 
ATOM      8  O   UNL     1       1.562  14.402  22.113  0.00  0.00    +0.000 OA
ATOM      9  N   UNL     1       2.139  15.130  20.018  0.00  0.00    +0.000 N 
ATOM     10  C   UNL     1       2.305  15.011  18.581  0.00  0.00    +0.000 C 
ATOM     11  C   UNL     1       3.622  15.719  18.308  0.00  0.00    +0.000 C 
ATOM     12  C   UNL     1       3.635  16.840  19.341  0.00  0.00    +0.000 C 
ATOM     13  C   UNL     1       2.856  16.282  20.525  0.00  0.00    +0.000 C 
ENDBRANCH   4   7
BRANCH   6  14
ATOM     14  N   UNL     1       1.082   9.495  19.627  0.00  0.00    +0.000 N 
ATOM     15  C   UNL     1       1.796   8.982  18.551  0.00  0.00    +0.000 C 
ATOM     16  O   UNL     1       2.073   9.586  17.515  0.00  0.00    +0.000 OA
ATOM     17  H   UNL     1       1.075   8.943  20.483  0.00  0.00    +0.000 HD
BRANCH  15  18
ATOM     18  C   UNL     1       2.342   7.601  18.719  0.00  0.00    +0.000 A 
ATOM     19  C   UNL     1       3.214   7.117  17.752  0.00  0.00    +0.000 A 
ATOM     20  C   UNL     1       3.741   5.845  17.914  0.00  0.00    +0.000 A 
ATOM     21  C   UNL     1       3.323   5.064  18.993  0.00  0.00    +0.000 A 
ATOM     22  C   UNL     1       3.775   3.742  19.137  0.00  0.00    +0.000 A 
ATOM     23  C   UNL     1       3.301   2.950  20.179  0.00  0.00    +0.000 A 
ATOM     24  C   UNL     1       2.393   3.485  21.087  0.00  0.00    +0.000 A 
ATOM     25  C   UNL     1       1.967   4.811  20.952  0.00  0.00    +0.000 A 
ATOM     26  C   UNL     1       2.407   5.625  19.916  0.00  0.00    +0.000 A 
ATOM     27  N   UNL     1       1.949   6.891  19.811  0.00  0.00    +0.000 NA
ENDBRANCH  15  18
ENDBRANCH   6  14
BRANCH   1  29
ATOM     28  C   UNL     1      -1.771  10.071  17.316  0.00  0.00    +0.000 C 
ATOM     29  O   UNL     1      -1.473   9.970  18.710  0.00  0.00    +0.000 OA
ENDBRANCH   1  29
TORSDOF 4
ENDMDL
MODEL 9
REMARK VINA RESULT:      -7.9      1.592      2.219
REMARK  Name = 
REMARK  5 active torsions:
REMARK  status: ('A' for Active; 'I' for Inactive)
REMARK    1  A    between atoms: C_1  and  O_2
REMARK    2  A    between atoms: O_2  and  C_3
REMARK    3  A    between atoms: C_6  and  C_7
REMARK    4  A    between atoms: C_15  and  N_16
REMARK    5  A    between atoms: C_17  and  C_19
REMARK                            x       y       z     vdW  Elec       q    Type
REMARK                         _______ _______ _______ _____ _____    ______ ____
ROOT
ATOM      1  C   UNL     1       3.009   4.982  19.749  0.00  0.00    +0.000 A 
ATOM      2  C   UNL     1       3.904   3.912  19.563  0.00  0.00    +0.000 A 
ATOM      3  C   UNL     1       4.986   4.030  18.693  0.00  0.00    +0.000 A 
ATOM      4  C   UNL     1       5.187   5.218  17.995  0.00  0.00    +0.000 A 
ATOM      5  C   UNL     1       4.318   6.290  18.193  0.00  0.00    +0.000 A 
ATOM      6  C   UNL     1       3.197   6.176  19.019  0.00  0.00    +0.000 A 
ENDROOT
BRANCH   4   7
ATOM      7  C   UNL     1       6.382   5.344  17.114  0.00  0.00    +0.000 C 
ATOM      8  O   UNL     1       7.442   5.666  17.640  0.00  0.00    +0.000 OA
ATOM      9  N   UNL     1       6.265   5.074  15.764  0.00  0.00    +0.000 N 
ATOM     10  C   UNL     1       5.142   4.513  15.036  0.00  0.00    +0.000 C 
ATOM     11  C   UNL     1       5.792   3.781  13.874  0.00  0.00    +0.000 C 
ATOM     12  C   UNL     1       7.007   4.644  13.554  0.00  0.00    +0.000 C 
ATOM     13  C   UNL     1       7.404   5.260  14.889  0.00  0.00    +0.000 C 
ENDBRANCH   4   7
BRANCH   6  14
ATOM     14  N   UNL     1       2.264   7.241  19.140  0.00  0.00    +0.000 N 
ATOM     15  C   UNL     1       2.163   8.323  18.274  0.00  0.00    +0.000 C 
ATOM     16  O   UNL     1       2.844   8.508  17.266  0.00  0.00    +0.000 OA
ATOM     17  H   UNL     1       1.527   7.132  19.834  0.00  0.00    +0.000 HD
BRANCH  15  18
ATOM     18  C   UNL     1       1.065   9.296  18.560  0.00  0.00    +0.000 A 
ATOM     19  C   UNL     1       1.178  10.099  19.688  0.00  0.00    +0.000 A 
ATOM     20  C   UNL     1       0.173  11.019  19.948  0.00  0.00    +0.000 A 
ATOM     21  C   UNL     1      -0.950  11.057  19.121  0.00  0.00    +0.000 A 
ATOM     22  C   UNL     1      -2.021  11.919  19.406  0.00  0.00    +0.000 A 
ATOM     23  C   UNL     1      -3.165  11.902  18.613  0.00  0.00    +0.000 A 
ATOM     24  C   UNL     1      -3.229  11.039  17.524  0.00  0.00    +0.000 A 
ATOM     25  C   UNL     1      -2.148  10.201  17.229  0.00  0.00    +0.000 A 
ATOM     26  C   UNL     1      -0.998  10.181  18.008  0.00  0.00    +0.000 A 
ATOM     27  N   UNL     1       0.011   9.338  17.701  0.00  0.00    +0.000 NA
ENDBRANCH  15  18
ENDBRANCH   6  14
BRANCH   1  29
ATOM     28  C   UNL     1       1.079   3.784  20.432  0.00  0.00    +0.000 C 
ATOM     29  O   UNL     1       1.926   4.924  20.594  0.00  0.00    +0.000 OA
ENDBRANCH   1  29
TORSDOF 4
ENDMDL
