MODEL 1
REMARK VINA RESULT:      -8.6      0.000      0.000
REMARK  Name = 
REMARK  7 active torsions:
REMARK  status: ('A' for Active; 'I' for Inactive)
REMARK    1  A    between atoms: C_1  and  C_2
REMARK    2  A    between atoms: C_2  and  C_3
REMARK    3  A    between atoms: N_7  and  C_8
REMARK    4  A    between atoms: C_12  and  N_13
REMARK    5  A    between atoms: N_20  and  C_21
REMARK    6  A    between atoms: C_21  and  C_22
REMARK    7  A    between atoms: C_29  and  C_30
REMARK                            x       y       z     vdW  Elec       q    Type
REMARK                         _______ _______ _______ _____ _____    ______ ____
ROOT
ATOM      1  N   UNL     1       1.519   8.231  19.535  0.00  0.00    +0.000 N 
ATOM      2  C   UNL     1       1.300   9.177  20.513  0.00  0.00    +0.000 C 
ATOM      3  O   UNL     1       1.536   8.986  21.707  0.00  0.00    +0.000 OA
ATOM      4  N   UNL     1       0.779  10.404  20.077  0.00  0.00    +0.000 N 
ATOM      5  C   UNL     1       0.374  10.719  18.704  0.00  0.00    +0.000 C 
ATOM      6  C   UNL     1      -1.090  10.378  18.490  0.00  0.00    +0.000 C 
ATOM      7  C   UNL     1      -2.032  11.534  18.837  0.00  0.00    +0.000 C 
ATOM      8  N   UNL     1      -1.773  12.286  20.069  0.00  0.00    +0.000 NA
ATOM      9  C   UNL     1      -1.222  11.506  21.184  0.00  0.00    +0.000 C 
ATOM     10  C   UNL     1       0.327  11.349  21.125  0.00  0.00    +0.000 C 
ATOM     11  C   UNL     1       1.048  12.699  21.033  0.00  0.00    +0.000 C 
ATOM     12  H   UNL     1       1.485   8.534  18.580  0.00  0.00    +0.000 HD
ENDROOT
BRANCH   1  17
ATOM     13  C   UNL     1       3.491   5.145  18.866  0.00  0.00    +0.000 A 
ATOM     14  C   UNL     1       3.154   4.374  19.983  0.00  0.00    +0.000 A 
ATOM     15  C   UNL     1       2.276   4.858  20.951  0.00  0.00    +0.000 A 
ATOM     16  C   UNL     1       1.712   6.124  20.817  0.00  0.00    +0.000 A 
ATOM     17  C   UNL     1       2.026   6.922  19.720  0.00  0.00    +0.000 A 
ATOM     18  C   UNL     1       2.896   6.413  18.738  0.00  0.00    +0.000 A 
BRANCH  13  23
ATOM     19  C   UNL     1       6.441   4.387  16.699  0.00  0.00    +0.000 C 
ATOM     20  N   UNL     1       5.507   3.328  16.472  0.00  0.00    +0.000 N 
ATOM     21  C   UNL     1       4.402   3.444  17.285  0.00  0.00    +0.000 C 
ATOM     22  O   UNL     1       3.564   2.555  17.350  0.00  0.00    +0.000 OA
ATOM     23  N   UNL     1       4.445   4.669  17.924  0.00  0.00    +0.000 N 
ATOM     24  C   UNL     1       5.617   5.320  17.588  0.00  0.00    +0.000 C 
ATOM     25  O   UNL     1       6.026   6.411  17.967  0.00  0.00    +0.000 OA
ATOM     26  H   UNL     1       5.716   2.432  16.049  0.00  0.00    +0.000 HD
BRANCH  19  28
ATOM     27  C   UNL     1       6.507   4.392  14.143  0.00  0.00    +0.000 C 
ATOM     28  C   UNL     1       6.977   5.045  15.437  0.00  0.00    +0.000 C 
ENDBRANCH  19  28
ENDBRANCH  13  23
ENDBRANCH   1  17
BRANCH   8  29
ATOM     29  C   UNL     1      -2.895  13.165  20.455  0.00  0.00    +0.000 C 
BRANCH  29  30
ATOM     30  C   UNL     1      -3.030  13.458  21.935  0.00  0.00    +0.000 A 
ATOM     31  C   UNL     1      -3.945  12.754  22.730  0.00  0.00    +0.000 A 
ATOM     32  C   UNL     1      -4.126  13.093  24.072  0.00  0.00    +0.000 A 
ATOM     33  C   UNL     1      -3.384  14.129  24.639  0.00  0.00    +0.000 A 
ATOM     34  C   UNL     1      -2.447  14.814  23.868  0.00  0.00    +0.000 A 
ATOM     35  C   UNL     1      -2.264  14.473  22.528  0.00  0.00    +0.000 A 
ENDBRANCH  29  30
ENDBRANCH   8  29
TORSDOF 5
ENDMDL
MODEL 2
REMARK VINA RESULT:      -8.5      1.060      1.559
REMARK  Name = 
REMARK  7 active torsions:
REMARK  status: ('A' for Active; 'I' for Inactive)
REMARK    1  A    between atoms: C_1  and  C_2
REMARK    2  A    between atoms: C_2  and  C_3
REMARK    3  A    between atoms: N_7  and  C_8
REMARK    4  A    between atoms: C_12  and  N_13
REMARK    5  A    between atoms: N_20  and  C_21
REMARK    6  A    between atoms: C_21  and  C_22
REMARK    7  A    between atoms: C_29  and  C_30
REMARK                            x       y       z     vdW  Elec       q    Type
REMARK                         _______ _______ _______ _____ _____    ______ ____
ROOT
ATOM      1  N   UNL     1       1.559   8.452  19.512  0.00  0.00    +0.000 N 
ATOM      2  C   UNL     1       1.247   9.330  20.527  0.00  0.00    +0.000 C 
ATOM      3  O   UNL     1       1.469   9.100  21.716  0.00  0.00    +0.000 OA
ATOM      4  N   UNL     1       0.644  10.534  20.134  0.00  0.00    +0.000 N 
ATOM      5  C   UNL     1       0.248  10.883  18.766  0.00  0.00    +0.000 C 
ATOM      6  C   UNL     1      -1.180  10.444  18.498  0.00  0.00    +0.000 C 
ATOM      7  C   UNL     1      -2.216  11.508  18.873  0.00  0.00    +0.000 C 
ATOM      8  N   UNL     1      -2.044  12.218  20.145  0.00  0.00    +0.000 NA
ATOM      9  C   UNL     1      -1.461  11.429  21.237  0.00  0.00    +0.000 C 
ATOM     10  C   UNL     1       0.096  11.391  21.212  0.00  0.00    +0.000 C 
ATOM     11  C   UNL     1       0.715  12.794  21.202  0.00  0.00    +0.000 C 
ATOM     12  H   UNL     1       1.525   8.796  18.572  0.00  0.00    +0.000 HD
ENDROOT
BRANCH   1  17
ATOM     13  C   UNL     1       3.998   5.687  18.989  0.00  0.00    +0.000 A 
ATOM     14  C   UNL     1       3.489   4.722  19.863  0.00  0.00    +0.000 A 
ATOM     15  C   UNL     1       2.344   4.971  20.618  0.00  0.00    +0.000 A 
ATOM     16  C   UNL     1       1.681   6.190  20.508  0.00  0.00    +0.000 A 
ATOM     17  C   UNL     1       2.160   7.177  19.649  0.00  0.00    +0.000 A 
ATOM     18  C   UNL     1       3.304   6.905  18.876  0.00  0.00    +0.000 A 
BRANCH  13  23
ATOM     19  C   UNL     1       6.818   5.347  16.560  0.00  0.00    +0.000 C 
ATOM     20  N   UNL     1       7.385   5.110  17.851  0.00  0.00    +0.000 N 
ATOM     21  C   UNL     1       6.458   5.295  18.852  0.00  0.00    +0.000 C 
ATOM     22  O   UNL     1       6.785   5.290  20.030  0.00  0.00    +0.000 OA
ATOM     23  N   UNL     1       5.209   5.450  18.280  0.00  0.00    +0.000 N 
ATOM     24  C   UNL     1       5.331   5.444  16.904  0.00  0.00    +0.000 C 
ATOM     25  O   UNL     1       4.459   5.577  16.054  0.00  0.00    +0.000 OA
ATOM     26  H   UNL     1       8.371   5.136  18.081  0.00  0.00    +0.000 HD
BRANCH  19  28
ATOM     27  C   UNL     1       6.983   4.759  14.077  0.00  0.00    +0.000 C 
ATOM     28  C   UNL     1       7.146   4.289  15.516  0.00  0.00    +0.000 C 
ENDBRANCH  19  28
ENDBRANCH  13  23
ENDBRANCH   1  17
BRANCH   8  29
ATOM     29  C   UNL     1      -3.238  12.990  20.541  0.00  0.00    +0.000 C 
BRANCH  29  30
ATOM     30  C   UNL     1      -3.277  13.460  21.980  0.00  0.00    +0.000 A 
ATOM     31  C   UNL     1      -2.461  14.511  22.420  0.00  0.00    +0.000 A 
ATOM     32  C   UNL     1      -2.439  14.876  23.766  0.00  0.00    +0.000 A 
ATOM     33  C   UNL     1      -3.242  14.205  24.688  0.00  0.00    +0.000 A 
ATOM     34  C   UNL     1      -4.083  13.181  24.258  0.00  0.00    +0.000 A 
ATOM     35  C   UNL     1      -4.108  12.819  22.911  0.00  0.00    +0.000 A 
ENDBRANCH  29  30
ENDBRANCH   8  29
TORSDOF 5
ENDMDL
MODEL 3
REMARK VINA RESULT:      -8.4      1.240      1.904
REMARK  Name = 
REMARK  7 active torsions:
REMARK  status: ('A' for Active; 'I' for Inactive)
REMARK    1  A    between atoms: C_1  and  C_2
REMARK    2  A    between atoms: C_2  and  C_3
REMARK    3  A    between atoms: N_7  and  C_8
REMARK    4  A    between atoms: C_12  and  N_13
REMARK    5  A    between atoms: N_20  and  C_21
REMARK    6  A    between atoms: C_21  and  C_22
REMARK    7  A    between atoms: C_29  and  C_30
REMARK                            x       y       z     vdW  Elec       q    Type
REMARK                         _______ _______ _______ _____ _____    ______ ____
ROOT
ATOM      1  N   UNL     1       1.587   8.367  19.545  0.00  0.00    +0.000 N 
ATOM      2  C   UNL     1       1.275   9.272  20.536  0.00  0.00    +0.000 C 
ATOM      3  O   UNL     1       1.354   9.016  21.738  0.00  0.00    +0.000 OA
ATOM      4  N   UNL     1       0.850  10.536  20.103  0.00  0.00    +0.000 N 
ATOM      5  C   UNL     1       0.630  10.931  18.708  0.00  0.00    +0.000 C 
ATOM      6  C   UNL     1      -0.805  10.653  18.297  0.00  0.00    +0.000 C 
ATOM      7  C   UNL     1      -1.749  11.824  18.584  0.00  0.00    +0.000 C 
ATOM      8  N   UNL     1      -1.625  12.507  19.876  0.00  0.00    +0.000 NA
ATOM      9  C   UNL     1      -1.241  11.656  21.009  0.00  0.00    +0.000 C 
ATOM     10  C   UNL     1       0.297  11.446  21.134  0.00  0.00    +0.000 C 
ATOM     11  C   UNL     1       1.064  12.772  21.203  0.00  0.00    +0.000 C 
ATOM     12  H   UNL     1       1.683   8.716  18.610  0.00  0.00    +0.000 HD
ENDROOT
BRANCH   1  17
ATOM     13  C   UNL     1       3.440   5.205  18.887  0.00  0.00    +0.000 A 
ATOM     14  C   UNL     1       3.031   4.432  19.978  0.00  0.00    +0.000 A 
ATOM     15  C   UNL     1       2.143   4.940  20.924  0.00  0.00    +0.000 A 
ATOM     16  C   UNL     1       1.641   6.233  20.794  0.00  0.00    +0.000 A 
ATOM     17  C   UNL     1       2.028   7.033  19.722  0.00  0.00    +0.000 A 
ATOM     18  C   UNL     1       2.908   6.501  18.761  0.00  0.00    +0.000 A 
BRANCH  13  23
ATOM     19  C   UNL     1       6.412   4.382  16.775  0.00  0.00    +0.000 C 
ATOM     20  N   UNL     1       5.478   3.320  16.565  0.00  0.00    +0.000 N 
ATOM     21  C   UNL     1       4.364   3.460  17.362  0.00  0.00    +0.000 C 
ATOM     22  O   UNL     1       3.524   2.576  17.441  0.00  0.00    +0.000 OA
ATOM     23  N   UNL     1       4.404   4.702  17.969  0.00  0.00    +0.000 N 
ATOM     24  C   UNL     1       5.581   5.341  17.629  0.00  0.00    +0.000 C 
ATOM     25  O   UNL     1       5.989   6.440  17.983  0.00  0.00    +0.000 OA
ATOM     26  H   UNL     1       5.690   2.413  16.168  0.00  0.00    +0.000 HD
BRANCH  19  28
ATOM     27  C   UNL     1       6.335   4.472  14.221  0.00  0.00    +0.000 C 
ATOM     28  C   UNL     1       6.965   5.005  15.501  0.00  0.00    +0.000 C 
ENDBRANCH  19  28
ENDBRANCH  13  23
ENDBRANCH   1  17
BRANCH   8  29
ATOM     29  C   UNL     1      -2.760  13.406  20.164  0.00  0.00    +0.000 C 
BRANCH  29  30
ATOM     30  C   UNL     1      -4.120  12.747  20.262  0.00  0.00    +0.000 A 
ATOM     31  C   UNL     1      -4.704  12.126  19.149  0.00  0.00    +0.000 A 
ATOM     32  C   UNL     1      -5.995  11.602  19.225  0.00  0.00    +0.000 A 
ATOM     33  C   UNL     1      -6.713  11.678  20.418  0.00  0.00    +0.000 A 
ATOM     34  C   UNL     1      -6.131  12.261  21.541  0.00  0.00    +0.000 A 
ATOM     35  C   UNL     1      -4.839  12.783  21.466  0.00  0.00    +0.000 A 
ENDBRANCH  29  30
ENDBRANCH   8  29
TORSDOF 5
ENDMDL
MODEL 4
REMARK VINA RESULT:      -8.3      1.176      1.288
REMARK  Name = 
REMARK  7 active torsions:
REMARK  status: ('A' for Active; 'I' for Inactive)
REMARK    1  A    between atoms: C_1  and  C_2
REMARK    2  A    between atoms: C_2  and  C_3
REMARK    3  A    between atoms: N_7  and  C_8
REMARK    4  A    between atoms: C_12  and  N_13
REMARK    5  A    between atoms: N_20  and  C_21
REMARK    6  A    between atoms: C_21  and  C_22
REMARK    7  A    between atoms: C_29  and  C_30
REMARK                            x       y       z     vdW  Elec       q    Type
REMARK                         _______ _______ _______ _____ _____    ______ ____
ROOT
ATOM      1  N   UNL     1       1.803   8.314  19.071  0.00  0.00    +0.000 N 
ATOM      2  C   UNL     1       1.485   9.114  20.147  0.00  0.00    +0.000 C 
ATOM      3  O   UNL     1       1.718   8.803  21.316  0.00  0.00    +0.000 OA
ATOM      4  N   UNL     1       0.863  10.333  19.844  0.00  0.00    +0.000 N 
ATOM      5  C   UNL     1       0.454  10.774  18.507  0.00  0.00    +0.000 C 
ATOM      6  C   UNL     1      -0.970  10.335  18.215  0.00  0.00    +0.000 C 
ATOM      7  C   UNL     1      -2.017  11.354  18.670  0.00  0.00    +0.000 C 
ATOM      8  N   UNL     1      -1.847  11.974  19.988  0.00  0.00    +0.000 NA
ATOM      9  C   UNL     1      -1.247  11.118  21.019  0.00  0.00    +0.000 C 
ATOM     10  C   UNL     1       0.311  11.104  20.983  0.00  0.00    +0.000 C 
ATOM     11  C   UNL     1       0.909  12.513  21.070  0.00  0.00    +0.000 C 
ATOM     12  H   UNL     1       1.758   8.724  18.158  0.00  0.00    +0.000 HD
ENDROOT
BRANCH   1  17
ATOM     13  C   UNL     1       4.231   5.604  18.278  0.00  0.00    +0.000 A 
ATOM     14  C   UNL     1       3.784   4.595  19.137  0.00  0.00    +0.000 A 
ATOM     15  C   UNL     1       2.684   4.796  19.969  0.00  0.00    +0.000 A 
ATOM     16  C   UNL     1       2.005   6.012  19.955  0.00  0.00    +0.000 A 
ATOM     17  C   UNL     1       2.422   7.041  19.114  0.00  0.00    +0.000 A 
ATOM     18  C   UNL     1       3.520   6.818  18.262  0.00  0.00    +0.000 A 
BRANCH  13  23
ATOM     19  C   UNL     1       7.008   5.617  15.777  0.00  0.00    +0.000 C 
ATOM     20  N   UNL     1       7.491   4.864  16.892  0.00  0.00    +0.000 N 
ATOM     21  C   UNL     1       6.585   4.858  17.930  0.00  0.00    +0.000 C 
ATOM     22  O   UNL     1       6.876   4.398  19.025  0.00  0.00    +0.000 OA
ATOM     23  N   UNL     1       5.398   5.412  17.488  0.00  0.00    +0.000 N 
ATOM     24  C   UNL     1       5.553   5.851  16.187  0.00  0.00    +0.000 C 
ATOM     25  O   UNL     1       4.741   6.413  15.463  0.00  0.00    +0.000 OA
ATOM     26  H   UNL     1       8.460   4.638  17.082  0.00  0.00    +0.000 HD
BRANCH  19  28
ATOM     27  C   UNL     1       6.176   3.811  14.172  0.00  0.00    +0.000 C 
ATOM     28  C   UNL     1       7.172   4.934  14.428  0.00  0.00    +0.000 C 
ENDBRANCH  19  28
ENDBRANCH  13  23
ENDBRANCH   1  17
BRANCH   8  29
ATOM     29  C   UNL     1      -3.049  12.699  20.444  0.00  0.00    +0.000 C 
BRANCH  29  30
ATOM     30  C   UNL     1      -3.013  13.215  21.868  0.00  0.00    +0.000 A 
ATOM     31  C   UNL     1      -3.823  12.650  22.862  0.00  0.00    +0.000 A 
ATOM     32  C   UNL     1      -3.849  13.190  24.149  0.00  0.00    +0.000 A 
ATOM     33  C   UNL     1      -3.055  14.294  24.461  0.00  0.00    +0.000 A 
ATOM     34  C   UNL     1      -2.220  14.844  23.492  0.00  0.00    +0.000 A 
ATOM     35  C   UNL     1      -2.191  14.301  22.207  0.00  0.00    +0.000 A 
ENDBRANCH  29  30
ENDBRANCH   8  29
TORSDOF 5
ENDMDL
MODEL 5
REMARK VINA RESULT:      -8.1      1.845      2.576
REMARK  Name = 
REMARK  7 active torsions:
REMARK  status: ('A' for Active; 'I' for Inactive)
REMARK    1  A    between atoms: C_1  and  C_2
REMARK    2  A    between atoms: C_2  and  C_3
REMARK    3  A    between atoms: N_7  and  C_8
REMARK    4  A    between atoms: C_12  and  N_13
REMARK    5  A    between atoms: N_20  and  C_21
REMARK    6  A    between atoms: C_21  and  C_22
REMARK    7  A    between atoms: C_29  and  C_30
REMARK                            x       y       z     vdW  Elec       q    Type
REMARK                         _______ _______ _______ _____ _____    ______ ____
ROOT
ATOM      1  N   UNL     1       1.461   8.725  19.466  0.00  0.00    +0.000 N 
ATOM      2  C   UNL     1       1.105   9.581  20.486  0.00  0.00    +0.000 C 
ATOM      3  O   UNL     1       1.277   9.325  21.678  0.00  0.00    +0.000 OA
ATOM      4  N   UNL     1       0.518  10.793  20.094  0.00  0.00    +0.000 N 
ATOM      5  C   UNL     1       0.179  11.172  18.719  0.00  0.00    +0.000 C 
ATOM      6  C   UNL     1      -1.236  10.739  18.382  0.00  0.00    +0.000 C 
ATOM      7  C   UNL     1      -2.287  11.794  18.736  0.00  0.00    +0.000 C 
ATOM      8  N   UNL     1      -2.170  12.476  20.029  0.00  0.00    +0.000 NA
ATOM      9  C   UNL     1      -1.632  11.663  21.128  0.00  0.00    +0.000 C 
ATOM     10  C   UNL     1      -0.075  11.626  21.167  0.00  0.00    +0.000 C 
ATOM     11  C   UNL     1       0.541  13.030  21.213  0.00  0.00    +0.000 C 
ATOM     12  H   UNL     1       1.466   9.090  18.533  0.00  0.00    +0.000 HD
ENDROOT
BRANCH   1  17
ATOM     13  C   UNL     1       3.893   5.955  18.941  0.00  0.00    +0.000 A 
ATOM     14  C   UNL     1       3.377   4.988  19.809  0.00  0.00    +0.000 A 
ATOM     15  C   UNL     1       2.230   5.237  20.561  0.00  0.00    +0.000 A 
ATOM     16  C   UNL     1       1.571   6.459  20.453  0.00  0.00    +0.000 A 
ATOM     17  C   UNL     1       2.056   7.448  19.601  0.00  0.00    +0.000 A 
ATOM     18  C   UNL     1       3.203   7.175  18.831  0.00  0.00    +0.000 A 
BRANCH  13  23
ATOM     19  C   UNL     1       6.804   5.797  16.603  0.00  0.00    +0.000 C 
ATOM     20  N   UNL     1       7.237   5.159  17.808  0.00  0.00    +0.000 N 
ATOM     21  C   UNL     1       6.275   5.229  18.791  0.00  0.00    +0.000 C 
ATOM     22  O   UNL     1       6.512   4.879  19.938  0.00  0.00    +0.000 OA
ATOM     23  N   UNL     1       5.105   5.716  18.236  0.00  0.00    +0.000 N 
ATOM     24  C   UNL     1       5.325   6.036  16.911  0.00  0.00    +0.000 C 
ATOM     25  O   UNL     1       4.545   6.512  16.095  0.00  0.00    +0.000 OA
ATOM     26  H   UNL     1       8.197   4.972  18.069  0.00  0.00    +0.000 HD
BRANCH  19  28
ATOM     27  C   UNL     1       6.156   3.775  15.179  0.00  0.00    +0.000 C 
ATOM     28  C   UNL     1       7.053   4.996  15.334  0.00  0.00    +0.000 C 
ENDBRANCH  19  28
ENDBRANCH  13  23
ENDBRANCH   1  17
BRANCH   8  29
ATOM     29  C   UNL     1      -3.380  13.239  20.391  0.00  0.00    +0.000 C 
BRANCH  29  30
ATOM     30  C   UNL     1      -4.703  12.554  20.119  0.00  0.00    +0.000 A 
ATOM     31  C   UNL     1      -5.066  12.172  18.820  0.00  0.00    +0.000 A 
ATOM     32  C   UNL     1      -6.324  11.624  18.567  0.00  0.00    +0.000 A 
ATOM     33  C   UNL     1      -7.229  11.437  19.611  0.00  0.00    +0.000 A 
ATOM     34  C   UNL     1      -6.869  11.780  20.912  0.00  0.00    +0.000 A 
ATOM     35  C   UNL     1      -5.610  12.324  21.166  0.00  0.00    +0.000 A 
ENDBRANCH  29  30
ENDBRANCH   8  29
TORSDOF 5
ENDMDL
MODEL 6
REMARK VINA RESULT:      -8.1      1.579      2.228
REMARK  Name = 
REMARK  7 active torsions:
REMARK  status: ('A' for Active; 'I' for Inactive)
REMARK    1  A    between atoms: C_1  and  C_2
REMARK    2  A    between atoms: C_2  and  C_3
REMARK    3  A    between atoms: N_7  and  C_8
REMARK    4  A    between atoms: C_12  and  N_13
REMARK    5  A    between atoms: N_20  and  C_21
REMARK    6  A    between atoms: C_21  and  C_22
REMARK    7  A    between atoms: C_29  and  C_30
REMARK                            x       y       z     vdW  Elec       q    Type
REMARK                         _______ _______ _______ _____ _____    ______ ____
ROOT
ATOM      1  N   UNL     1       1.410   8.621  19.656  0.00  0.00    +0.000 N 
ATOM      2  C   UNL     1       1.030   9.494  20.653  0.00  0.00    +0.000 C 
ATOM      3  O   UNL     1       1.075   9.216  21.851  0.00  0.00    +0.000 OA
ATOM      4  N   UNL     1       0.576  10.751  20.228  0.00  0.00    +0.000 N 
ATOM      5  C   UNL     1       0.392  11.166  18.834  0.00  0.00    +0.000 C 
ATOM      6  C   UNL     1      -1.016  10.846  18.365  0.00  0.00    +0.000 C 
ATOM      7  C   UNL     1      -2.011  11.977  18.640  0.00  0.00    +0.000 C 
ATOM      8  N   UNL     1      -1.958  12.637  19.948  0.00  0.00    +0.000 NA
ATOM      9  C   UNL     1      -1.586  11.777  21.078  0.00  0.00    +0.000 C 
ATOM     10  C   UNL     1      -0.046  11.619  21.255  0.00  0.00    +0.000 C 
ATOM     11  C   UNL     1       0.669  12.970  21.377  0.00  0.00    +0.000 C 
ATOM     12  H   UNL     1       1.527   8.992  18.732  0.00  0.00    +0.000 HD
ENDROOT
BRANCH   1  17
ATOM     13  C   UNL     1       3.569   5.625  19.180  0.00  0.00    +0.000 A 
ATOM     14  C   UNL     1       2.990   4.739  20.095  0.00  0.00    +0.000 A 
ATOM     15  C   UNL     1       1.889   5.117  20.861  0.00  0.00    +0.000 A 
ATOM     16  C   UNL     1       1.340   6.390  20.723  0.00  0.00    +0.000 A 
ATOM     17  C   UNL     1       1.891   7.300  19.824  0.00  0.00    +0.000 A 
ATOM     18  C   UNL     1       2.989   6.898  19.040  0.00  0.00    +0.000 A 
BRANCH  13  23
ATOM     19  C   UNL     1       6.633   5.341  17.059  0.00  0.00    +0.000 C 
ATOM     20  N   UNL     1       6.597   4.152  17.853  0.00  0.00    +0.000 N 
ATOM     21  C   UNL     1       5.552   4.174  18.750  0.00  0.00    +0.000 C 
ATOM     22  O   UNL     1       5.443   3.322  19.620  0.00  0.00    +0.000 OA
ATOM     23  N   UNL     1       4.737   5.253  18.459  0.00  0.00    +0.000 N 
ATOM     24  C   UNL     1       5.291   5.979  17.422  0.00  0.00    +0.000 C 
ATOM     25  O   UNL     1       4.879   7.007  16.898  0.00  0.00    +0.000 OA
ATOM     26  H   UNL     1       7.373   3.522  18.014  0.00  0.00    +0.000 HD
BRANCH  19  28
ATOM     27  C   UNL     1       5.825   4.133  14.955  0.00  0.00    +0.000 C 
ATOM     28  C   UNL     1       6.825   5.105  15.568  0.00  0.00    +0.000 C 
ENDBRANCH  19  28
ENDBRANCH  13  23
ENDBRANCH   1  17
BRANCH   8  29
ATOM     29  C   UNL     1      -3.134  13.490  20.212  0.00  0.00    +0.000 C 
BRANCH  29  30
ATOM     30  C   UNL     1      -4.478  12.790  20.197  0.00  0.00    +0.000 A 
ATOM     31  C   UNL     1      -5.286  12.754  21.341  0.00  0.00    +0.000 A 
ATOM     32  C   UNL     1      -6.480  12.031  21.344  0.00  0.00    +0.000 A 
ATOM     33  C   UNL     1      -6.887  11.347  20.199  0.00  0.00    +0.000 A 
ATOM     34  C   UNL     1      -6.110  11.403  19.044  0.00  0.00    +0.000 A 
ATOM     35  C   UNL     1      -4.919  12.129  19.041  0.00  0.00    +0.000 A 
ENDBRANCH  29  30
ENDBRANCH   8  29
TORSDOF 5
ENDMDL
MODEL 7
REMARK VINA RESULT:      -8.1      4.425      9.872
REMARK  Name = 
REMARK  7 active torsions:
REMARK  status: ('A' for Active; 'I' for Inactive)
REMARK    1  A    between atoms: C_1  and  C_2
REMARK    2  A    between atoms: C_2  and  C_3
REMARK    3  A    between atoms: N_7  and  C_8
REMARK    4  A    between atoms: C_12  and  N_13
REMARK    5  A    between atoms: N_20  and  C_21
REMARK    6  A    between atoms: C_21  and  C_22
REMARK    7  A    between atoms: C_29  and  C_30
REMARK                            x       y       z     vdW  Elec       q    Type
REMARK                         _______ _______ _______ _____ _____    ______ ____
ROOT
ATOM      1  N   UNL     1       0.620  12.602  19.036  0.00  0.00    +0.000 N 
ATOM      2  C   UNL     1       0.688  11.743  20.111  0.00  0.00    +0.000 C 
ATOM      3  O   UNL     1       0.877  12.118  21.268  0.00  0.00    +0.000 OA
ATOM      4  N   UNL     1       0.529  10.380  19.820  0.00  0.00    +0.000 N 
ATOM      5  C   UNL     1       0.389   9.805  18.478  0.00  0.00    +0.000 C 
ATOM      6  C   UNL     1       1.749   9.446  17.909  0.00  0.00    +0.000 C 
ATOM      7  C   UNL     1       2.196   8.027  18.271  0.00  0.00    +0.000 C 
ATOM      8  N   UNL     1       1.993   7.572  19.650  0.00  0.00    +0.000 NA
ATOM      9  C   UNL     1       2.125   8.605  20.685  0.00  0.00    +0.000 C 
ATOM     10  C   UNL     1       0.820   9.424  20.914  0.00  0.00    +0.000 C 
ATOM     11  C   UNL     1      -0.383   8.527  21.231  0.00  0.00    +0.000 C 
ATOM     12  H   UNL     1       0.272  12.237  18.170  0.00  0.00    +0.000 HD
ENDROOT
BRANCH   1  17
ATOM     13  C   UNL     1       2.277  15.923  19.334  0.00  0.00    +0.000 A 
ATOM     14  C   UNL     1       1.194  16.776  19.096  0.00  0.00    +0.000 A 
ATOM     15  C   UNL     1      -0.079  16.267  18.846  0.00  0.00    +0.000 A 
ATOM     16  C   UNL     1      -0.296  14.892  18.836  0.00  0.00    +0.000 A 
ATOM     17  C   UNL     1       0.758  14.011  19.067  0.00  0.00    +0.000 A 
ATOM     18  C   UNL     1       2.034  14.538  19.340  0.00  0.00    +0.000 A 
BRANCH  13  23
ATOM     19  C   UNL     1       5.814  17.110  19.113  0.00  0.00    +0.000 C 
ATOM     20  N   UNL     1       5.289  17.670  20.319  0.00  0.00    +0.000 N 
ATOM     21  C   UNL     1       3.953  17.377  20.474  0.00  0.00    +0.000 C 
ATOM     22  O   UNL     1       3.287  17.893  21.361  0.00  0.00    +0.000 OA
ATOM     23  N   UNL     1       3.585  16.453  19.513  0.00  0.00    +0.000 N 
ATOM     24  C   UNL     1       4.660  16.202  18.684  0.00  0.00    +0.000 C 
ATOM     25  O   UNL     1       4.723  15.464  17.708  0.00  0.00    +0.000 OA
ATOM     26  H   UNL     1       5.688  18.443  20.838  0.00  0.00    +0.000 HD
BRANCH  19  28
ATOM     27  C   UNL     1       8.191  16.773  18.233  0.00  0.00    +0.000 C 
ATOM     28  C   UNL     1       7.145  16.389  19.272  0.00  0.00    +0.000 C 
ENDBRANCH  19  28
ENDBRANCH  13  23
ENDBRANCH   1  17
BRANCH   8  29
ATOM     29  C   UNL     1       2.720   6.325  19.959  0.00  0.00    +0.000 C 
BRANCH  29  30
ATOM     30  C   UNL     1       2.026   5.037  19.564  0.00  0.00    +0.000 A 
ATOM     31  C   UNL     1       1.241   4.328  20.483  0.00  0.00    +0.000 A 
ATOM     32  C   UNL     1       0.681   3.098  20.138  0.00  0.00    +0.000 A 
ATOM     33  C   UNL     1       0.886   2.568  18.864  0.00  0.00    +0.000 A 
ATOM     34  C   UNL     1       1.635   3.279  17.929  0.00  0.00    +0.000 A 
ATOM     35  C   UNL     1       2.192   4.511  18.274  0.00  0.00    +0.000 A 
ENDBRANCH  29  30
ENDBRANCH   8  29
TORSDOF 5
ENDMDL
MODEL 8
REMARK VINA RESULT:      -8.1      1.615      2.484
REMARK  Name = 
REMARK  7 active torsions:
REMARK  status: ('A' for Active; 'I' for Inactive)
REMARK    1  A    between atoms: C_1  and  C_2
REMARK    2  A    between atoms: C_2  and  C_3
REMARK    3  A    between atoms: N_7  and  C_8
REMARK    4  A    between atoms: C_12  and  N_13
REMARK    5  A    between atoms: N_20  and  C_21
REMARK    6  A    between atoms: C_21  and  C_22
REMARK    7  A    between atoms: C_29  and  C_30
REMARK                            x       y       z     vdW  Elec       q    Type
REMARK                         _______ _______ _______ _____ _____    ______ ____
ROOT
ATOM      1  N   UNL     1       1.303   6.767  20.643  0.00  0.00    +0.000 N 
ATOM      2  C   UNL     1       1.287   7.985  19.999  0.00  0.00    +0.000 C 
ATOM      3  O   UNL     1       2.082   8.294  19.111  0.00  0.00    +0.000 OA
ATOM      4  N   UNL     1       0.296   8.886  20.415  0.00  0.00    +0.000 N 
ATOM      5  C   UNL     1      -0.645   8.671  21.518  0.00  0.00    +0.000 C 
ATOM      6  C   UNL     1      -0.067   9.194  22.820  0.00  0.00    +0.000 C 
ATOM      7  C   UNL     1      -0.393  10.668  23.073  0.00  0.00    +0.000 C 
ATOM      8  N   UNL     1      -0.265  11.604  21.951  0.00  0.00    +0.000 NA
ATOM      9  C   UNL     1       0.809  11.304  20.995  0.00  0.00    +0.000 C 
ATOM     10  C   UNL     1       0.397  10.273  19.903  0.00  0.00    +0.000 C 
ATOM     11  C   UNL     1      -0.866  10.700  19.144  0.00  0.00    +0.000 C 
ATOM     12  H   UNL     1       0.509   6.528  21.207  0.00  0.00    +0.000 HD
ENDROOT
BRANCH   1  17
ATOM     13  C   UNL     1       4.245   4.937  19.279  0.00  0.00    +0.000 A 
ATOM     14  C   UNL     1       4.099   3.699  19.914  0.00  0.00    +0.000 A 
ATOM     15  C   UNL     1       3.035   3.460  20.782  0.00  0.00    +0.000 A 
ATOM     16  C   UNL     1       2.091   4.453  21.027  0.00  0.00    +0.000 A 
ATOM     17  C   UNL     1       2.204   5.699  20.414  0.00  0.00    +0.000 A 
ATOM     18  C   UNL     1       3.270   5.921  19.523  0.00  0.00    +0.000 A 
BRANCH  13  23
ATOM     19  C   UNL     1       6.719   5.837  16.626  0.00  0.00    +0.000 C 
ATOM     20  N   UNL     1       7.483   5.627  17.817  0.00  0.00    +0.000 N 
ATOM     21  C   UNL     1       6.672   5.372  18.900  0.00  0.00    +0.000 C 
ATOM     22  O   UNL     1       7.125   5.318  20.034  0.00  0.00    +0.000 OA
ATOM     23  N   UNL     1       5.375   5.193  18.454  0.00  0.00    +0.000 N 
ATOM     24  C   UNL     1       5.326   5.408  17.090  0.00  0.00    +0.000 C 
ATOM     25  O   UNL     1       4.359   5.365  16.340  0.00  0.00    +0.000 OA
ATOM     26  H   UNL     1       8.434   5.936  17.975  0.00  0.00    +0.000 HD
BRANCH  19  28
ATOM     27  C   UNL     1       6.458   3.807  15.094  0.00  0.00    +0.000 C 
ATOM     28  C   UNL     1       7.225   5.085  15.404  0.00  0.00    +0.000 C 
ENDBRANCH  19  28
ENDBRANCH  13  23
ENDBRANCH   1  17
BRANCH   8  29
ATOM     29  C   UNL     1      -0.310  13.018  22.371  0.00  0.00    +0.000 C 
BRANCH  29  30
ATOM     30  C   UNL     1      -1.621  13.494  22.960  0.00  0.00    +0.000 A 
ATOM     31  C   UNL     1      -1.647  14.330  24.085  0.00  0.00    +0.000 A 
ATOM     32  C   UNL     1      -2.860  14.689  24.675  0.00  0.00    +0.000 A 
ATOM     33  C   UNL     1      -4.062  14.230  24.138  0.00  0.00    +0.000 A 
ATOM     34  C   UNL     1      -4.053  13.427  23.000  0.00  0.00    +0.000 A 
ATOM     35  C   UNL     1      -2.840  13.071  22.409  0.00  0.00    +0.000 A 
ENDBRANCH  29  30
ENDBRANCH   8  29
TORSDOF 5
ENDMDL
MODEL 9
REMARK VINA RESULT:      -8.0      2.100      3.315
REMARK  Name = 
REMARK  7 active torsions:
REMARK  status: ('A' for Active; 'I' for Inactive)
REMARK    1  A    between atoms: C_1  and  C_2
REMARK    2  A    between atoms: C_2  and  C_3
REMARK    3  A    between atoms: N_7  and  C_8
REMARK    4  A    between atoms: C_12  and  N_13
REMARK    5  A    between atoms: N_20  and  C_21
REMARK    6  A    between atoms: C_21  and  C_22
REMARK    7  A    between atoms: C_29  and  C_30
REMARK                            x       y       z     vdW  Elec       q    Type
REMARK                         _______ _______ _______ _____ _____    ______ ____
ROOT
ATOM      1  N   UNL     1       1.280   6.729  20.607  0.00  0.00    +0.000 N 
ATOM      2  C   UNL     1       1.352   7.943  19.960  0.00  0.00    +0.000 C 
ATOM      3  O   UNL     1       2.212   8.214  19.121  0.00  0.00    +0.000 OA
ATOM      4  N   UNL     1       0.376   8.886  20.311  0.00  0.00    +0.000 N 
ATOM      5  C   UNL     1      -0.639   8.716  21.356  0.00  0.00    +0.000 C 
ATOM      6  C   UNL     1      -0.120   9.221  22.689  0.00  0.00    +0.000 C 
ATOM      7  C   UNL     1      -0.400  10.709  22.917  0.00  0.00    +0.000 C 
ATOM      8  N   UNL     1      -0.166  11.633  21.802  0.00  0.00    +0.000 NA
ATOM      9  C   UNL     1       0.951  11.285  20.914  0.00  0.00    +0.000 C 
ATOM     10  C   UNL     1       0.564  10.265  19.802  0.00  0.00    +0.000 C 
ATOM     11  C   UNL     1      -0.632  10.739  18.966  0.00  0.00    +0.000 C 
ATOM     12  H   UNL     1       0.444   6.526  21.123  0.00  0.00    +0.000 HD
ENDROOT
BRANCH   1  17
ATOM     13  C   UNL     1       4.156   4.736  19.333  0.00  0.00    +0.000 A 
ATOM     14  C   UNL     1       3.983   3.545  20.045  0.00  0.00    +0.000 A 
ATOM     15  C   UNL     1       2.922   3.390  20.936  0.00  0.00    +0.000 A 
ATOM     16  C   UNL     1       2.008   4.422  21.127  0.00  0.00    +0.000 A 
ATOM     17  C   UNL     1       2.149   5.624  20.437  0.00  0.00    +0.000 A 
ATOM     18  C   UNL     1       3.211   5.761  19.524  0.00  0.00    +0.000 A 
BRANCH  13  23
ATOM     19  C   UNL     1       6.620   5.305  16.581  0.00  0.00    +0.000 C 
ATOM     20  N   UNL     1       7.375   5.342  17.794  0.00  0.00    +0.000 N 
ATOM     21  C   UNL     1       6.562   5.231  18.900  0.00  0.00    +0.000 C 
ATOM     22  O   UNL     1       7.000   5.395  20.030  0.00  0.00    +0.000 OA
ATOM     23  N   UNL     1       5.284   4.910  18.483  0.00  0.00    +0.000 N 
ATOM     24  C   UNL     1       5.244   4.886  17.102  0.00  0.00    +0.000 C 
ATOM     25  O   UNL     1       4.292   4.665  16.364  0.00  0.00    +0.000 OA
ATOM     26  H   UNL     1       8.306   5.724  17.903  0.00  0.00    +0.000 HD
BRANCH  19  28
ATOM     27  C   UNL     1       6.748   4.738  14.091  0.00  0.00    +0.000 C 
ATOM     28  C   UNL     1       7.183   4.385  15.507  0.00  0.00    +0.000 C 
ENDBRANCH  19  28
ENDBRANCH  13  23
ENDBRANCH   1  17
BRANCH   8  29
ATOM     29  C   UNL     1      -0.179  13.050  22.214  0.00  0.00    +0.000 C 
BRANCH  29  30
ATOM     30  C   UNL     1       0.246  14.052  21.160  0.00  0.00    +0.000 A 
ATOM     31  C   UNL     1       1.455  14.752  21.274  0.00  0.00    +0.000 A 
ATOM     32  C   UNL     1       1.794  15.737  20.346  0.00  0.00    +0.000 A 
ATOM     33  C   UNL     1       0.937  16.024  19.284  0.00  0.00    +0.000 A 
ATOM     34  C   UNL     1      -0.251  15.311  19.139  0.00  0.00    +0.000 A 
ATOM     35  C   UNL     1      -0.589  14.324  20.065  0.00  0.00    +0.000 A 
ENDBRANCH  29  30
ENDBRANCH   8  29
TORSDOF 5
ENDMDL
