MODEL 1
REMARK VINA RESULT:      -8.9      0.000      0.000
REMARK  Name = 
REMARK  4 active torsions:
REMARK  status: ('A' for Active; 'I' for Inactive)
REMARK    1  A    between atoms: C_2  and  C_3
REMARK    2  A    between atoms: C_3  and  O_4
REMARK    3  A    between atoms: O_4  and  C_5
REMARK    4  A    between atoms: N_15  and  C_16
REMARK                            x       y       z     vdW  Elec       q    Type
REMARK                         _______ _______ _______ _____ _____    ______ ____
ROOT
ATOM      1  O   UNL     1       8.136   6.843  18.658  0.00  0.00    +0.000 OA
ATOM      2  C   UNL     1       7.664   7.669  17.878  0.00  0.00    +0.000 C 
ATOM      3  N   UNL     1       6.515   7.489  17.115  0.00  0.00    +0.000 N 
ATOM      4  H   UNL     1       6.380   8.129  16.342  0.00  0.00    +0.000 HD
ENDROOT
BRANCH   3   5
ATOM      5  C   UNL     1       5.655   6.367  17.184  0.00  0.00    +0.000 A 
ATOM      6  C   UNL     1       5.719   5.303  16.274  0.00  0.00    +0.000 A 
ATOM      7  C   UNL     1       4.794   4.255  16.318  0.00  0.00    +0.000 A 
ATOM      8  C   UNL     1       3.803   4.256  17.291  0.00  0.00    +0.000 A 
ATOM      9  N   UNL     1       2.843   3.242  17.302  0.00  0.00    +0.000 N 
ATOM     10  C   UNL     1       1.818   3.181  18.222  0.00  0.00    +0.000 A 
ATOM     11  O   UNL     1       0.974   2.299  18.188  0.00  0.00    +0.000 OA
ATOM     12  C   UNL     1       1.790   4.293  19.300  0.00  0.00    +0.000 A 
ATOM     13  O   UNL     1       0.932   4.316  20.172  0.00  0.00    +0.000 OA
ATOM     14  N   UNL     1       2.769   5.261  19.228  0.00  0.00    +0.000 N 
ATOM     15  C   UNL     1       3.764   5.280  18.245  0.00  0.00    +0.000 A 
ATOM     16  C   UNL     1       4.695   6.322  18.205  0.00  0.00    +0.000 A 
ATOM     17  H   UNL     1       2.846   2.519  16.596  0.00  0.00    +0.000 HD
ATOM     18  H   UNL     1       2.719   5.985  19.933  0.00  0.00    +0.000 HD
ENDBRANCH   3   5
BRANCH   2  19
ATOM     19  C   UNL     1       8.335   9.034  17.704  0.00  0.00    +0.000 C 
BRANCH  19  20
ATOM     20  O   UNL     1       8.753   9.589  18.942  0.00  0.00    +0.000 OA
BRANCH  20  21
ATOM     21  C   UNL     1       9.521  10.734  18.873  0.00  0.00    +0.000 A 
ATOM     22  C   UNL     1      10.255  11.110  17.740  0.00  0.00    +0.000 A 
ATOM     23  C   UNL     1      10.981  12.300  17.724  0.00  0.00    +0.000 A 
ATOM     24  C   UNL     1      10.969  13.141  18.833  0.00  0.00    +0.000 A 
ATOM     25  C   UNL     1      10.239  12.798  19.979  0.00  0.00    +0.000 A 
ATOM     26  C   UNL     1      10.223  13.659  21.089  0.00  0.00    +0.000 A 
ATOM     27  C   UNL     1       9.513  13.326  22.241  0.00  0.00    +0.000 A 
ATOM     28  C   UNL     1       8.816  12.125  22.300  0.00  0.00    +0.000 A 
ATOM     29  C   UNL     1       8.813  11.264  21.200  0.00  0.00    +0.000 A 
ATOM     30  C   UNL     1       9.512  11.581  20.013  0.00  0.00    +0.000 A 
ENDBRANCH  20  21
ENDBRANCH  19  20
ENDBRANCH   2  19
TORSDOF 4
ENDMDL
MODEL 2
REMARK VINA RESULT:      -8.9      1.469      1.469
REMARK  Name = 
REMARK  4 active torsions:
REMARK  status: ('A' for Active; 'I' for Inactive)
REMARK    1  A    between atoms: C_2  and  C_3
REMARK    2  A    between atoms: C_3  and  O_4
REMARK    3  A    between atoms: O_4  and  C_5
REMARK    4  A    between atoms: N_15  and  C_16
REMARK                            x       y       z     vdW  Elec       q    Type
REMARK                         _______ _______ _______ _____ _____    ______ ____
ROOT
ATOM      1  O   UNL     1       8.539   7.294  18.786  0.00  0.00    +0.000 OA
ATOM      2  C   UNL     1       7.962   8.049  18.005  0.00  0.00    +0.000 C 
ATOM      3  N   UNL     1       6.911   7.690  17.168  0.00  0.00    +0.000 N 
ATOM      4  H   UNL     1       6.699   8.327  16.409  0.00  0.00    +0.000 HD
ENDROOT
BRANCH   3   5
ATOM      5  C   UNL     1       6.277   6.425  17.148  0.00  0.00    +0.000 A 
ATOM      6  C   UNL     1       5.828   5.819  15.967  0.00  0.00    +0.000 A 
ATOM      7  C   UNL     1       5.125   4.610  15.995  0.00  0.00    +0.000 A 
ATOM      8  C   UNL     1       4.881   3.987  17.212  0.00  0.00    +0.000 A 
ATOM      9  N   UNL     1       4.131   2.810  17.248  0.00  0.00    +0.000 N 
ATOM     10  C   UNL     1       3.830   2.141  18.416  0.00  0.00    +0.000 A 
ATOM     11  O   UNL     1       3.143   1.131  18.421  0.00  0.00    +0.000 OA
ATOM     12  C   UNL     1       4.404   2.741  19.724  0.00  0.00    +0.000 A 
ATOM     13  O   UNL     1       4.210   2.210  20.809  0.00  0.00    +0.000 OA
ATOM     14  N   UNL     1       5.137   3.903  19.612  0.00  0.00    +0.000 N 
ATOM     15  C   UNL     1       5.377   4.549  18.395  0.00  0.00    +0.000 A 
ATOM     16  C   UNL     1       6.087   5.752  18.364  0.00  0.00    +0.000 A 
ATOM     17  H   UNL     1       3.741   2.418  16.402  0.00  0.00    +0.000 HD
ATOM     18  H   UNL     1       5.487   4.283  20.482  0.00  0.00    +0.000 HD
ENDBRANCH   3   5
BRANCH   2  19
ATOM     19  C   UNL     1       8.369   9.522  17.917  0.00  0.00    +0.000 C 
BRANCH  19  20
ATOM     20  O   UNL     1       9.047   9.963  19.083  0.00  0.00    +0.000 OA
BRANCH  20  21
ATOM     21  C   UNL     1       9.850  11.078  18.943  0.00  0.00    +0.000 A 
ATOM     22  C   UNL     1      10.646  11.325  17.817  0.00  0.00    +0.000 A 
ATOM     23  C   UNL     1      11.406  12.490  17.723  0.00  0.00    +0.000 A 
ATOM     24  C   UNL     1      11.365  13.435  18.744  0.00  0.00    +0.000 A 
ATOM     25  C   UNL     1      10.573  13.222  19.880  0.00  0.00    +0.000 A 
ATOM     26  C   UNL     1      10.529  14.188  20.900  0.00  0.00    +0.000 A 
ATOM     27  C   UNL     1       9.757  13.985  22.042  0.00  0.00    +0.000 A 
ATOM     28  C   UNL     1       9.024  12.812  22.182  0.00  0.00    +0.000 A 
ATOM     29  C   UNL     1       9.048  11.849  21.170  0.00  0.00    +0.000 A 
ATOM     30  C   UNL     1       9.811  12.032  19.995  0.00  0.00    +0.000 A 
ENDBRANCH  20  21
ENDBRANCH  19  20
ENDBRANCH   2  19
TORSDOF 4
ENDMDL
MODEL 3
REMARK VINA RESULT:      -8.8      1.204      2.385
REMARK  Name = 
REMARK  4 active torsions:
REMARK  status: ('A' for Active; 'I' for Inactive)
REMARK    1  A    between atoms: C_2  and  C_3
REMARK    2  A    between atoms: C_3  and  O_4
REMARK    3  A    between atoms: O_4  and  C_5
REMARK    4  A    between atoms: N_15  and  C_16
REMARK                            x       y       z     vdW  Elec       q    Type
REMARK                         _______ _______ _______ _____ _____    ______ ____
ROOT
ATOM      1  O   UNL     1       8.577   7.823  18.859  0.00  0.00    +0.000 OA
ATOM      2  C   UNL     1       8.027   8.483  17.979  0.00  0.00    +0.000 C 
ATOM      3  N   UNL     1       7.034   8.016  17.126  0.00  0.00    +0.000 N 
ATOM      4  H   UNL     1       6.849   8.571  16.298  0.00  0.00    +0.000 HD
ENDROOT
BRANCH   3   5
ATOM      5  C   UNL     1       6.432   6.736  17.194  0.00  0.00    +0.000 A 
ATOM      6  C   UNL     1       7.060   5.576  16.723  0.00  0.00    +0.000 A 
ATOM      7  C   UNL     1       6.399   4.343  16.724  0.00  0.00    +0.000 A 
ATOM      8  C   UNL     1       5.103   4.260  17.215  0.00  0.00    +0.000 A 
ATOM      9  N   UNL     1       4.420   3.044  17.164  0.00  0.00    +0.000 N 
ATOM     10  C   UNL     1       3.126   2.884  17.614  0.00  0.00    +0.000 A 
ATOM     11  O   UNL     1       2.542   1.814  17.528  0.00  0.00    +0.000 OA
ATOM     12  C   UNL     1       2.450   4.132  18.232  0.00  0.00    +0.000 A 
ATOM     13  O   UNL     1       1.311   4.088  18.678  0.00  0.00    +0.000 OA
ATOM     14  N   UNL     1       3.184   5.299  18.251  0.00  0.00    +0.000 N 
ATOM     15  C   UNL     1       4.485   5.399  17.745  0.00  0.00    +0.000 A 
ATOM     16  C   UNL     1       5.150   6.628  17.753  0.00  0.00    +0.000 A 
ATOM     17  H   UNL     1       4.848   2.227  16.752  0.00  0.00    +0.000 HD
ATOM     18  H   UNL     1       2.715   6.104  18.644  0.00  0.00    +0.000 HD
ENDBRANCH   3   5
BRANCH   2  19
ATOM     19  C   UNL     1       8.403   9.952  17.771  0.00  0.00    +0.000 C 
BRANCH  19  20
ATOM     20  O   UNL     1       9.735  10.229  18.178  0.00  0.00    +0.000 OA
BRANCH  20  21
ATOM     21  C   UNL     1       9.898  11.244  19.100  0.00  0.00    +0.000 A 
ATOM     22  C   UNL     1       9.517  11.140  20.444  0.00  0.00    +0.000 A 
ATOM     23  C   UNL     1       9.743  12.190  21.333  0.00  0.00    +0.000 A 
ATOM     24  C   UNL     1      10.372  13.352  20.895  0.00  0.00    +0.000 A 
ATOM     25  C   UNL     1      10.773  13.484  19.559  0.00  0.00    +0.000 A 
ATOM     26  C   UNL     1      11.418  14.657  19.129  0.00  0.00    +0.000 A 
ATOM     27  C   UNL     1      11.810  14.809  17.801  0.00  0.00    +0.000 A 
ATOM     28  C   UNL     1      11.557  13.795  16.884  0.00  0.00    +0.000 A 
ATOM     29  C   UNL     1      10.928  12.620  17.300  0.00  0.00    +0.000 A 
ATOM     30  C   UNL     1      10.530  12.430  18.642  0.00  0.00    +0.000 A 
ENDBRANCH  20  21
ENDBRANCH  19  20
ENDBRANCH   2  19
TORSDOF 4
ENDMDL
MODEL 4
REMARK VINA RESULT:      -8.7      4.415      7.146
REMARK  Name = 
REMARK  4 active torsions:
REMARK  status: ('A' for Active; 'I' for Inactive)
REMARK    1  A    between atoms: C_2  and  C_3
REMARK    2  A    between atoms: C_3  and  O_4
REMARK    3  A    between atoms: O_4  and  C_5
REMARK    4  A    between atoms: N_15  and  C_16
REMARK                            x       y       z     vdW  Elec       q    Type
REMARK                         _______ _______ _______ _____ _____    ______ ____
ROOT
ATOM      1  O   UNL     1       1.153   4.165  17.688  0.00  0.00    +0.000 OA
ATOM      2  C   UNL     1       2.354   4.196  17.953  0.00  0.00    +0.000 C 
ATOM      3  N   UNL     1       3.043   5.304  18.433  0.00  0.00    +0.000 N 
ATOM      4  H   UNL     1       4.054   5.272  18.370  0.00  0.00    +0.000 HD
ENDROOT
BRANCH   3   5
ATOM      5  C   UNL     1       2.456   6.545  18.781  0.00  0.00    +0.000 A 
ATOM      6  C   UNL     1       2.202   7.555  17.843  0.00  0.00    +0.000 A 
ATOM      7  C   UNL     1       1.705   8.801  18.238  0.00  0.00    +0.000 A 
ATOM      8  C   UNL     1       1.441   9.040  19.580  0.00  0.00    +0.000 A 
ATOM      9  N   UNL     1       0.999  10.302  19.984  0.00  0.00    +0.000 N 
ATOM     10  C   UNL     1       0.732  10.624  21.298  0.00  0.00    +0.000 A 
ATOM     11  O   UNL     1       0.377  11.746  21.627  0.00  0.00    +0.000 OA
ATOM     12  C   UNL     1       0.909   9.490  22.338  0.00  0.00    +0.000 A 
ATOM     13  O   UNL     1       0.678   9.670  23.526  0.00  0.00    +0.000 OA
ATOM     14  N   UNL     1       1.346   8.270  21.867  0.00  0.00    +0.000 N 
ATOM     15  C   UNL     1       1.631   8.021  20.520  0.00  0.00    +0.000 A 
ATOM     16  C   UNL     1       2.119   6.772  20.123  0.00  0.00    +0.000 A 
ATOM     17  H   UNL     1       0.892  11.052  19.315  0.00  0.00    +0.000 HD
ATOM     18  H   UNL     1       1.470   7.550  22.568  0.00  0.00    +0.000 HD
ENDBRANCH   3   5
BRANCH   2  19
ATOM     19  C   UNL     1       3.212   2.939  17.786  0.00  0.00    +0.000 C 
BRANCH  19  20
ATOM     20  O   UNL     1       4.588   3.191  18.026  0.00  0.00    +0.000 OA
BRANCH  20  21
ATOM     21  C   UNL     1       5.244   3.966  17.090  0.00  0.00    +0.000 A 
ATOM     22  C   UNL     1       5.013   3.879  15.711  0.00  0.00    +0.000 A 
ATOM     23  C   UNL     1       5.683   4.719  14.822  0.00  0.00    +0.000 A 
ATOM     24  C   UNL     1       6.578   5.670  15.300  0.00  0.00    +0.000 A 
ATOM     25  C   UNL     1       6.825   5.788  16.674  0.00  0.00    +0.000 A 
ATOM     26  C   UNL     1       7.723   6.761  17.148  0.00  0.00    +0.000 A 
ATOM     27  C   UNL     1       7.990   6.882  18.511  0.00  0.00    +0.000 A 
ATOM     28  C   UNL     1       7.369   6.028  19.415  0.00  0.00    +0.000 A 
ATOM     29  C   UNL     1       6.465   5.065  18.959  0.00  0.00    +0.000 A 
ATOM     30  C   UNL     1       6.164   4.927  17.586  0.00  0.00    +0.000 A 
ENDBRANCH  20  21
ENDBRANCH  19  20
ENDBRANCH   2  19
TORSDOF 4
ENDMDL
MODEL 5
REMARK VINA RESULT:      -8.7      5.042      7.972
REMARK  Name = 
REMARK  4 active torsions:
REMARK  status: ('A' for Active; 'I' for Inactive)
REMARK    1  A    between atoms: C_2  and  C_3
REMARK    2  A    between atoms: C_3  and  O_4
REMARK    3  A    between atoms: O_4  and  C_5
REMARK    4  A    between atoms: N_15  and  C_16
REMARK                            x       y       z     vdW  Elec       q    Type
REMARK                         _______ _______ _______ _____ _____    ______ ____
ROOT
ATOM      1  O   UNL     1       1.296   4.649  19.529  0.00  0.00    +0.000 OA
ATOM      2  C   UNL     1       2.472   4.965  19.703  0.00  0.00    +0.000 C 
ATOM      3  N   UNL     1       2.953   6.267  19.774  0.00  0.00    +0.000 N 
ATOM      4  H   UNL     1       3.954   6.388  19.667  0.00  0.00    +0.000 HD
ENDROOT
BRANCH   3   5
ATOM      5  C   UNL     1       2.154   7.436  19.749  0.00  0.00    +0.000 A 
ATOM      6  C   UNL     1       1.979   8.213  18.596  0.00  0.00    +0.000 A 
ATOM      7  C   UNL     1       1.258   9.410  18.631  0.00  0.00    +0.000 A 
ATOM      8  C   UNL     1       0.688   9.832  19.825  0.00  0.00    +0.000 A 
ATOM      9  N   UNL     1       0.016  11.055  19.877  0.00  0.00    +0.000 N 
ATOM     10  C   UNL     1      -0.560  11.552  21.027  0.00  0.00    +0.000 A 
ATOM     11  O   UNL     1      -1.114  12.641  21.050  0.00  0.00    +0.000 OA
ATOM     12  C   UNL     1      -0.465  10.661  22.290  0.00  0.00    +0.000 A 
ATOM     13  O   UNL     1      -0.963  11.004  23.354  0.00  0.00    +0.000 OA
ATOM     14  N   UNL     1       0.211   9.466  22.164  0.00  0.00    +0.000 N 
ATOM     15  C   UNL     1       0.802   9.036  20.972  0.00  0.00    +0.000 A 
ATOM     16  C   UNL     1       1.516   7.835  20.932  0.00  0.00    +0.000 A 
ATOM     17  H   UNL     1      -0.041  11.650  19.062  0.00  0.00    +0.000 HD
ATOM     18  H   UNL     1       0.273   8.909  23.007  0.00  0.00    +0.000 HD
ENDBRANCH   3   5
BRANCH   2  19
ATOM     19  C   UNL     1       3.539   3.883  19.889  0.00  0.00    +0.000 C 
BRANCH  19  20
ATOM     20  O   UNL     1       4.231   3.596  18.683  0.00  0.00    +0.000 OA
BRANCH  20  21
ATOM     21  C   UNL     1       5.343   4.370  18.413  0.00  0.00    +0.000 A 
ATOM     22  C   UNL     1       6.110   4.998  19.402  0.00  0.00    +0.000 A 
ATOM     23  C   UNL     1       7.244   5.736  19.064  0.00  0.00    +0.000 A 
ATOM     24  C   UNL     1       7.638   5.840  17.733  0.00  0.00    +0.000 A 
ATOM     25  C   UNL     1       6.896   5.217  16.720  0.00  0.00    +0.000 A 
ATOM     26  C   UNL     1       7.308   5.318  15.381  0.00  0.00    +0.000 A 
ATOM     27  C   UNL     1       6.574   4.716  14.360  0.00  0.00    +0.000 A 
ATOM     28  C   UNL     1       5.415   4.012  14.666  0.00  0.00    +0.000 A 
ATOM     29  C   UNL     1       5.000   3.892  15.994  0.00  0.00    +0.000 A 
ATOM     30  C   UNL     1       5.730   4.480  17.051  0.00  0.00    +0.000 A 
ENDBRANCH  20  21
ENDBRANCH  19  20
ENDBRANCH   2  19
TORSDOF 4
ENDMDL
MODEL 6
REMARK VINA RESULT:      -8.7      4.938      7.901
REMARK  Name = 
REMARK  4 active torsions:
REMARK  status: ('A' for Active; 'I' for Inactive)
REMARK    1  A    between atoms: C_2  and  C_3
REMARK    2  A    between atoms: C_3  and  O_4
REMARK    3  A    between atoms: O_4  and  C_5
REMARK    4  A    between atoms: N_15  and  C_16
REMARK                            x       y       z     vdW  Elec       q    Type
REMARK                         _______ _______ _______ _____ _____    ______ ____
ROOT
ATOM      1  O   UNL     1       2.173   5.155  18.014  0.00  0.00    +0.000 OA
ATOM      2  C   UNL     1       2.765   5.341  19.076  0.00  0.00    +0.000 C 
ATOM      3  N   UNL     1       2.839   6.553  19.753  0.00  0.00    +0.000 N 
ATOM      4  H   UNL     1       3.554   6.630  20.468  0.00  0.00    +0.000 HD
ENDROOT
BRANCH   3   5
ATOM      5  C   UNL     1       2.168   7.742  19.379  0.00  0.00    +0.000 A 
ATOM      6  C   UNL     1       2.319   8.334  18.118  0.00  0.00    +0.000 A 
ATOM      7  C   UNL     1       1.712   9.557  17.814  0.00  0.00    +0.000 A 
ATOM      8  C   UNL     1       0.931  10.191  18.772  0.00  0.00    +0.000 A 
ATOM      9  N   UNL     1       0.370  11.438  18.492  0.00  0.00    +0.000 N 
ATOM     10  C   UNL     1      -0.402  12.140  19.395  0.00  0.00    +0.000 A 
ATOM     11  O   UNL     1      -0.852  13.245  19.134  0.00  0.00    +0.000 OA
ATOM     12  C   UNL     1      -0.664  11.455  20.759  0.00  0.00    +0.000 A 
ATOM     13  O   UNL     1      -1.353  11.987  21.619  0.00  0.00    +0.000 OA
ATOM     14  N   UNL     1      -0.081  10.223  20.964  0.00  0.00    +0.000 N 
ATOM     15  C   UNL     1       0.721   9.581  20.015  0.00  0.00    +0.000 A 
ATOM     16  C   UNL     1       1.321   8.354  20.313  0.00  0.00    +0.000 A 
ATOM     17  H   UNL     1       0.546  11.899  17.610  0.00  0.00    +0.000 HD
ATOM     18  H   UNL     1      -0.253   9.804  21.869  0.00  0.00    +0.000 HD
ENDBRANCH   3   5
BRANCH   2  19
ATOM     19  C   UNL     1       3.479   4.180  19.772  0.00  0.00    +0.000 C 
BRANCH  19  20
ATOM     20  O   UNL     1       4.495   3.609  18.962  0.00  0.00    +0.000 OA
BRANCH  20  21
ATOM     21  C   UNL     1       5.511   4.455  18.563  0.00  0.00    +0.000 A 
ATOM     22  C   UNL     1       6.299   5.195  19.454  0.00  0.00    +0.000 A 
ATOM     23  C   UNL     1       7.334   6.004  18.986  0.00  0.00    +0.000 A 
ATOM     24  C   UNL     1       7.609   6.069  17.624  0.00  0.00    +0.000 A 
ATOM     25  C   UNL     1       6.845   5.335  16.708  0.00  0.00    +0.000 A 
ATOM     26  C   UNL     1       7.138   5.397  15.335  0.00  0.00    +0.000 A 
ATOM     27  C   UNL     1       6.379   4.684  14.409  0.00  0.00    +0.000 A 
ATOM     28  C   UNL     1       5.313   3.905  14.844  0.00  0.00    +0.000 A 
ATOM     29  C   UNL     1       5.018   3.823  16.207  0.00  0.00    +0.000 A 
ATOM     30  C   UNL     1       5.777   4.524  17.170  0.00  0.00    +0.000 A 
ENDBRANCH  20  21
ENDBRANCH  19  20
ENDBRANCH   2  19
TORSDOF 4
ENDMDL
MODEL 7
REMARK VINA RESULT:      -8.6      5.782      8.232
REMARK  Name = 
REMARK  4 active torsions:
REMARK  status: ('A' for Active; 'I' for Inactive)
REMARK    1  A    between atoms: C_2  and  C_3
REMARK    2  A    between atoms: C_3  and  O_4
REMARK    3  A    between atoms: O_4  and  C_5
REMARK    4  A    between atoms: N_15  and  C_16
REMARK                            x       y       z     vdW  Elec       q    Type
REMARK                         _______ _______ _______ _____ _____    ______ ____
ROOT
ATOM      1  O   UNL     1       2.727   9.810  17.730  0.00  0.00    +0.000 OA
ATOM      2  C   UNL     1       1.734   9.182  18.096  0.00  0.00    +0.000 C 
ATOM      3  N   UNL     1       1.702   7.820  18.372  0.00  0.00    +0.000 N 
ATOM      4  H   UNL     1       0.786   7.388  18.417  0.00  0.00    +0.000 HD
ENDROOT
BRANCH   3   5
ATOM      5  C   UNL     1       2.824   6.957  18.366  0.00  0.00    +0.000 A 
ATOM      6  C   UNL     1       3.123   6.092  19.427  0.00  0.00    +0.000 A 
ATOM      7  C   UNL     1       4.290   5.320  19.426  0.00  0.00    +0.000 A 
ATOM      8  C   UNL     1       5.162   5.398  18.349  0.00  0.00    +0.000 A 
ATOM      9  N   UNL     1       6.355   4.673  18.371  0.00  0.00    +0.000 N 
ATOM     10  C   UNL     1       7.281   4.710  17.350  0.00  0.00    +0.000 A 
ATOM     11  O   UNL     1       8.332   4.090  17.411  0.00  0.00    +0.000 OA
ATOM     12  C   UNL     1       6.922   5.583  16.122  0.00  0.00    +0.000 A 
ATOM     13  O   UNL     1       7.669   5.666  15.156  0.00  0.00    +0.000 OA
ATOM     14  N   UNL     1       5.727   6.269  16.168  0.00  0.00    +0.000 N 
ATOM     15  C   UNL     1       4.847   6.212  17.254  0.00  0.00    +0.000 A 
ATOM     16  C   UNL     1       3.676   6.975  17.252  0.00  0.00    +0.000 A 
ATOM     17  H   UNL     1       6.604   4.111  19.173  0.00  0.00    +0.000 HD
ATOM     18  H   UNL     1       5.523   6.845  15.362  0.00  0.00    +0.000 HD
ENDBRANCH   3   5
BRANCH   2  19
ATOM     19  C   UNL     1       0.402   9.905  18.307  0.00  0.00    +0.000 C 
BRANCH  19  20
ATOM     20  O   UNL     1       0.495  10.932  19.282  0.00  0.00    +0.000 OA
BRANCH  20  21
ATOM     21  C   UNL     1       0.158  10.585  20.575  0.00  0.00    +0.000 A 
ATOM     22  C   UNL     1       0.803   9.574  21.301  0.00  0.00    +0.000 A 
ATOM     23  C   UNL     1       0.437   9.298  22.618  0.00  0.00    +0.000 A 
ATOM     24  C   UNL     1      -0.565  10.041  23.235  0.00  0.00    +0.000 A 
ATOM     25  C   UNL     1      -1.224  11.064  22.539  0.00  0.00    +0.000 A 
ATOM     26  C   UNL     1      -2.226  11.817  23.175  0.00  0.00    +0.000 A 
ATOM     27  C   UNL     1      -2.900  12.828  22.493  0.00  0.00    +0.000 A 
ATOM     28  C   UNL     1      -2.586  13.094  21.165  0.00  0.00    +0.000 A 
ATOM     29  C   UNL     1      -1.583  12.363  20.524  0.00  0.00    +0.000 A 
ATOM     30  C   UNL     1      -0.873  11.341  21.193  0.00  0.00    +0.000 A 
ENDBRANCH  20  21
ENDBRANCH  19  20
ENDBRANCH   2  19
TORSDOF 4
ENDMDL
MODEL 8
REMARK VINA RESULT:      -8.6      6.551      9.858
REMARK  Name = 
REMARK  4 active torsions:
REMARK  status: ('A' for Active; 'I' for Inactive)
REMARK    1  A    between atoms: C_2  and  C_3
REMARK    2  A    between atoms: C_3  and  O_4
REMARK    3  A    between atoms: O_4  and  C_5
REMARK    4  A    between atoms: N_15  and  C_16
REMARK                            x       y       z     vdW  Elec       q    Type
REMARK                         _______ _______ _______ _____ _____    ______ ____
ROOT
ATOM      1  O   UNL     1       1.030   8.940  19.688  0.00  0.00    +0.000 OA
ATOM      2  C   UNL     1       1.194   9.164  18.489  0.00  0.00    +0.000 C 
ATOM      3  N   UNL     1       0.400  10.000  17.713  0.00  0.00    +0.000 N 
ATOM      4  H   UNL     1       0.486   9.902  16.708  0.00  0.00    +0.000 HD
ENDROOT
BRANCH   3   5
ATOM      5  C   UNL     1      -0.666  10.797  18.196  0.00  0.00    +0.000 A 
ATOM      6  C   UNL     1      -0.481  11.836  19.118  0.00  0.00    +0.000 A 
ATOM      7  C   UNL     1      -1.568  12.542  19.642  0.00  0.00    +0.000 A 
ATOM      8  C   UNL     1      -2.856  12.223  19.231  0.00  0.00    +0.000 A 
ATOM      9  N   UNL     1      -3.947  12.887  19.795  0.00  0.00    +0.000 N 
ATOM     10  C   UNL     1      -5.255  12.615  19.453  0.00  0.00    +0.000 A 
ATOM     11  O   UNL     1      -6.192  13.190  19.987  0.00  0.00    +0.000 OA
ATOM     12  C   UNL     1      -5.476  11.541  18.361  0.00  0.00    +0.000 A 
ATOM     13  O   UNL     1      -6.599  11.243  17.975  0.00  0.00    +0.000 OA
ATOM     14  N   UNL     1      -4.353  10.928  17.848  0.00  0.00    +0.000 N 
ATOM     15  C   UNL     1      -3.052  11.229  18.264  0.00  0.00    +0.000 A 
ATOM     16  C   UNL     1      -1.963  10.531  17.735  0.00  0.00    +0.000 A 
ATOM     17  H   UNL     1      -3.814  13.581  20.517  0.00  0.00    +0.000 HD
ATOM     18  H   UNL     1      -4.524  10.218  17.147  0.00  0.00    +0.000 HD
ENDBRANCH   3   5
BRANCH   2  19
ATOM     19  C   UNL     1       2.363   8.522  17.739  0.00  0.00    +0.000 C 
BRANCH  19  20
ATOM     20  O   UNL     1       2.954   7.459  18.472  0.00  0.00    +0.000 OA
BRANCH  20  21
ATOM     21  C   UNL     1       3.602   6.489  17.733  0.00  0.00    +0.000 A 
ATOM     22  C   UNL     1       4.732   6.739  16.945  0.00  0.00    +0.000 A 
ATOM     23  C   UNL     1       5.362   5.706  16.252  0.00  0.00    +0.000 A 
ATOM     24  C   UNL     1       4.881   4.404  16.353  0.00  0.00    +0.000 A 
ATOM     25  C   UNL     1       3.757   4.118  17.140  0.00  0.00    +0.000 A 
ATOM     26  C   UNL     1       3.287   2.798  17.245  0.00  0.00    +0.000 A 
ATOM     27  C   UNL     1       2.162   2.500  18.012  0.00  0.00    +0.000 A 
ATOM     28  C   UNL     1       1.490   3.519  18.677  0.00  0.00    +0.000 A 
ATOM     29  C   UNL     1       1.953   4.834  18.592  0.00  0.00    +0.000 A 
ATOM     30  C   UNL     1       3.098   5.165  17.833  0.00  0.00    +0.000 A 
ENDBRANCH  20  21
ENDBRANCH  19  20
ENDBRANCH   2  19
TORSDOF 4
ENDMDL
MODEL 9
REMARK VINA RESULT:      -8.5      6.445      9.623
REMARK  Name = 
REMARK  4 active torsions:
REMARK  status: ('A' for Active; 'I' for Inactive)
REMARK    1  A    between atoms: C_2  and  C_3
REMARK    2  A    between atoms: C_3  and  O_4
REMARK    3  A    between atoms: O_4  and  C_5
REMARK    4  A    between atoms: N_15  and  C_16
REMARK                            x       y       z     vdW  Elec       q    Type
REMARK                         _______ _______ _______ _____ _____    ______ ____
ROOT
ATOM      1  O   UNL     1       1.335   9.158  19.715  0.00  0.00    +0.000 OA
ATOM      2  C   UNL     1       1.337   9.125  18.485  0.00  0.00    +0.000 C 
ATOM      3  N   UNL     1       0.393   9.730  17.664  0.00  0.00    +0.000 N 
ATOM      4  H   UNL     1       0.366   9.420  16.699  0.00  0.00    +0.000 HD
ENDROOT
BRANCH   3   5
ATOM      5  C   UNL     1      -0.668  10.557  18.107  0.00  0.00    +0.000 A 
ATOM      6  C   UNL     1      -0.466  11.681  18.918  0.00  0.00    +0.000 A 
ATOM      7  C   UNL     1      -1.545  12.422  19.411  0.00  0.00    +0.000 A 
ATOM      8  C   UNL     1      -2.841  12.049  19.080  0.00  0.00    +0.000 A 
ATOM      9  N   UNL     1      -3.922  12.751  19.617  0.00  0.00    +0.000 N 
ATOM     10  C   UNL     1      -5.237  12.433  19.351  0.00  0.00    +0.000 A 
ATOM     11  O   UNL     1      -6.163  13.045  19.861  0.00  0.00    +0.000 OA
ATOM     12  C   UNL     1      -5.480  11.255  18.375  0.00  0.00    +0.000 A 
ATOM     13  O   UNL     1      -6.611  10.908  18.061  0.00  0.00    +0.000 OA
ATOM     14  N   UNL     1      -4.366  10.609  17.882  0.00  0.00    +0.000 N 
ATOM     15  C   UNL     1      -3.056  10.965  18.221  0.00  0.00    +0.000 A 
ATOM     16  C   UNL     1      -1.976  10.231  17.721  0.00  0.00    +0.000 A 
ATOM     17  H   UNL     1      -3.774  13.513  20.264  0.00  0.00    +0.000 HD
ATOM     18  H   UNL     1      -4.551   9.833  17.260  0.00  0.00    +0.000 HD
ENDBRANCH   3   5
BRANCH   2  19
ATOM     19  C   UNL     1       2.456   8.396  17.737  0.00  0.00    +0.000 C 
BRANCH  19  20
ATOM     20  O   UNL     1       3.107   7.431  18.550  0.00  0.00    +0.000 OA
BRANCH  20  21
ATOM     21  C   UNL     1       3.090   6.129  18.091  0.00  0.00    +0.000 A 
ATOM     22  C   UNL     1       1.987   5.275  18.218  0.00  0.00    +0.000 A 
ATOM     23  C   UNL     1       2.023   3.981  17.699  0.00  0.00    +0.000 A 
ATOM     24  C   UNL     1       3.155   3.530  17.028  0.00  0.00    +0.000 A 
ATOM     25  C   UNL     1       4.273   4.361  16.878  0.00  0.00    +0.000 A 
ATOM     26  C   UNL     1       5.408   3.900  16.189  0.00  0.00    +0.000 A 
ATOM     27  C   UNL     1       6.532   4.710  16.042  0.00  0.00    +0.000 A 
ATOM     28  C   UNL     1       6.539   5.988  16.588  0.00  0.00    +0.000 A 
ATOM     29  C   UNL     1       5.414   6.465  17.265  0.00  0.00    +0.000 A 
ATOM     30  C   UNL     1       4.255   5.673  17.418  0.00  0.00    +0.000 A 
ENDBRANCH  20  21
ENDBRANCH  19  20
ENDBRANCH   2  19
TORSDOF 4
ENDMDL
