MODEL 1
REMARK VINA RESULT:      -8.3      0.000      0.000
REMARK  Name = 
REMARK  8 active torsions:
REMARK  status: ('A' for Active; 'I' for Inactive)
REMARK    1  A    between atoms: C_1  and  N_2
REMARK    2  A    between atoms: C_6  and  C_7
REMARK    3  A    between atoms: C_7  and  C_8
REMARK    4  A    between atoms: C_8  and  C_9
REMARK    5  A    between atoms: C_13  and  N_14
REMARK    6  A    between atoms: C_15  and  C_17
REMARK    7  A    between atoms: C_17  and  C_18
REMARK    8  A    between atoms: C_18  and  C_19
REMARK                            x       y       z     vdW  Elec       q    Type
REMARK                         _______ _______ _______ _____ _____    ______ ____
ROOT
ATOM      1  C   UNL     1       4.978   4.135  16.979  0.00  0.00    +0.000 A 
ATOM      2  C   UNL     1       5.455   3.475  15.828  0.00  0.00    +0.000 A 
ATOM      3  C   UNL     1       6.429   4.039  15.008  0.00  0.00    +0.000 A 
ATOM      4  C   UNL     1       6.946   5.296  15.305  0.00  0.00    +0.000 A 
ATOM      5  C   UNL     1       6.486   6.001  16.414  0.00  0.00    +0.000 A 
ATOM      6  C   UNL     1       5.539   5.400  17.255  0.00  0.00    +0.000 A 
ENDROOT
BRANCH   1   7
ATOM      7  C   UNL     1       3.842   3.482  17.908  0.00  0.00    +0.000 C 
ATOM      8  C   UNL     1       3.677   1.937  17.892  0.00  0.00    +0.000 C 
ATOM      9  O   UNL     1       4.002   1.824  19.294  0.00  0.00    +0.000 OA
ATOM     10  C   UNL     1       4.253   3.238  19.390  0.00  0.00    +0.000 C 
BRANCH   7  11
ATOM     11  C   UNL     1       2.534   4.288  17.809  0.00  0.00    +0.000 C 
BRANCH  11  17
ATOM     12  C   UNL     1       1.034   3.857  20.589  0.00  0.00    +0.000 C 
ATOM     13  N   UNL     1       1.629   5.067  20.084  0.00  0.00    +0.000 N 
ATOM     14  C   UNL     1       1.582   6.277  20.714  0.00  0.00    +0.000 A 
ATOM     15  N   UNL     1       2.236   7.163  20.006  0.00  0.00    +0.000 NA
ATOM     16  N   UNL     1       2.701   6.529  18.879  0.00  0.00    +0.000 NA
ATOM     17  C   UNL     1       2.316   5.269  18.915  0.00  0.00    +0.000 A 
ENDBRANCH  11  17
ENDBRANCH   7  11
ENDBRANCH   1   7
BRANCH   5  18
ATOM     18  N   UNL     1       6.896   7.313  16.733  0.00  0.00    +0.000 N 
ATOM     19  C   UNL     1       7.701   7.686  17.798  0.00  0.00    +0.000 C 
ATOM     20  O   UNL     1       8.151   6.946  18.666  0.00  0.00    +0.000 OA
ATOM     21  H   UNL     1       6.766   8.009  16.004  0.00  0.00    +0.000 HD
BRANCH  19  22
ATOM     22  C   UNL     1       8.053   9.159  17.792  0.00  0.00    +0.000 C 
BRANCH  22  23
ATOM     23  C   UNL     1       9.012   9.457  18.935  0.00  0.00    +0.000 C 
BRANCH  23  24
ATOM     24  C   UNL     1       9.414  10.877  18.935  0.00  0.00    +0.000 C 
ATOM     25  N   UNL     1       9.305  11.783  19.851  0.00  0.00    +0.000 NA
ATOM     26  C   UNL     1      10.010  12.799  19.044  0.00  0.00    +0.000 C 
ATOM     27  C   UNL     1      10.159  11.745  17.963  0.00  0.00    +0.000 C 
ENDBRANCH  23  24
ENDBRANCH  22  23
ENDBRANCH  19  22
ENDBRANCH   5  18
TORSDOF 7
ENDMDL
MODEL 2
REMARK VINA RESULT:      -8.1      1.464      2.030
REMARK  Name = 
REMARK  8 active torsions:
REMARK  status: ('A' for Active; 'I' for Inactive)
REMARK    1  A    between atoms: C_1  and  N_2
REMARK    2  A    between atoms: C_6  and  C_7
REMARK    3  A    between atoms: C_7  and  C_8
REMARK    4  A    between atoms: C_8  and  C_9
REMARK    5  A    between atoms: C_13  and  N_14
REMARK    6  A    between atoms: C_15  and  C_17
REMARK    7  A    between atoms: C_17  and  C_18
REMARK    8  A    between atoms: C_18  and  C_19
REMARK                            x       y       z     vdW  Elec       q    Type
REMARK                         _______ _______ _______ _____ _____    ______ ____
ROOT
ATOM      1  C   UNL     1       4.932   4.363  17.116  0.00  0.00    +0.000 A 
ATOM      2  C   UNL     1       5.501   3.618  16.063  0.00  0.00    +0.000 A 
ATOM      3  C   UNL     1       6.541   4.122  15.284  0.00  0.00    +0.000 A 
ATOM      4  C   UNL     1       7.033   5.400  15.525  0.00  0.00    +0.000 A 
ATOM      5  C   UNL     1       6.484   6.186  16.534  0.00  0.00    +0.000 A 
ATOM      6  C   UNL     1       5.470   5.649  17.338  0.00  0.00    +0.000 A 
ENDROOT
BRANCH   1   7
ATOM      7  C   UNL     1       3.722   3.779  17.996  0.00  0.00    +0.000 C 
ATOM      8  C   UNL     1       2.298   3.767  17.374  0.00  0.00    +0.000 C 
ATOM      9  O   UNL     1       2.212   2.328  17.443  0.00  0.00    +0.000 OA
ATOM     10  C   UNL     1       3.553   2.232  17.953  0.00  0.00    +0.000 C 
BRANCH   7  11
ATOM     11  C   UNL     1       3.807   4.299  19.444  0.00  0.00    +0.000 C 
BRANCH  11  17
ATOM     12  C   UNL     1       0.751   4.486  20.329  0.00  0.00    +0.000 C 
ATOM     13  N   UNL     1       1.767   3.605  20.842  0.00  0.00    +0.000 N 
ATOM     14  C   UNL     1       1.586   2.728  21.871  0.00  0.00    +0.000 A 
ATOM     15  N   UNL     1       2.694   2.060  22.077  0.00  0.00    +0.000 NA
ATOM     16  N   UNL     1       3.627   2.526  21.181  0.00  0.00    +0.000 NA
ATOM     17  C   UNL     1       3.074   3.473  20.451  0.00  0.00    +0.000 A 
ENDBRANCH  11  17
ENDBRANCH   7  11
ENDBRANCH   1   7
BRANCH   5  18
ATOM     18  N   UNL     1       6.869   7.521  16.783  0.00  0.00    +0.000 N 
ATOM     19  C   UNL     1       7.759   7.952  17.754  0.00  0.00    +0.000 C 
ATOM     20  O   UNL     1       8.322   7.252  18.589  0.00  0.00    +0.000 OA
ATOM     21  H   UNL     1       6.639   8.193  16.056  0.00  0.00    +0.000 HD
BRANCH  19  22
ATOM     22  C   UNL     1       8.046   9.437  17.682  0.00  0.00    +0.000 C 
BRANCH  22  23
ATOM     23  C   UNL     1       9.050   9.813  18.763  0.00  0.00    +0.000 C 
BRANCH  23  24
ATOM     24  C   UNL     1       9.683  11.114  18.470  0.00  0.00    +0.000 C 
ATOM     25  N   UNL     1      10.842  11.394  17.971  0.00  0.00    +0.000 NA
ATOM     26  C   UNL     1      10.579  12.846  17.964  0.00  0.00    +0.000 C 
ATOM     27  C   UNL     1       9.209  12.537  18.537  0.00  0.00    +0.000 C 
ENDBRANCH  23  24
ENDBRANCH  22  23
ENDBRANCH  19  22
ENDBRANCH   5  18
TORSDOF 7
ENDMDL
MODEL 3
REMARK VINA RESULT:      -8.0      1.844      2.320
REMARK  Name = 
REMARK  8 active torsions:
REMARK  status: ('A' for Active; 'I' for Inactive)
REMARK    1  A    between atoms: C_1  and  N_2
REMARK    2  A    between atoms: C_6  and  C_7
REMARK    3  A    between atoms: C_7  and  C_8
REMARK    4  A    between atoms: C_8  and  C_9
REMARK    5  A    between atoms: C_13  and  N_14
REMARK    6  A    between atoms: C_15  and  C_17
REMARK    7  A    between atoms: C_17  and  C_18
REMARK    8  A    between atoms: C_18  and  C_19
REMARK                            x       y       z     vdW  Elec       q    Type
REMARK                         _______ _______ _______ _____ _____    ______ ____
ROOT
ATOM      1  C   UNL     1       4.818   4.822  17.416  0.00  0.00    +0.000 A 
ATOM      2  C   UNL     1       5.301   3.949  16.419  0.00  0.00    +0.000 A 
ATOM      3  C   UNL     1       6.408   4.269  15.637  0.00  0.00    +0.000 A 
ATOM      4  C   UNL     1       7.059   5.486  15.816  0.00  0.00    +0.000 A 
ATOM      5  C   UNL     1       6.602   6.393  16.768  0.00  0.00    +0.000 A 
ATOM      6  C   UNL     1       5.516   6.038  17.578  0.00  0.00    +0.000 A 
ENDROOT
BRANCH   1   7
ATOM      7  C   UNL     1       3.530   4.450  18.301  0.00  0.00    +0.000 C 
ATOM      8  C   UNL     1       3.065   5.463  19.383  0.00  0.00    +0.000 C 
ATOM      9  O   UNL     1       1.786   5.657  18.742  0.00  0.00    +0.000 OA
ATOM     10  C   UNL     1       2.156   4.792  17.654  0.00  0.00    +0.000 C 
BRANCH   7  11
ATOM     11  C   UNL     1       3.592   2.979  18.754  0.00  0.00    +0.000 C 
BRANCH  11  17
ATOM     12  C   UNL     1       0.496   2.417  19.264  0.00  0.00    +0.000 C 
ATOM     13  N   UNL     1       1.553   2.495  20.239  0.00  0.00    +0.000 N 
ATOM     14  C   UNL     1       1.371   2.401  21.588  0.00  0.00    +0.000 A 
ATOM     15  N   UNL     1       2.531   2.488  22.191  0.00  0.00    +0.000 NA
ATOM     16  N   UNL     1       3.487   2.665  21.221  0.00  0.00    +0.000 NA
ATOM     17  C   UNL     1       2.895   2.691  20.044  0.00  0.00    +0.000 A 
ENDBRANCH  11  17
ENDBRANCH   7  11
ENDBRANCH   1   7
BRANCH   5  18
ATOM     18  N   UNL     1       7.153   7.679  16.951  0.00  0.00    +0.000 N 
ATOM     19  C   UNL     1       8.036   8.061  17.949  0.00  0.00    +0.000 C 
ATOM     20  O   UNL     1       8.447   7.359  18.867  0.00  0.00    +0.000 OA
ATOM     21  H   UNL     1       7.062   8.318  16.166  0.00  0.00    +0.000 HD
BRANCH  19  22
ATOM     22  C   UNL     1       8.531   9.484  17.795  0.00  0.00    +0.000 C 
BRANCH  22  23
ATOM     23  C   UNL     1       9.147   9.952  19.106  0.00  0.00    +0.000 C 
BRANCH  23  24
ATOM     24  C   UNL     1       9.828  11.250  18.939  0.00  0.00    +0.000 C 
ATOM     25  N   UNL     1       9.411  12.454  19.158  0.00  0.00    +0.000 NA
ATOM     26  C   UNL     1      10.716  13.055  18.820  0.00  0.00    +0.000 C 
ATOM     27  C   UNL     1      11.228  11.648  18.572  0.00  0.00    +0.000 C 
ENDBRANCH  23  24
ENDBRANCH  22  23
ENDBRANCH  19  22
ENDBRANCH   5  18
TORSDOF 7
ENDMDL
MODEL 4
REMARK VINA RESULT:      -7.9      0.779      1.341
REMARK  Name = 
REMARK  8 active torsions:
REMARK  status: ('A' for Active; 'I' for Inactive)
REMARK    1  A    between atoms: C_1  and  N_2
REMARK    2  A    between atoms: C_6  and  C_7
REMARK    3  A    between atoms: C_7  and  C_8
REMARK    4  A    between atoms: C_8  and  C_9
REMARK    5  A    between atoms: C_13  and  N_14
REMARK    6  A    between atoms: C_15  and  C_17
REMARK    7  A    between atoms: C_17  and  C_18
REMARK    8  A    between atoms: C_18  and  C_19
REMARK                            x       y       z     vdW  Elec       q    Type
REMARK                         _______ _______ _______ _____ _____    ______ ____
ROOT
ATOM      1  C   UNL     1       4.935   4.243  17.027  0.00  0.00    +0.000 A 
ATOM      2  C   UNL     1       5.439   3.558  15.902  0.00  0.00    +0.000 A 
ATOM      3  C   UNL     1       6.453   4.093  15.109  0.00  0.00    +0.000 A 
ATOM      4  C   UNL     1       6.985   5.343  15.410  0.00  0.00    +0.000 A 
ATOM      5  C   UNL     1       6.501   6.070  16.493  0.00  0.00    +0.000 A 
ATOM      6  C   UNL     1       5.513   5.500  17.307  0.00  0.00    +0.000 A 
ENDROOT
BRANCH   1   7
ATOM      7  C   UNL     1       3.755   3.625  17.923  0.00  0.00    +0.000 C 
ATOM      8  C   UNL     1       3.574   2.082  17.939  0.00  0.00    +0.000 C 
ATOM      9  O   UNL     1       3.838   2.002  19.356  0.00  0.00    +0.000 OA
ATOM     10  C   UNL     1       4.100   3.415  19.426  0.00  0.00    +0.000 C 
BRANCH   7  11
ATOM     11  C   UNL     1       2.460   4.440  17.747  0.00  0.00    +0.000 C 
BRANCH  11  17
ATOM     12  C   UNL     1       2.956   7.586  17.890  0.00  0.00    +0.000 C 
ATOM     13  N   UNL     1       2.422   6.728  18.915  0.00  0.00    +0.000 N 
ATOM     14  C   UNL     1       2.095   7.136  20.176  0.00  0.00    +0.000 A 
ATOM     15  N   UNL     1       1.616   6.123  20.852  0.00  0.00    +0.000 NA
ATOM     16  N   UNL     1       1.652   5.024  20.028  0.00  0.00    +0.000 NA
ATOM     17  C   UNL     1       2.158   5.385  18.866  0.00  0.00    +0.000 A 
ENDBRANCH  11  17
ENDBRANCH   7  11
ENDBRANCH   1   7
BRANCH   5  18
ATOM     18  N   UNL     1       6.926   7.377  16.811  0.00  0.00    +0.000 N 
ATOM     19  C   UNL     1       7.782   7.735  17.841  0.00  0.00    +0.000 C 
ATOM     20  O   UNL     1       8.273   6.983  18.676  0.00  0.00    +0.000 OA
ATOM     21  H   UNL     1       6.762   8.084  16.099  0.00  0.00    +0.000 HD
BRANCH  19  22
ATOM     22  C   UNL     1       8.134   9.209  17.839  0.00  0.00    +0.000 C 
BRANCH  22  23
ATOM     23  C   UNL     1       9.056   9.512  19.011  0.00  0.00    +0.000 C 
BRANCH  23  24
ATOM     24  C   UNL     1       9.391  10.948  19.065  0.00  0.00    +0.000 C 
ATOM     25  N   UNL     1       9.577  11.806  18.115  0.00  0.00    +0.000 NA
ATOM     26  C   UNL     1       9.764  12.928  19.056  0.00  0.00    +0.000 C 
ATOM     27  C   UNL     1       9.534  11.939  20.183  0.00  0.00    +0.000 C 
ENDBRANCH  23  24
ENDBRANCH  22  23
ENDBRANCH  19  22
ENDBRANCH   5  18
TORSDOF 7
ENDMDL
MODEL 5
REMARK VINA RESULT:      -7.7      1.466      2.058
REMARK  Name = 
REMARK  8 active torsions:
REMARK  status: ('A' for Active; 'I' for Inactive)
REMARK    1  A    between atoms: C_1  and  N_2
REMARK    2  A    between atoms: C_6  and  C_7
REMARK    3  A    between atoms: C_7  and  C_8
REMARK    4  A    between atoms: C_8  and  C_9
REMARK    5  A    between atoms: C_13  and  N_14
REMARK    6  A    between atoms: C_15  and  C_17
REMARK    7  A    between atoms: C_17  and  C_18
REMARK    8  A    between atoms: C_18  and  C_19
REMARK                            x       y       z     vdW  Elec       q    Type
REMARK                         _______ _______ _______ _____ _____    ______ ____
ROOT
ATOM      1  C   UNL     1       4.867   4.523  17.037  0.00  0.00    +0.000 A 
ATOM      2  C   UNL     1       5.394   3.773  15.966  0.00  0.00    +0.000 A 
ATOM      3  C   UNL     1       6.472   4.228  15.210  0.00  0.00    +0.000 A 
ATOM      4  C   UNL     1       7.049   5.462  15.493  0.00  0.00    +0.000 A 
ATOM      5  C   UNL     1       6.546   6.253  16.523  0.00  0.00    +0.000 A 
ATOM      6  C   UNL     1       5.490   5.762  17.303  0.00  0.00    +0.000 A 
ENDROOT
BRANCH   1   7
ATOM      7  C   UNL     1       3.613   3.996  17.891  0.00  0.00    +0.000 C 
ATOM      8  C   UNL     1       2.201   4.076  17.249  0.00  0.00    +0.000 C 
ATOM      9  O   UNL     1       2.030   2.643  17.294  0.00  0.00    +0.000 OA
ATOM     10  C   UNL     1       3.356   2.463  17.821  0.00  0.00    +0.000 C 
BRANCH   7  11
ATOM     11  C   UNL     1       3.706   4.489  19.348  0.00  0.00    +0.000 C 
BRANCH  11  17
ATOM     12  C   UNL     1       4.457   1.878  21.014  0.00  0.00    +0.000 C 
ATOM     13  N   UNL     1       3.202   2.582  20.992  0.00  0.00    +0.000 N 
ATOM     14  C   UNL     1       2.078   2.185  21.657  0.00  0.00    +0.000 A 
ATOM     15  N   UNL     1       1.119   3.052  21.451  0.00  0.00    +0.000 NA
ATOM     16  N   UNL     1       1.616   4.024  20.616  0.00  0.00    +0.000 NA
ATOM     17  C   UNL     1       2.866   3.728  20.322  0.00  0.00    +0.000 A 
ENDBRANCH  11  17
ENDBRANCH   7  11
ENDBRANCH   1   7
BRANCH   5  18
ATOM     18  N   UNL     1       7.018   7.550  16.815  0.00  0.00    +0.000 N 
ATOM     19  C   UNL     1       7.872   7.900  17.849  0.00  0.00    +0.000 C 
ATOM     20  O   UNL     1       8.320   7.150  18.710  0.00  0.00    +0.000 OA
ATOM     21  H   UNL     1       6.892   8.245  16.084  0.00  0.00    +0.000 HD
BRANCH  19  22
ATOM     22  C   UNL     1       8.281   9.358  17.817  0.00  0.00    +0.000 C 
BRANCH  22  23
ATOM     23  C   UNL     1       9.056   9.696  19.083  0.00  0.00    +0.000 C 
BRANCH  23  24
ATOM     24  C   UNL     1       9.706  11.016  18.971  0.00  0.00    +0.000 C 
ATOM     25  N   UNL     1      10.952  11.333  18.834  0.00  0.00    +0.000 NA
ATOM     26  C   UNL     1      10.658  12.775  18.727  0.00  0.00    +0.000 C 
ATOM     27  C   UNL     1       9.189  12.422  18.872  0.00  0.00    +0.000 C 
ENDBRANCH  23  24
ENDBRANCH  22  23
ENDBRANCH  19  22
ENDBRANCH   5  18
TORSDOF 7
ENDMDL
MODEL 6
REMARK VINA RESULT:      -7.6      1.572      2.080
REMARK  Name = 
REMARK  8 active torsions:
REMARK  status: ('A' for Active; 'I' for Inactive)
REMARK    1  A    between atoms: C_1  and  N_2
REMARK    2  A    between atoms: C_6  and  C_7
REMARK    3  A    between atoms: C_7  and  C_8
REMARK    4  A    between atoms: C_8  and  C_9
REMARK    5  A    between atoms: C_13  and  N_14
REMARK    6  A    between atoms: C_15  and  C_17
REMARK    7  A    between atoms: C_17  and  C_18
REMARK    8  A    between atoms: C_18  and  C_19
REMARK                            x       y       z     vdW  Elec       q    Type
REMARK                         _______ _______ _______ _____ _____    ______ ____
ROOT
ATOM      1  C   UNL     1       4.208   5.166  17.545  0.00  0.00    +0.000 A 
ATOM      2  C   UNL     1       4.572   4.215  16.570  0.00  0.00    +0.000 A 
ATOM      3  C   UNL     1       5.713   4.367  15.784  0.00  0.00    +0.000 A 
ATOM      4  C   UNL     1       6.519   5.491  15.938  0.00  0.00    +0.000 A 
ATOM      5  C   UNL     1       6.186   6.472  16.868  0.00  0.00    +0.000 A 
ATOM      6  C   UNL     1       5.061   6.283  17.682  0.00  0.00    +0.000 A 
ENDROOT
BRANCH   1   7
ATOM      7  C   UNL     1       2.882   4.989  18.433  0.00  0.00    +0.000 C 
ATOM      8  C   UNL     1       1.538   4.723  17.702  0.00  0.00    +0.000 C 
ATOM      9  O   UNL     1       1.375   3.436  18.336  0.00  0.00    +0.000 OA
ATOM     10  C   UNL     1       2.646   3.558  18.999  0.00  0.00    +0.000 C 
BRANCH   7  11
ATOM     11  C   UNL     1       2.831   6.054  19.545  0.00  0.00    +0.000 C 
BRANCH  11  17
ATOM     12  C   UNL     1       1.296   8.235  21.291  0.00  0.00    +0.000 C 
ATOM     13  N   UNL     1       1.595   8.280  19.883  0.00  0.00    +0.000 N 
ATOM     14  C   UNL     1       1.194   9.272  19.036  0.00  0.00    +0.000 A 
ATOM     15  N   UNL     1       1.648   9.028  17.832  0.00  0.00    +0.000 NA
ATOM     16  N   UNL     1       2.339   7.842  17.885  0.00  0.00    +0.000 NA
ATOM     17  C   UNL     1       2.290   7.380  19.118  0.00  0.00    +0.000 A 
ENDBRANCH  11  17
ENDBRANCH   7  11
ENDBRANCH   1   7
BRANCH   5  18
ATOM     18  N   UNL     1       6.902   7.678  17.023  0.00  0.00    +0.000 N 
ATOM     19  C   UNL     1       7.912   7.922  17.940  0.00  0.00    +0.000 C 
ATOM     20  O   UNL     1       8.317   7.148  18.801  0.00  0.00    +0.000 OA
ATOM     21  H   UNL     1       6.817   8.347  16.262  0.00  0.00    +0.000 HD
BRANCH  19  22
ATOM     22  C   UNL     1       8.558   9.281  17.768  0.00  0.00    +0.000 C 
BRANCH  22  23
ATOM     23  C   UNL     1       9.053   9.782  19.118  0.00  0.00    +0.000 C 
BRANCH  23  24
ATOM     24  C   UNL     1       9.982  10.917  18.954  0.00  0.00    +0.000 C 
ATOM     25  N   UNL     1      10.331  11.575  17.897  0.00  0.00    +0.000 NA
ATOM     26  C   UNL     1      11.167  12.520  18.662  0.00  0.00    +0.000 C 
ATOM     27  C   UNL     1      10.757  11.770  19.916  0.00  0.00    +0.000 C 
ENDBRANCH  23  24
ENDBRANCH  22  23
ENDBRANCH  19  22
ENDBRANCH   5  18
TORSDOF 7
ENDMDL
MODEL 7
REMARK VINA RESULT:      -7.5      3.820      6.352
REMARK  Name = 
REMARK  8 active torsions:
REMARK  status: ('A' for Active; 'I' for Inactive)
REMARK    1  A    between atoms: C_1  and  N_2
REMARK    2  A    between atoms: C_6  and  C_7
REMARK    3  A    between atoms: C_7  and  C_8
REMARK    4  A    between atoms: C_8  and  C_9
REMARK    5  A    between atoms: C_13  and  N_14
REMARK    6  A    between atoms: C_15  and  C_17
REMARK    7  A    between atoms: C_17  and  C_18
REMARK    8  A    between atoms: C_18  and  C_19
REMARK                            x       y       z     vdW  Elec       q    Type
REMARK                         _______ _______ _______ _____ _____    ______ ____
ROOT
ATOM      1  C   UNL     1       4.357   6.031  18.241  0.00  0.00    +0.000 A 
ATOM      2  C   UNL     1       5.217   5.681  19.302  0.00  0.00    +0.000 A 
ATOM      3  C   UNL     1       6.558   5.370  19.089  0.00  0.00    +0.000 A 
ATOM      4  C   UNL     1       7.079   5.384  17.799  0.00  0.00    +0.000 A 
ATOM      5  C   UNL     1       6.263   5.695  16.715  0.00  0.00    +0.000 A 
ATOM      6  C   UNL     1       4.928   6.049  16.949  0.00  0.00    +0.000 A 
ENDROOT
BRANCH   1   7
ATOM      7  C   UNL     1       2.808   6.370  18.496  0.00  0.00    +0.000 C 
ATOM      8  C   UNL     1       2.371   6.774  19.931  0.00  0.00    +0.000 C 
ATOM      9  O   UNL     1       1.935   8.081  19.498  0.00  0.00    +0.000 OA
ATOM     10  C   UNL     1       2.380   7.828  18.154  0.00  0.00    +0.000 C 
BRANCH   7  11
ATOM     11  C   UNL     1       1.907   5.336  17.796  0.00  0.00    +0.000 C 
BRANCH  11  17
ATOM     12  C   UNL     1       0.905   3.686  20.332  0.00  0.00    +0.000 C 
ATOM     13  N   UNL     1       1.778   3.242  19.278  0.00  0.00    +0.000 N 
ATOM     14  C   UNL     1       2.385   2.021  19.236  0.00  0.00    +0.000 A 
ATOM     15  N   UNL     1       3.091   1.921  18.137  0.00  0.00    +0.000 NA
ATOM     16  N   UNL     1       2.964   3.109  17.458  0.00  0.00    +0.000 NA
ATOM     17  C   UNL     1       2.188   3.913  18.156  0.00  0.00    +0.000 A 
ENDBRANCH  11  17
ENDBRANCH   7  11
ENDBRANCH   1   7
BRANCH   5  18
ATOM     18  N   UNL     1       6.694   5.647  15.372  0.00  0.00    +0.000 N 
ATOM     19  C   UNL     1       6.665   4.539  14.540  0.00  0.00    +0.000 C 
ATOM     20  O   UNL     1       6.306   3.407  14.845  0.00  0.00    +0.000 OA
ATOM     21  H   UNL     1       6.837   6.545  14.917  0.00  0.00    +0.000 HD
BRANCH  19  22
ATOM     22  C   UNL     1       7.089   4.849  13.119  0.00  0.00    +0.000 C 
BRANCH  22  23
ATOM     23  C   UNL     1       7.107   3.565  12.302  0.00  0.00    +0.000 C 
BRANCH  23  24
ATOM     24  C   UNL     1       5.763   3.248  11.781  0.00  0.00    +0.000 C 
ATOM     25  N   UNL     1       5.276   2.141  11.323  0.00  0.00    +0.000 NA
ATOM     26  C   UNL     1       3.930   2.716  11.136  0.00  0.00    +0.000 C 
ATOM     27  C   UNL     1       4.479   4.020  11.684  0.00  0.00    +0.000 C 
ENDBRANCH  23  24
ENDBRANCH  22  23
ENDBRANCH  19  22
ENDBRANCH   5  18
TORSDOF 7
ENDMDL
MODEL 8
REMARK VINA RESULT:      -7.5      4.428      6.957
REMARK  Name = 
REMARK  8 active torsions:
REMARK  status: ('A' for Active; 'I' for Inactive)
REMARK    1  A    between atoms: C_1  and  N_2
REMARK    2  A    between atoms: C_6  and  C_7
REMARK    3  A    between atoms: C_7  and  C_8
REMARK    4  A    between atoms: C_8  and  C_9
REMARK    5  A    between atoms: C_13  and  N_14
REMARK    6  A    between atoms: C_15  and  C_17
REMARK    7  A    between atoms: C_17  and  C_18
REMARK    8  A    between atoms: C_18  and  C_19
REMARK                            x       y       z     vdW  Elec       q    Type
REMARK                         _______ _______ _______ _____ _____    ______ ____
ROOT
ATOM      1  C   UNL     1       2.530   7.402  18.543  0.00  0.00    +0.000 A 
ATOM      2  C   UNL     1       2.719   8.431  17.598  0.00  0.00    +0.000 A 
ATOM      3  C   UNL     1       2.131   9.685  17.749  0.00  0.00    +0.000 A 
ATOM      4  C   UNL     1       1.317   9.944  18.847  0.00  0.00    +0.000 A 
ATOM      5  C   UNL     1       1.075   8.951  19.792  0.00  0.00    +0.000 A 
ATOM      6  C   UNL     1       1.710   7.710  19.651  0.00  0.00    +0.000 A 
ENDROOT
BRANCH   1   7
ATOM      7  C   UNL     1       3.198   5.955  18.350  0.00  0.00    +0.000 C 
ATOM      8  C   UNL     1       4.443   5.837  17.427  0.00  0.00    +0.000 C 
ATOM      9  O   UNL     1       5.282   5.384  18.511  0.00  0.00    +0.000 OA
ATOM     10  C   UNL     1       4.209   5.535  19.457  0.00  0.00    +0.000 C 
BRANCH   7  11
ATOM     11  C   UNL     1       2.113   4.882  18.138  0.00  0.00    +0.000 C 
BRANCH  11  17
ATOM     12  C   UNL     1       3.288   1.955  18.600  0.00  0.00    +0.000 C 
ATOM     13  N   UNL     1       2.389   2.691  19.450  0.00  0.00    +0.000 N 
ATOM     14  C   UNL     1       1.830   2.202  20.595  0.00  0.00    +0.000 A 
ATOM     15  N   UNL     1       1.082   3.127  21.144  0.00  0.00    +0.000 NA
ATOM     16  N   UNL     1       1.133   4.234  20.331  0.00  0.00    +0.000 NA
ATOM     17  C   UNL     1       1.904   3.963  19.298  0.00  0.00    +0.000 A 
ENDBRANCH  11  17
ENDBRANCH   7  11
ENDBRANCH   1   7
BRANCH   5  18
ATOM     18  N   UNL     1       0.195   9.107  20.884  0.00  0.00    +0.000 N 
ATOM     19  C   UNL     1       0.544   9.475  22.174  0.00  0.00    +0.000 C 
ATOM     20  O   UNL     1       1.678   9.679  22.593  0.00  0.00    +0.000 OA
ATOM     21  H   UNL     1      -0.794   9.162  20.654  0.00  0.00    +0.000 HD
BRANCH  19  22
ATOM     22  C   UNL     1      -0.653   9.669  23.082  0.00  0.00    +0.000 C 
BRANCH  22  23
ATOM     23  C   UNL     1      -0.982  11.152  23.179  0.00  0.00    +0.000 C 
BRANCH  23  24
ATOM     24  C   UNL     1      -0.854  11.811  21.864  0.00  0.00    +0.000 C 
ATOM     25  N   UNL     1      -1.621  11.772  20.824  0.00  0.00    +0.000 NA
ATOM     26  C   UNL     1      -0.796  12.741  20.077  0.00  0.00    +0.000 C 
ATOM     27  C   UNL     1       0.109  12.811  21.294  0.00  0.00    +0.000 C 
ENDBRANCH  23  24
ENDBRANCH  22  23
ENDBRANCH  19  22
ENDBRANCH   5  18
TORSDOF 7
ENDMDL
MODEL 9
REMARK VINA RESULT:      -7.4      3.533      7.153
REMARK  Name = 
REMARK  8 active torsions:
REMARK  status: ('A' for Active; 'I' for Inactive)
REMARK    1  A    between atoms: C_1  and  N_2
REMARK    2  A    between atoms: C_6  and  C_7
REMARK    3  A    between atoms: C_7  and  C_8
REMARK    4  A    between atoms: C_8  and  C_9
REMARK    5  A    between atoms: C_13  and  N_14
REMARK    6  A    between atoms: C_15  and  C_17
REMARK    7  A    between atoms: C_17  and  C_18
REMARK    8  A    between atoms: C_18  and  C_19
REMARK                            x       y       z     vdW  Elec       q    Type
REMARK                         _______ _______ _______ _____ _____    ______ ____
ROOT
ATOM      1  C   UNL     1       4.573   4.910  17.222  0.00  0.00    +0.000 A 
ATOM      2  C   UNL     1       3.760   3.773  17.037  0.00  0.00    +0.000 A 
ATOM      3  C   UNL     1       2.423   3.754  17.428  0.00  0.00    +0.000 A 
ATOM      4  C   UNL     1       1.860   4.872  18.035  0.00  0.00    +0.000 A 
ATOM      5  C   UNL     1       2.630   6.009  18.265  0.00  0.00    +0.000 A 
ATOM      6  C   UNL     1       3.960   6.029  17.825  0.00  0.00    +0.000 A 
ENDROOT
BRANCH   1   7
ATOM      7  C   UNL     1       6.118   4.915  16.783  0.00  0.00    +0.000 C 
ATOM      8  C   UNL     1       6.851   6.281  16.685  0.00  0.00    +0.000 C 
ATOM      9  O   UNL     1       7.796   5.919  17.714  0.00  0.00    +0.000 OA
ATOM     10  C   UNL     1       7.138   4.659  17.931  0.00  0.00    +0.000 C 
BRANCH   7  11
ATOM     11  C   UNL     1       6.346   3.956  15.599  0.00  0.00    +0.000 C 
BRANCH  11  17
ATOM     12  C   UNL     1       5.725   3.366  12.529  0.00  0.00    +0.000 C 
ATOM     13  N   UNL     1       6.690   4.284  13.075  0.00  0.00    +0.000 N 
ATOM     14  C   UNL     1       7.565   5.023  12.332  0.00  0.00    +0.000 A 
ATOM     15  N   UNL     1       8.287   5.773  13.127  0.00  0.00    +0.000 NA
ATOM     16  N   UNL     1       7.895   5.503  14.416  0.00  0.00    +0.000 NA
ATOM     17  C   UNL     1       6.946   4.589  14.386  0.00  0.00    +0.000 A 
ENDBRANCH  11  17
ENDBRANCH   7  11
ENDBRANCH   1   7
BRANCH   5  18
ATOM     18  N   UNL     1       2.157   7.148  18.951  0.00  0.00    +0.000 N 
ATOM     19  C   UNL     1       1.969   8.412  18.412  0.00  0.00    +0.000 C 
ATOM     20  O   UNL     1       2.226   8.762  17.266  0.00  0.00    +0.000 OA
ATOM     21  H   UNL     1       1.721   6.976  19.852  0.00  0.00    +0.000 HD
BRANCH  19  22
ATOM     22  C   UNL     1       1.336   9.386  19.385  0.00  0.00    +0.000 C 
BRANCH  22  23
ATOM     23  C   UNL     1       1.106  10.720  18.689  0.00  0.00    +0.000 C 
BRANCH  23  24
ATOM     24  C   UNL     1      -0.234  11.255  18.999  0.00  0.00    +0.000 C 
ATOM     25  N   UNL     1      -1.210  11.586  18.218  0.00  0.00    +0.000 NA
ATOM     26  C   UNL     1      -2.110  11.907  19.343  0.00  0.00    +0.000 C 
ATOM     27  C   UNL     1      -0.981  11.509  20.276  0.00  0.00    +0.000 C 
ENDBRANCH  23  24
ENDBRANCH  22  23
ENDBRANCH  19  22
ENDBRANCH   5  18
TORSDOF 7
ENDMDL
