MODEL 1
REMARK VINA RESULT:      -8.2      0.000      0.000
REMARK  Name = 
REMARK  5 active torsions:
REMARK  status: ('A' for Active; 'I' for Inactive)
REMARK    1  A    between atoms: C_1  and  C_2
REMARK    2  A    between atoms: C_6  and  S_7
REMARK    3  A    between atoms: S_7  and  N_10
REMARK    4  A    between atoms: N_10  and  C_11
REMARK    5  A    between atoms: C_14  and  N_15
REMARK                            x       y       z     vdW  Elec       q    Type
REMARK                         _______ _______ _______ _____ _____    ______ ____
ROOT
ATOM      1  N   UNL     1       5.374   5.780  16.201  0.00  0.00    +0.000 N 
ATOM      2  H   UNL     1       4.887   5.833  15.306  0.00  0.00    +0.000 HD
ENDROOT
BRANCH   1   3
ATOM      3  C   UNL     1       4.668   5.184  17.284  0.00  0.00    +0.000 A 
ATOM      4  C   UNL     1       4.837   5.677  18.573  0.00  0.00    +0.000 A 
ATOM      5  C   UNL     1       4.143   5.097  19.644  0.00  0.00    +0.000 A 
ATOM      6  C   UNL     1       3.294   4.002  19.441  0.00  0.00    +0.000 A 
ATOM      7  C   UNL     1       3.161   3.498  18.137  0.00  0.00    +0.000 A 
ATOM      8  C   UNL     1       3.836   4.091  17.064  0.00  0.00    +0.000 A 
BRANCH   6   9
ATOM      9  N   UNL     1       2.581   3.417  20.503  0.00  0.00    +0.000 N 
ATOM     10  N   UNL     1       3.207   2.587  21.402  0.00  0.00    +0.000 NA
ATOM     11  N   UNL     1       2.356   2.155  22.240  0.00  0.00    +0.000 NA
ATOM     12  N   UNL     1       1.142   2.677  21.936  0.00  0.00    +0.000 N 
ATOM     13  C   UNL     1       1.233   3.491  20.828  0.00  0.00    +0.000 A 
ATOM     14  O   UNL     1       0.308   4.096  20.313  0.00  0.00    +0.000 OA
ATOM     15  H   UNL     1       0.309   2.463  22.458  0.00  0.00    +0.000 HD
ENDBRANCH   6   9
ENDBRANCH   1   3
BRANCH   1  16
ATOM     16  S   UNL     1       7.001   5.366  15.971  0.00  0.00    +0.000 S 
ATOM     17  O   UNL     1       7.276   4.151  16.707  0.00  0.00    +0.000 OA
ATOM     18  O   UNL     1       7.781   6.565  16.194  0.00  0.00    +0.000 OA
BRANCH  16  24
ATOM     19  C   UNL     1       5.537   2.506  11.856  0.00  0.00    +0.000 C 
ATOM     20  C   UNL     1       6.373   3.633  12.382  0.00  0.00    +0.000 A 
ATOM     21  C   UNL     1       7.232   4.354  11.544  0.00  0.00    +0.000 A 
ATOM     22  C   UNL     1       8.022   5.389  12.057  0.00  0.00    +0.000 A 
ATOM     23  C   UNL     1       7.963   5.713  13.413  0.00  0.00    +0.000 A 
ATOM     24  C   UNL     1       7.107   4.995  14.250  0.00  0.00    +0.000 A 
ATOM     25  C   UNL     1       6.314   3.972  13.739  0.00  0.00    +0.000 A 
ATOM     26  F   UNL     1       5.526   3.254  14.553  0.00  0.00    +0.000 F 
ENDBRANCH  16  24
ENDBRANCH   1  16
TORSDOF 4
ENDMDL
MODEL 2
REMARK VINA RESULT:      -8.1      0.569      1.122
REMARK  Name = 
REMARK  5 active torsions:
REMARK  status: ('A' for Active; 'I' for Inactive)
REMARK    1  A    between atoms: C_1  and  C_2
REMARK    2  A    between atoms: C_6  and  S_7
REMARK    3  A    between atoms: S_7  and  N_10
REMARK    4  A    between atoms: N_10  and  C_11
REMARK    5  A    between atoms: C_14  and  N_15
REMARK                            x       y       z     vdW  Elec       q    Type
REMARK                         _______ _______ _______ _____ _____    ______ ____
ROOT
ATOM      1  N   UNL     1       5.315   5.890  16.160  0.00  0.00    +0.000 N 
ATOM      2  H   UNL     1       4.871   6.005  15.248  0.00  0.00    +0.000 HD
ENDROOT
BRANCH   1   3
ATOM      3  C   UNL     1       4.532   5.293  17.187  0.00  0.00    +0.000 A 
ATOM      4  C   UNL     1       3.905   4.073  16.957  0.00  0.00    +0.000 A 
ATOM      5  C   UNL     1       3.135   3.477  17.965  0.00  0.00    +0.000 A 
ATOM      6  C   UNL     1       2.962   4.107  19.204  0.00  0.00    +0.000 A 
ATOM      7  C   UNL     1       3.577   5.353  19.406  0.00  0.00    +0.000 A 
ATOM      8  C   UNL     1       4.365   5.938  18.409  0.00  0.00    +0.000 A 
BRANCH   6   9
ATOM      9  N   UNL     1       2.204   3.516  20.230  0.00  0.00    +0.000 N 
ATOM     10  N   UNL     1       2.665   3.492  21.525  0.00  0.00    +0.000 NA
ATOM     11  N   UNL     1       1.830   2.876  22.258  0.00  0.00    +0.000 NA
ATOM     12  N   UNL     1       0.790   2.472  21.488  0.00  0.00    +0.000 N 
ATOM     13  C   UNL     1       0.983   2.856  20.179  0.00  0.00    +0.000 A 
ATOM     14  O   UNL     1       0.222   2.632  19.253  0.00  0.00    +0.000 OA
ATOM     15  H   UNL     1       0.011   1.950  21.853  0.00  0.00    +0.000 HD
ENDBRANCH   6   9
ENDBRANCH   1   3
BRANCH   1  16
ATOM     16  S   UNL     1       6.926   5.396  15.979  0.00  0.00    +0.000 S 
ATOM     17  O   UNL     1       7.124   4.181  16.741  0.00  0.00    +0.000 OA
ATOM     18  O   UNL     1       7.756   6.560  16.206  0.00  0.00    +0.000 OA
BRANCH  16  24
ATOM     19  C   UNL     1       5.496   2.486  11.888  0.00  0.00    +0.000 C 
ATOM     20  C   UNL     1       6.340   3.609  12.410  0.00  0.00    +0.000 A 
ATOM     21  C   UNL     1       7.227   4.302  11.576  0.00  0.00    +0.000 A 
ATOM     22  C   UNL     1       8.023   5.333  12.087  0.00  0.00    +0.000 A 
ATOM     23  C   UNL     1       7.943   5.682  13.436  0.00  0.00    +0.000 A 
ATOM     24  C   UNL     1       7.059   4.992  14.267  0.00  0.00    +0.000 A 
ATOM     25  C   UNL     1       6.260   3.973  13.759  0.00  0.00    +0.000 A 
ATOM     26  F   UNL     1       5.445   3.282  14.570  0.00  0.00    +0.000 F 
ENDBRANCH  16  24
ENDBRANCH   1  16
TORSDOF 4
ENDMDL
MODEL 3
REMARK VINA RESULT:      -8.1      3.374      7.798
REMARK  Name = 
REMARK  5 active torsions:
REMARK  status: ('A' for Active; 'I' for Inactive)
REMARK    1  A    between atoms: C_1  and  C_2
REMARK    2  A    between atoms: C_6  and  S_7
REMARK    3  A    between atoms: S_7  and  N_10
REMARK    4  A    between atoms: N_10  and  C_11
REMARK    5  A    between atoms: C_14  and  N_15
REMARK                            x       y       z     vdW  Elec       q    Type
REMARK                         _______ _______ _______ _____ _____    ______ ____
ROOT
ATOM      1  N   UNL     1       4.272   6.259  18.866  0.00  0.00    +0.000 N 
ATOM      2  H   UNL     1       4.654   5.811  19.699  0.00  0.00    +0.000 HD
ENDROOT
BRANCH   1   3
ATOM      3  C   UNL     1       4.783   5.826  17.610  0.00  0.00    +0.000 A 
ATOM      4  C   UNL     1       5.188   4.506  17.447  0.00  0.00    +0.000 A 
ATOM      5  C   UNL     1       5.689   4.072  16.212  0.00  0.00    +0.000 A 
ATOM      6  C   UNL     1       5.815   4.959  15.135  0.00  0.00    +0.000 A 
ATOM      7  C   UNL     1       5.430   6.295  15.329  0.00  0.00    +0.000 A 
ATOM      8  C   UNL     1       4.908   6.725  16.555  0.00  0.00    +0.000 A 
BRANCH   6   9
ATOM      9  N   UNL     1       6.303   4.536  13.886  0.00  0.00    +0.000 N 
ATOM     10  N   UNL     1       5.654   3.558  13.169  0.00  0.00    +0.000 NA
ATOM     11  N   UNL     1       6.299   3.321  12.101  0.00  0.00    +0.000 NA
ATOM     12  N   UNL     1       7.391   4.125  12.064  0.00  0.00    +0.000 N 
ATOM     13  C   UNL     1       7.440   4.921  13.188  0.00  0.00    +0.000 A 
ATOM     14  O   UNL     1       8.305   5.741  13.441  0.00  0.00    +0.000 OA
ATOM     15  H   UNL     1       8.060   4.102  11.314  0.00  0.00    +0.000 HD
ENDBRANCH   6   9
ENDBRANCH   1   3
BRANCH   1  16
ATOM     16  S   UNL     1       2.600   6.485  19.025  0.00  0.00    +0.000 S 
ATOM     17  O   UNL     1       2.087   7.024  17.784  0.00  0.00    +0.000 OA
ATOM     18  O   UNL     1       2.381   7.170  20.282  0.00  0.00    +0.000 OA
BRANCH  16  24
ATOM     19  C   UNL     1       1.443   2.393  22.052  0.00  0.00    +0.000 C 
ATOM     20  C   UNL     1       1.444   2.992  20.678  0.00  0.00    +0.000 A 
ATOM     21  C   UNL     1       0.982   2.271  19.570  0.00  0.00    +0.000 A 
ATOM     22  C   UNL     1       1.012   2.838  18.291  0.00  0.00    +0.000 A 
ATOM     23  C   UNL     1       1.505   4.131  18.106  0.00  0.00    +0.000 A 
ATOM     24  C   UNL     1       1.965   4.850  19.211  0.00  0.00    +0.000 A 
ATOM     25  C   UNL     1       1.928   4.290  20.483  0.00  0.00    +0.000 A 
ATOM     26  F   UNL     1       2.413   4.966  21.536  0.00  0.00    +0.000 F 
ENDBRANCH  16  24
ENDBRANCH   1  16
TORSDOF 4
ENDMDL
MODEL 4
REMARK VINA RESULT:      -7.8      5.087      6.542
REMARK  Name = 
REMARK  5 active torsions:
REMARK  status: ('A' for Active; 'I' for Inactive)
REMARK    1  A    between atoms: C_1  and  C_2
REMARK    2  A    between atoms: C_6  and  S_7
REMARK    3  A    between atoms: S_7  and  N_10
REMARK    4  A    between atoms: N_10  and  C_11
REMARK    5  A    between atoms: C_14  and  N_15
REMARK                            x       y       z     vdW  Elec       q    Type
REMARK                         _______ _______ _______ _____ _____    ______ ____
ROOT
ATOM      1  N   UNL     1       2.962   6.302  20.086  0.00  0.00    +0.000 N 
ATOM      2  H   UNL     1       3.894   6.459  20.469  0.00  0.00    +0.000 HD
ENDROOT
BRANCH   1   3
ATOM      3  C   UNL     1       2.229   7.452  19.681  0.00  0.00    +0.000 A 
ATOM      4  C   UNL     1       2.397   7.962  18.398  0.00  0.00    +0.000 A 
ATOM      5  C   UNL     1       1.677   9.093  17.991  0.00  0.00    +0.000 A 
ATOM      6  C   UNL     1       0.801   9.742  18.870  0.00  0.00    +0.000 A 
ATOM      7  C   UNL     1       0.668   9.232  20.171  0.00  0.00    +0.000 A 
ATOM      8  C   UNL     1       1.370   8.089  20.572  0.00  0.00    +0.000 A 
BRANCH   6   9
ATOM      9  N   UNL     1       0.061  10.870  18.472  0.00  0.00    +0.000 N 
ATOM     10  N   UNL     1       0.528  12.141  18.711  0.00  0.00    +0.000 NA
ATOM     11  N   UNL     1      -0.324  12.987  18.299  0.00  0.00    +0.000 NA
ATOM     12  N   UNL     1      -1.381  12.320  17.773  0.00  0.00    +0.000 N 
ATOM     13  C   UNL     1      -1.183  10.959  17.863  0.00  0.00    +0.000 A 
ATOM     14  O   UNL     1      -1.960  10.101  17.480  0.00  0.00    +0.000 OA
ATOM     15  H   UNL     1      -2.189  12.786  17.396  0.00  0.00    +0.000 HD
ENDBRANCH   6   9
ENDBRANCH   1   3
BRANCH   1  16
ATOM     16  S   UNL     1       2.954   4.940  19.076  0.00  0.00    +0.000 S 
ATOM     17  O   UNL     1       1.988   5.155  18.020  0.00  0.00    +0.000 OA
ATOM     18  O   UNL     1       2.873   3.776  19.933  0.00  0.00    +0.000 OA
BRANCH  16  24
ATOM     19  C   UNL     1       6.131   3.755  15.108  0.00  0.00    +0.000 C 
ATOM     20  C   UNL     1       5.976   4.367  16.467  0.00  0.00    +0.000 A 
ATOM     21  C   UNL     1       7.075   4.897  17.155  0.00  0.00    +0.000 A 
ATOM     22  C   UNL     1       6.915   5.444  18.434  0.00  0.00    +0.000 A 
ATOM     23  C   UNL     1       5.657   5.466  19.038  0.00  0.00    +0.000 A 
ATOM     24  C   UNL     1       4.562   4.938  18.352  0.00  0.00    +0.000 A 
ATOM     25  C   UNL     1       4.718   4.402  17.078  0.00  0.00    +0.000 A 
ATOM     26  F   UNL     1       3.672   3.854  16.440  0.00  0.00    +0.000 F 
ENDBRANCH  16  24
ENDBRANCH   1  16
TORSDOF 4
ENDMDL
MODEL 5
REMARK VINA RESULT:      -7.8      4.057      8.137
REMARK  Name = 
REMARK  5 active torsions:
REMARK  status: ('A' for Active; 'I' for Inactive)
REMARK    1  A    between atoms: C_1  and  C_2
REMARK    2  A    between atoms: C_6  and  S_7
REMARK    3  A    between atoms: S_7  and  N_10
REMARK    4  A    between atoms: N_10  and  C_11
REMARK    5  A    between atoms: C_14  and  N_15
REMARK                            x       y       z     vdW  Elec       q    Type
REMARK                         _______ _______ _______ _____ _____    ______ ____
ROOT
ATOM      1  N   UNL     1       4.386   5.948  18.964  0.00  0.00    +0.000 N 
ATOM      2  H   UNL     1       4.935   5.644  19.769  0.00  0.00    +0.000 HD
ENDROOT
BRANCH   1   3
ATOM      3  C   UNL     1       4.873   5.583  17.678  0.00  0.00    +0.000 A 
ATOM      4  C   UNL     1       5.377   4.305  17.466  0.00  0.00    +0.000 A 
ATOM      5  C   UNL     1       5.855   3.938  16.201  0.00  0.00    +0.000 A 
ATOM      6  C   UNL     1       5.858   4.854  15.141  0.00  0.00    +0.000 A 
ATOM      7  C   UNL     1       5.374   6.149  15.382  0.00  0.00    +0.000 A 
ATOM      8  C   UNL     1       4.875   6.510  16.639  0.00  0.00    +0.000 A 
BRANCH   6   9
ATOM      9  N   UNL     1       6.322   4.497  13.862  0.00  0.00    +0.000 N 
ATOM     10  N   UNL     1       5.659   3.558  13.107  0.00  0.00    +0.000 NA
ATOM     11  N   UNL     1       6.283   3.377  12.016  0.00  0.00    +0.000 NA
ATOM     12  N   UNL     1       7.374   4.183  12.000  0.00  0.00    +0.000 N 
ATOM     13  C   UNL     1       7.445   4.919  13.163  0.00  0.00    +0.000 A 
ATOM     14  O   UNL     1       8.315   5.726  13.441  0.00  0.00    +0.000 OA
ATOM     15  H   UNL     1       8.029   4.200  11.236  0.00  0.00    +0.000 HD
ENDBRANCH   6   9
ENDBRANCH   1   3
BRANCH   1  16
ATOM     16  S   UNL     1       2.729   5.786  19.278  0.00  0.00    +0.000 S 
ATOM     17  O   UNL     1       2.560   5.334  20.643  0.00  0.00    +0.000 OA
ATOM     18  O   UNL     1       2.157   5.046  18.173  0.00  0.00    +0.000 OA
BRANCH  16  24
ATOM     19  C   UNL     1       0.378   9.894  21.480  0.00  0.00    +0.000 C 
ATOM     20  C   UNL     1       1.023   9.306  20.261  0.00  0.00    +0.000 A 
ATOM     21  C   UNL     1       1.110  10.029  19.065  0.00  0.00    +0.000 A 
ATOM     22  C   UNL     1       1.695   9.456  17.930  0.00  0.00    +0.000 A 
ATOM     23  C   UNL     1       2.197   8.155  17.979  0.00  0.00    +0.000 A 
ATOM     24  C   UNL     1       2.111   7.434  19.171  0.00  0.00    +0.000 A 
ATOM     25  C   UNL     1       1.538   8.006  20.302  0.00  0.00    +0.000 A 
ATOM     26  F   UNL     1       1.415   7.295  21.433  0.00  0.00    +0.000 F 
ENDBRANCH  16  24
ENDBRANCH   1  16
TORSDOF 4
ENDMDL
MODEL 6
REMARK VINA RESULT:      -7.7      3.213      7.670
REMARK  Name = 
REMARK  5 active torsions:
REMARK  status: ('A' for Active; 'I' for Inactive)
REMARK    1  A    between atoms: C_1  and  C_2
REMARK    2  A    between atoms: C_6  and  S_7
REMARK    3  A    between atoms: S_7  and  N_10
REMARK    4  A    between atoms: N_10  and  C_11
REMARK    5  A    between atoms: C_14  and  N_15
REMARK                            x       y       z     vdW  Elec       q    Type
REMARK                         _______ _______ _______ _____ _____    ______ ____
ROOT
ATOM      1  N   UNL     1       4.207   6.518  18.872  0.00  0.00    +0.000 N 
ATOM      2  H   UNL     1       4.672   6.182  19.715  0.00  0.00    +0.000 HD
ENDROOT
BRANCH   1   3
ATOM      3  C   UNL     1       4.687   6.020  17.629  0.00  0.00    +0.000 A 
ATOM      4  C   UNL     1       4.965   4.665  17.487  0.00  0.00    +0.000 A 
ATOM      5  C   UNL     1       5.435   4.167  16.265  0.00  0.00    +0.000 A 
ATOM      6  C   UNL     1       5.659   5.023  15.179  0.00  0.00    +0.000 A 
ATOM      7  C   UNL     1       5.404   6.393  15.351  0.00  0.00    +0.000 A 
ATOM      8  C   UNL     1       4.912   6.888  16.564  0.00  0.00    +0.000 A 
BRANCH   6   9
ATOM      9  N   UNL     1       6.119   4.537  13.942  0.00  0.00    +0.000 N 
ATOM     10  N   UNL     1       5.407   3.587  13.248  0.00  0.00    +0.000 NA
ATOM     11  N   UNL     1       6.035   3.281  12.188  0.00  0.00    +0.000 NA
ATOM     12  N   UNL     1       7.178   4.010  12.133  0.00  0.00    +0.000 N 
ATOM     13  C   UNL     1       7.279   4.829  13.237  0.00  0.00    +0.000 A 
ATOM     14  O   UNL     1       8.196   5.597  13.470  0.00  0.00    +0.000 OA
ATOM     15  H   UNL     1       7.844   3.925  11.384  0.00  0.00    +0.000 HD
ENDBRANCH   6   9
ENDBRANCH   1   3
BRANCH   1  16
ATOM     16  S   UNL     1       2.531   6.610  19.114  0.00  0.00    +0.000 S 
ATOM     17  O   UNL     1       1.885   6.727  17.824  0.00  0.00    +0.000 OA
ATOM     18  O   UNL     1       2.305   7.593  20.152  0.00  0.00    +0.000 OA
BRANCH  16  24
ATOM     19  C   UNL     1       0.536   1.819  18.544  0.00  0.00    +0.000 C 
ATOM     20  C   UNL     1       1.181   2.824  19.451  0.00  0.00    +0.000 A 
ATOM     21  C   UNL     1       1.419   2.537  20.801  0.00  0.00    +0.000 A 
ATOM     22  C   UNL     1       2.002   3.495  21.639  0.00  0.00    +0.000 A 
ATOM     23  C   UNL     1       2.349   4.750  21.137  0.00  0.00    +0.000 A 
ATOM     24  C   UNL     1       2.112   5.036  19.791  0.00  0.00    +0.000 A 
ATOM     25  C   UNL     1       1.542   4.082  18.956  0.00  0.00    +0.000 A 
ATOM     26  F   UNL     1       1.273   4.375  17.675  0.00  0.00    +0.000 F 
ENDBRANCH  16  24
ENDBRANCH   1  16
TORSDOF 4
ENDMDL
MODEL 7
REMARK VINA RESULT:      -7.7      3.787      8.088
REMARK  Name = 
REMARK  5 active torsions:
REMARK  status: ('A' for Active; 'I' for Inactive)
REMARK    1  A    between atoms: C_1  and  C_2
REMARK    2  A    between atoms: C_6  and  S_7
REMARK    3  A    between atoms: S_7  and  N_10
REMARK    4  A    between atoms: N_10  and  C_11
REMARK    5  A    between atoms: C_14  and  N_15
REMARK                            x       y       z     vdW  Elec       q    Type
REMARK                         _______ _______ _______ _____ _____    ______ ____
ROOT
ATOM      1  N   UNL     1       4.292   5.917  18.946  0.00  0.00    +0.000 N 
ATOM      2  H   UNL     1       4.900   5.739  19.746  0.00  0.00    +0.000 HD
ENDROOT
BRANCH   1   3
ATOM      3  C   UNL     1       4.792   5.553  17.664  0.00  0.00    +0.000 A 
ATOM      4  C   UNL     1       4.898   6.515  16.665  0.00  0.00    +0.000 A 
ATOM      5  C   UNL     1       5.391   6.165  15.401  0.00  0.00    +0.000 A 
ATOM      6  C   UNL     1       5.758   4.845  15.114  0.00  0.00    +0.000 A 
ATOM      7  C   UNL     1       5.614   3.881  16.125  0.00  0.00    +0.000 A 
ATOM      8  C   UNL     1       5.143   4.234  17.395  0.00  0.00    +0.000 A 
BRANCH   6   9
ATOM      9  N   UNL     1       6.268   4.480  13.854  0.00  0.00    +0.000 N 
ATOM     10  N   UNL     1       5.648   3.516  13.094  0.00  0.00    +0.000 NA
ATOM     11  N   UNL     1       6.309   3.335  12.025  0.00  0.00    +0.000 NA
ATOM     12  N   UNL     1       7.382   4.164  12.030  0.00  0.00    +0.000 N 
ATOM     13  C   UNL     1       7.402   4.917  13.183  0.00  0.00    +0.000 A 
ATOM     14  O   UNL     1       8.246   5.747  13.476  0.00  0.00    +0.000 OA
ATOM     15  H   UNL     1       8.059   4.185  11.286  0.00  0.00    +0.000 HD
ENDBRANCH   6   9
ENDBRANCH   1   3
BRANCH   1  16
ATOM     16  S   UNL     1       2.684   5.539  19.324  0.00  0.00    +0.000 S 
ATOM     17  O   UNL     1       2.674   4.670  20.482  0.00  0.00    +0.000 OA
ATOM     18  O   UNL     1       2.039   5.142  18.090  0.00  0.00    +0.000 OA
BRANCH  16  24
ATOM     19  C   UNL     1       1.380  10.462  18.181  0.00  0.00    +0.000 C 
ATOM     20  C   UNL     1       1.396   9.359  19.195  0.00  0.00    +0.000 A 
ATOM     21  C   UNL     1       0.896   9.553  20.489  0.00  0.00    +0.000 A 
ATOM     22  C   UNL     1       0.940   8.519  21.431  0.00  0.00    +0.000 A 
ATOM     23  C   UNL     1       1.485   7.280  21.089  0.00  0.00    +0.000 A 
ATOM     24  C   UNL     1       1.983   7.085  19.800  0.00  0.00    +0.000 A 
ATOM     25  C   UNL     1       1.932   8.110  18.861  0.00  0.00    +0.000 A 
ATOM     26  F   UNL     1       2.452   7.935  17.636  0.00  0.00    +0.000 F 
ENDBRANCH  16  24
ENDBRANCH   1  16
TORSDOF 4
ENDMDL
MODEL 8
REMARK VINA RESULT:      -7.7      5.219      6.755
REMARK  Name = 
REMARK  5 active torsions:
REMARK  status: ('A' for Active; 'I' for Inactive)
REMARK    1  A    between atoms: C_1  and  C_2
REMARK    2  A    between atoms: C_6  and  S_7
REMARK    3  A    between atoms: S_7  and  N_10
REMARK    4  A    between atoms: N_10  and  C_11
REMARK    5  A    between atoms: C_14  and  N_15
REMARK                            x       y       z     vdW  Elec       q    Type
REMARK                         _______ _______ _______ _____ _____    ______ ____
ROOT
ATOM      1  N   UNL     1       3.049   6.355  19.999  0.00  0.00    +0.000 N 
ATOM      2  H   UNL     1       4.050   6.512  20.119  0.00  0.00    +0.000 HD
ENDROOT
BRANCH   1   3
ATOM      3  C   UNL     1       2.265   7.473  19.598  0.00  0.00    +0.000 A 
ATOM      4  C   UNL     1       2.323   7.924  18.284  0.00  0.00    +0.000 A 
ATOM      5  C   UNL     1       1.552   9.022  17.882  0.00  0.00    +0.000 A 
ATOM      6  C   UNL     1       0.734   9.699  18.796  0.00  0.00    +0.000 A 
ATOM      7  C   UNL     1       0.712   9.249  20.126  0.00  0.00    +0.000 A 
ATOM      8  C   UNL     1       1.465   8.138  20.523  0.00  0.00    +0.000 A 
BRANCH   6   9
ATOM      9  N   UNL     1      -0.056  10.794  18.406  0.00  0.00    +0.000 N 
ATOM     10  N   UNL     1       0.330  12.082  18.693  0.00  0.00    +0.000 NA
ATOM     11  N   UNL     1      -0.556  12.891  18.277  0.00  0.00    +0.000 NA
ATOM     12  N   UNL     1      -1.557  12.180  17.700  0.00  0.00    +0.000 N 
ATOM     13  C   UNL     1      -1.285  10.831  17.759  0.00  0.00    +0.000 A 
ATOM     14  O   UNL     1      -1.999   9.942  17.329  0.00  0.00    +0.000 OA
ATOM     15  H   UNL     1      -2.378  12.612  17.310  0.00  0.00    +0.000 HD
ENDBRANCH   6   9
ENDBRANCH   1   3
BRANCH   1  16
ATOM     16  S   UNL     1       2.766   4.860  19.251  0.00  0.00    +0.000 S 
ATOM     17  O   UNL     1       1.559   4.961  18.459  0.00  0.00    +0.000 OA
ATOM     18  O   UNL     1       2.904   3.842  20.272  0.00  0.00    +0.000 OA
BRANCH  16  24
ATOM     19  C   UNL     1       7.890   5.129  18.292  0.00  0.00    +0.000 C 
ATOM     20  C   UNL     1       6.520   4.810  17.776  0.00  0.00    +0.000 A 
ATOM     21  C   UNL     1       6.319   4.400  16.452  0.00  0.00    +0.000 A 
ATOM     22  C   UNL     1       5.029   4.127  15.980  0.00  0.00    +0.000 A 
ATOM     23  C   UNL     1       3.928   4.263  16.827  0.00  0.00    +0.000 A 
ATOM     24  C   UNL     1       4.128   4.671  18.147  0.00  0.00    +0.000 A 
ATOM     25  C   UNL     1       5.410   4.933  18.618  0.00  0.00    +0.000 A 
ATOM     26  F   UNL     1       5.594   5.369  19.874  0.00  0.00    +0.000 F 
ENDBRANCH  16  24
ENDBRANCH   1  16
TORSDOF 4
ENDMDL
MODEL 9
REMARK VINA RESULT:      -7.7      4.995      6.383
REMARK  Name = 
REMARK  5 active torsions:
REMARK  status: ('A' for Active; 'I' for Inactive)
REMARK    1  A    between atoms: C_1  and  C_2
REMARK    2  A    between atoms: C_6  and  S_7
REMARK    3  A    between atoms: S_7  and  N_10
REMARK    4  A    between atoms: N_10  and  C_11
REMARK    5  A    between atoms: C_14  and  N_15
REMARK                            x       y       z     vdW  Elec       q    Type
REMARK                         _______ _______ _______ _____ _____    ______ ____
ROOT
ATOM      1  N   UNL     1       3.114   5.916  20.082  0.00  0.00    +0.000 N 
ATOM      2  H   UNL     1       4.034   6.004  20.515  0.00  0.00    +0.000 HD
ENDROOT
BRANCH   1   3
ATOM      3  C   UNL     1       2.444   7.123  19.739  0.00  0.00    +0.000 A 
ATOM      4  C   UNL     1       1.584   7.721  20.654  0.00  0.00    +0.000 A 
ATOM      5  C   UNL     1       0.924   8.912  20.325  0.00  0.00    +0.000 A 
ATOM      6  C   UNL     1       1.095   9.504  19.067  0.00  0.00    +0.000 A 
ATOM      7  C   UNL     1       1.942   8.869  18.145  0.00  0.00    +0.000 A 
ATOM      8  C   UNL     1       2.621   7.692  18.481  0.00  0.00    +0.000 A 
BRANCH   6   9
ATOM      9  N   UNL     1       0.449  10.706  18.726  0.00  0.00    +0.000 N 
ATOM     10  N   UNL     1      -0.864  10.711  18.319  0.00  0.00    +0.000 NA
ATOM     11  N   UNL     1      -1.211  11.899  18.031  0.00  0.00    +0.000 NA
ATOM     12  N   UNL     1      -0.153  12.723  18.235  0.00  0.00    +0.000 N 
ATOM     13  C   UNL     1       0.936  12.005  18.679  0.00  0.00    +0.000 A 
ATOM     14  O   UNL     1       2.032  12.469  18.944  0.00  0.00    +0.000 OA
ATOM     15  H   UNL     1      -0.191  13.713  18.059  0.00  0.00    +0.000 HD
ENDBRANCH   6   9
ENDBRANCH   1   3
BRANCH   1  16
ATOM     16  S   UNL     1       3.102   4.639  18.967  0.00  0.00    +0.000 S 
ATOM     17  O   UNL     1       2.110   4.923  17.952  0.00  0.00    +0.000 OA
ATOM     18  O   UNL     1       3.055   3.409  19.730  0.00  0.00    +0.000 OA
BRANCH  16  24
ATOM     19  C   UNL     1       6.207   3.810  14.854  0.00  0.00    +0.000 C 
ATOM     20  C   UNL     1       6.073   4.314  16.259  0.00  0.00    +0.000 A 
ATOM     21  C   UNL     1       7.179   4.809  16.962  0.00  0.00    +0.000 A 
ATOM     22  C   UNL     1       7.040   5.255  18.282  0.00  0.00    +0.000 A 
ATOM     23  C   UNL     1       5.795   5.210  18.912  0.00  0.00    +0.000 A 
ATOM     24  C   UNL     1       4.693   4.718  18.211  0.00  0.00    +0.000 A 
ATOM     25  C   UNL     1       4.828   4.283  16.897  0.00  0.00    +0.000 A 
ATOM     26  F   UNL     1       3.777   3.768  16.241  0.00  0.00    +0.000 F 
ENDBRANCH  16  24
ENDBRANCH   1  16
TORSDOF 4
ENDMDL
