MODEL 1
REMARK VINA RESULT:      -8.8      0.000      0.000
REMARK  Name = 
REMARK  3 active torsions:
REMARK  status: ('A' for Active; 'I' for Inactive)
REMARK    1  A    between atoms: C_2  and  C_15
REMARK    2  A    between atoms: N_3  and  C_4
REMARK    3  A    between atoms: C_19  and  N_20
REMARK                            x       y       z     vdW  Elec       q    Type
REMARK                         _______ _______ _______ _____ _____    ______ ____
ROOT
ATOM      1  O   UNL     1       7.828  10.042  17.472  0.00  0.00    +0.000 OA
ATOM      2  C   UNL     1       8.616   9.744  18.357  0.00  0.00    +0.000 C 
ATOM      3  N   UNL     1       8.826   8.475  18.884  0.00  0.00    +0.000 N 
ATOM      4  H   UNL     1       9.361   8.413  19.742  0.00  0.00    +0.000 HD
ENDROOT
BRANCH   3   5
ATOM      5  C   UNL     1       8.143   7.305  18.473  0.00  0.00    +0.000 A 
ATOM      6  C   UNL     1       8.029   6.160  19.289  0.00  0.00    +0.000 A 
ATOM      7  C   UNL     1       7.373   5.006  18.845  0.00  0.00    +0.000 A 
ATOM      8  C   UNL     1       6.856   5.016  17.573  0.00  0.00    +0.000 A 
ATOM      9  C   UNL     1       6.955   6.127  16.767  0.00  0.00    +0.000 A 
ATOM     10  C   UNL     1       7.571   7.291  17.193  0.00  0.00    +0.000 A 
ATOM     11  O   UNL     1       6.399   5.926  15.540  0.00  0.00    +0.000 OA
ATOM     12  C   UNL     1       5.961   4.565  15.682  0.00  0.00    +0.000 C 
ATOM     13  F   UNL     1       4.628   4.516  15.438  0.00  0.00    +0.000 F 
ATOM     14  F   UNL     1       6.577   3.811  14.737  0.00  0.00    +0.000 F 
ATOM     15  O   UNL     1       6.214   3.982  16.967  0.00  0.00    +0.000 OA
ENDBRANCH   3   5
BRANCH   2  16
ATOM     16  C   UNL     1       9.382  10.854  18.984  0.00  0.00    +0.000 A 
ATOM     17  C   UNL     1       9.554  10.823  20.373  0.00  0.00    +0.000 A 
ATOM     18  C   UNL     1      10.228  11.851  21.018  0.00  0.00    +0.000 A 
ATOM     19  C   UNL     1      10.714  12.924  20.278  0.00  0.00    +0.000 A 
ATOM     20  C   UNL     1      10.511  13.003  18.893  0.00  0.00    +0.000 A 
ATOM     21  C   UNL     1       9.849  11.947  18.247  0.00  0.00    +0.000 A 
BRANCH  20  22
ATOM     22  N   UNL     1      10.922  14.152  18.175  0.00  0.00    +0.000 N 
ATOM     23  C   UNL     1      12.233  14.280  17.586  0.00  0.00    +0.000 C 
ATOM     24  C   UNL     1      12.307  15.733  17.168  0.00  0.00    +0.000 C 
ATOM     25  C   UNL     1      10.865  16.114  16.890  0.00  0.00    +0.000 C 
ATOM     26  C   UNL     1      10.078  15.198  17.783  0.00  0.00    +0.000 C 
ATOM     27  O   UNL     1       8.903  15.391  18.061  0.00  0.00    +0.000 OA
ENDBRANCH  20  22
ENDBRANCH   2  16
TORSDOF 3
ENDMDL
MODEL 2
REMARK VINA RESULT:      -8.8      7.845     11.281
REMARK  Name = 
REMARK  3 active torsions:
REMARK  status: ('A' for Active; 'I' for Inactive)
REMARK    1  A    between atoms: C_2  and  C_15
REMARK    2  A    between atoms: N_3  and  C_4
REMARK    3  A    between atoms: C_19  and  N_20
REMARK                            x       y       z     vdW  Elec       q    Type
REMARK                         _______ _______ _______ _____ _____    ______ ____
ROOT
ATOM      1  O   UNL     1       2.133   9.601  17.442  0.00  0.00    +0.000 OA
ATOM      2  C   UNL     1       2.116   8.642  18.199  0.00  0.00    +0.000 C 
ATOM      3  N   UNL     1       1.371   8.524  19.367  0.00  0.00    +0.000 N 
ATOM      4  H   UNL     1       1.608   7.763  19.991  0.00  0.00    +0.000 HD
ENDROOT
BRANCH   3   5
ATOM      5  C   UNL     1       0.501   9.519  19.876  0.00  0.00    +0.000 A 
ATOM      6  C   UNL     1      -0.302  10.328  19.046  0.00  0.00    +0.000 A 
ATOM      7  C   UNL     1      -1.130  11.325  19.575  0.00  0.00    +0.000 A 
ATOM      8  C   UNL     1      -1.122  11.506  20.936  0.00  0.00    +0.000 A 
ATOM      9  C   UNL     1      -0.347  10.721  21.759  0.00  0.00    +0.000 A 
ATOM     10  C   UNL     1       0.457   9.709  21.264  0.00  0.00    +0.000 A 
ATOM     11  O   UNL     1      -0.465  11.073  23.069  0.00  0.00    +0.000 OA
ATOM     12  C   UNL     1      -1.388  12.168  22.954  0.00  0.00    +0.000 C 
ATOM     13  F   UNL     1      -2.469  11.902  23.729  0.00  0.00    +0.000 F 
ATOM     14  F   UNL     1      -0.798  13.285  23.446  0.00  0.00    +0.000 F 
ATOM     15  O   UNL     1      -1.837  12.439  21.620  0.00  0.00    +0.000 OA
ENDBRANCH   3   5
BRANCH   2  16
ATOM     16  C   UNL     1       3.031   7.513  17.883  0.00  0.00    +0.000 A 
ATOM     17  C   UNL     1       4.149   7.785  17.086  0.00  0.00    +0.000 A 
ATOM     18  C   UNL     1       5.018   6.763  16.726  0.00  0.00    +0.000 A 
ATOM     19  C   UNL     1       4.759   5.463  17.147  0.00  0.00    +0.000 A 
ATOM     20  C   UNL     1       3.619   5.157  17.903  0.00  0.00    +0.000 A 
ATOM     21  C   UNL     1       2.760   6.200  18.281  0.00  0.00    +0.000 A 
BRANCH  20  22
ATOM     22  N   UNL     1       3.319   3.813  18.232  0.00  0.00    +0.000 N 
ATOM     23  C   UNL     1       2.212   3.092  17.651  0.00  0.00    +0.000 C 
ATOM     24  C   UNL     1       2.128   1.824  18.473  0.00  0.00    +0.000 C 
ATOM     25  C   UNL     1       3.551   1.588  18.941  0.00  0.00    +0.000 C 
ATOM     26  C   UNL     1       4.142   2.968  18.986  0.00  0.00    +0.000 C 
ATOM     27  O   UNL     1       5.175   3.228  19.587  0.00  0.00    +0.000 OA
ENDBRANCH  20  22
ENDBRANCH   2  16
TORSDOF 3
ENDMDL
MODEL 3
REMARK VINA RESULT:      -8.8      7.929     11.331
REMARK  Name = 
REMARK  3 active torsions:
REMARK  status: ('A' for Active; 'I' for Inactive)
REMARK    1  A    between atoms: C_2  and  C_15
REMARK    2  A    between atoms: N_3  and  C_4
REMARK    3  A    between atoms: C_19  and  N_20
REMARK                            x       y       z     vdW  Elec       q    Type
REMARK                         _______ _______ _______ _____ _____    ______ ____
ROOT
ATOM      1  O   UNL     1       2.185   9.684  17.472  0.00  0.00    +0.000 OA
ATOM      2  C   UNL     1       2.116   8.701  18.193  0.00  0.00    +0.000 C 
ATOM      3  N   UNL     1       1.330   8.564  19.331  0.00  0.00    +0.000 N 
ATOM      4  H   UNL     1       1.524   7.775  19.935  0.00  0.00    +0.000 HD
ENDROOT
BRANCH   3   5
ATOM      5  C   UNL     1       0.472   9.566  19.847  0.00  0.00    +0.000 A 
ATOM      6  C   UNL     1      -0.333  10.381  19.023  0.00  0.00    +0.000 A 
ATOM      7  C   UNL     1      -1.149  11.384  19.558  0.00  0.00    +0.000 A 
ATOM      8  C   UNL     1      -1.127  11.566  20.919  0.00  0.00    +0.000 A 
ATOM      9  C   UNL     1      -0.352  10.775  21.736  0.00  0.00    +0.000 A 
ATOM     10  C   UNL     1       0.440   9.757  21.235  0.00  0.00    +0.000 A 
ATOM     11  O   UNL     1      -0.456  11.129  23.047  0.00  0.00    +0.000 OA
ATOM     12  C   UNL     1      -1.371  12.231  22.939  0.00  0.00    +0.000 C 
ATOM     13  F   UNL     1      -2.447  11.973  23.724  0.00  0.00    +0.000 F 
ATOM     14  F   UNL     1      -0.768  13.344  23.425  0.00  0.00    +0.000 F 
ATOM     15  O   UNL     1      -1.830  12.504  21.609  0.00  0.00    +0.000 OA
ENDBRANCH   3   5
BRANCH   2  16
ATOM     16  C   UNL     1       3.008   7.557  17.866  0.00  0.00    +0.000 A 
ATOM     17  C   UNL     1       4.116   7.809  17.047  0.00  0.00    +0.000 A 
ATOM     18  C   UNL     1       4.963   6.773  16.677  0.00  0.00    +0.000 A 
ATOM     19  C   UNL     1       4.694   5.478  17.110  0.00  0.00    +0.000 A 
ATOM     20  C   UNL     1       3.563   5.193  17.888  0.00  0.00    +0.000 A 
ATOM     21  C   UNL     1       2.726   6.250  18.276  0.00  0.00    +0.000 A 
BRANCH  20  22
ATOM     22  N   UNL     1       3.251   3.855  18.230  0.00  0.00    +0.000 N 
ATOM     23  C   UNL     1       4.138   3.014  18.996  0.00  0.00    +0.000 C 
ATOM     24  C   UNL     1       3.523   1.635  18.888  0.00  0.00    +0.000 C 
ATOM     25  C   UNL     1       2.040   1.902  18.709  0.00  0.00    +0.000 C 
ATOM     26  C   UNL     1       2.001   3.250  18.048  0.00  0.00    +0.000 C 
ATOM     27  O   UNL     1       1.007   3.682  17.481  0.00  0.00    +0.000 OA
ENDBRANCH  20  22
ENDBRANCH   2  16
TORSDOF 3
ENDMDL
MODEL 4
REMARK VINA RESULT:      -8.7      7.870      9.580
REMARK  Name = 
REMARK  3 active torsions:
REMARK  status: ('A' for Active; 'I' for Inactive)
REMARK    1  A    between atoms: C_2  and  C_15
REMARK    2  A    between atoms: N_3  and  C_4
REMARK    3  A    between atoms: C_19  and  N_20
REMARK                            x       y       z     vdW  Elec       q    Type
REMARK                         _______ _______ _______ _____ _____    ______ ____
ROOT
ATOM      1  O   UNL     1       1.578   8.606  20.124  0.00  0.00    +0.000 OA
ATOM      2  C   UNL     1       1.454   8.960  18.961  0.00  0.00    +0.000 C 
ATOM      3  N   UNL     1       2.010   8.342  17.846  0.00  0.00    +0.000 N 
ATOM      4  H   UNL     1       1.989   8.855  16.974  0.00  0.00    +0.000 HD
ENDROOT
BRANCH   3   5
ATOM      5  C   UNL     1       2.826   7.185  17.885  0.00  0.00    +0.000 A 
ATOM      6  C   UNL     1       4.159   7.176  17.424  0.00  0.00    +0.000 A 
ATOM      7  C   UNL     1       4.934   6.009  17.447  0.00  0.00    +0.000 A 
ATOM      8  C   UNL     1       4.344   4.861  17.917  0.00  0.00    +0.000 A 
ATOM      9  C   UNL     1       3.047   4.856  18.374  0.00  0.00    +0.000 A 
ATOM     10  C   UNL     1       2.270   6.002  18.392  0.00  0.00    +0.000 A 
ATOM     11  O   UNL     1       2.645   3.619  18.776  0.00  0.00    +0.000 OA
ATOM     12  C   UNL     1       3.838   2.866  18.502  0.00  0.00    +0.000 C 
ATOM     13  F   UNL     1       4.237   2.261  19.649  0.00  0.00    +0.000 F 
ATOM     14  F   UNL     1       3.538   1.891  17.609  0.00  0.00    +0.000 F 
ATOM     15  O   UNL     1       4.931   3.637  17.987  0.00  0.00    +0.000 OA
ENDBRANCH   3   5
BRANCH   2  16
ATOM     16  C   UNL     1       0.692  10.212  18.710  0.00  0.00    +0.000 A 
ATOM     17  C   UNL     1       1.341  11.428  18.953  0.00  0.00    +0.000 A 
ATOM     18  C   UNL     1       0.667  12.629  18.773  0.00  0.00    +0.000 A 
ATOM     19  C   UNL     1      -0.663  12.615  18.368  0.00  0.00    +0.000 A 
ATOM     20  C   UNL     1      -1.349  11.409  18.167  0.00  0.00    +0.000 A 
ATOM     21  C   UNL     1      -0.654  10.202  18.329  0.00  0.00    +0.000 A 
BRANCH  20  22
ATOM     22  N   UNL     1      -2.731  11.417  17.856  0.00  0.00    +0.000 N 
ATOM     23  C   UNL     1      -3.744  11.822  18.801  0.00  0.00    +0.000 C 
ATOM     24  C   UNL     1      -5.045  11.424  18.137  0.00  0.00    +0.000 C 
ATOM     25  C   UNL     1      -4.743  11.499  16.652  0.00  0.00    +0.000 C 
ATOM     26  C   UNL     1      -3.268  11.230  16.577  0.00  0.00    +0.000 C 
ATOM     27  O   UNL     1      -2.702  10.921  15.538  0.00  0.00    +0.000 OA
ENDBRANCH  20  22
ENDBRANCH   2  16
TORSDOF 3
ENDMDL
MODEL 5
REMARK VINA RESULT:      -8.7      7.560     10.515
REMARK  Name = 
REMARK  3 active torsions:
REMARK  status: ('A' for Active; 'I' for Inactive)
REMARK    1  A    between atoms: C_2  and  C_15
REMARK    2  A    between atoms: N_3  and  C_4
REMARK    3  A    between atoms: C_19  and  N_20
REMARK                            x       y       z     vdW  Elec       q    Type
REMARK                         _______ _______ _______ _____ _____    ______ ____
ROOT
ATOM      1  O   UNL     1       0.340   5.730  20.771  0.00  0.00    +0.000 OA
ATOM      2  C   UNL     1       1.479   6.110  20.543  0.00  0.00    +0.000 C 
ATOM      3  N   UNL     1       1.910   7.430  20.473  0.00  0.00    +0.000 N 
ATOM      4  H   UNL     1       2.830   7.595  20.082  0.00  0.00    +0.000 HD
ENDROOT
BRANCH   3   5
ATOM      5  C   UNL     1       1.081   8.563  20.651  0.00  0.00    +0.000 A 
ATOM      6  C   UNL     1       0.700   9.406  19.587  0.00  0.00    +0.000 A 
ATOM      7  C   UNL     1      -0.097  10.538  19.798  0.00  0.00    +0.000 A 
ATOM      8  C   UNL     1      -0.483  10.815  21.087  0.00  0.00    +0.000 A 
ATOM      9  C   UNL     1      -0.123   9.999  22.135  0.00  0.00    +0.000 A 
ATOM     10  C   UNL     1       0.638   8.858  21.948  0.00  0.00    +0.000 A 
ATOM     11  O   UNL     1      -0.586  10.459  23.330  0.00  0.00    +0.000 OA
ATOM     12  C   UNL     1      -1.259  11.652  22.897  0.00  0.00    +0.000 C 
ATOM     13  F   UNL     1      -2.553  11.586  23.299  0.00  0.00    +0.000 F 
ATOM     14  F   UNL     1      -0.693  12.717  23.517  0.00  0.00    +0.000 F 
ATOM     15  O   UNL     1      -1.230  11.880  21.482  0.00  0.00    +0.000 OA
ENDBRANCH   3   5
BRANCH   2  16
ATOM     16  C   UNL     1       2.495   5.066  20.246  0.00  0.00    +0.000 A 
ATOM     17  C   UNL     1       2.378   3.837  20.906  0.00  0.00    +0.000 A 
ATOM     18  C   UNL     1       3.319   2.838  20.697  0.00  0.00    +0.000 A 
ATOM     19  C   UNL     1       4.390   3.072  19.841  0.00  0.00    +0.000 A 
ATOM     20  C   UNL     1       4.556   4.312  19.207  0.00  0.00    +0.000 A 
ATOM     21  C   UNL     1       3.588   5.307  19.406  0.00  0.00    +0.000 A 
BRANCH  20  22
ATOM     22  N   UNL     1       5.708   4.564  18.423  0.00  0.00    +0.000 N 
ATOM     23  C   UNL     1       5.725   4.422  16.987  0.00  0.00    +0.000 C 
ATOM     24  C   UNL     1       7.190   4.534  16.624  0.00  0.00    +0.000 C 
ATOM     25  C   UNL     1       7.777   5.413  17.713  0.00  0.00    +0.000 C 
ATOM     26  C   UNL     1       6.886   5.156  18.894  0.00  0.00    +0.000 C 
ATOM     27  O   UNL     1       7.199   5.453  20.038  0.00  0.00    +0.000 OA
ENDBRANCH  20  22
ENDBRANCH   2  16
TORSDOF 3
ENDMDL
MODEL 6
REMARK VINA RESULT:      -8.7      7.704      9.390
REMARK  Name = 
REMARK  3 active torsions:
REMARK  status: ('A' for Active; 'I' for Inactive)
REMARK    1  A    between atoms: C_2  and  C_15
REMARK    2  A    between atoms: N_3  and  C_4
REMARK    3  A    between atoms: C_19  and  N_20
REMARK                            x       y       z     vdW  Elec       q    Type
REMARK                         _______ _______ _______ _____ _____    ______ ____
ROOT
ATOM      1  O   UNL     1       1.623   8.555  20.047  0.00  0.00    +0.000 OA
ATOM      2  C   UNL     1       1.511   8.941  18.894  0.00  0.00    +0.000 C 
ATOM      3  N   UNL     1       2.083   8.358  17.768  0.00  0.00    +0.000 N 
ATOM      4  H   UNL     1       2.069   8.897  16.911  0.00  0.00    +0.000 HD
ENDROOT
BRANCH   3   5
ATOM      5  C   UNL     1       2.906   7.206  17.784  0.00  0.00    +0.000 A 
ATOM      6  C   UNL     1       2.453   5.950  18.238  0.00  0.00    +0.000 A 
ATOM      7  C   UNL     1       3.298   4.834  18.270  0.00  0.00    +0.000 A 
ATOM      8  C   UNL     1       4.597   5.006  17.862  0.00  0.00    +0.000 A 
ATOM      9  C   UNL     1       5.053   6.224  17.411  0.00  0.00    +0.000 A 
ATOM     10  C   UNL     1       4.229   7.335  17.340  0.00  0.00    +0.000 A 
ATOM     11  O   UNL     1       6.371   6.190  17.074  0.00  0.00    +0.000 OA
ATOM     12  C   UNL     1       6.674   4.819  17.380  0.00  0.00    +0.000 C 
ATOM     13  F   UNL     1       7.169   4.230  16.263  0.00  0.00    +0.000 F 
ATOM     14  F   UNL     1       7.649   4.791  18.322  0.00  0.00    +0.000 F 
ATOM     15  O   UNL     1       5.562   4.047  17.850  0.00  0.00    +0.000 OA
ENDBRANCH   3   5
BRANCH   2  16
ATOM     16  C   UNL     1       0.744  10.195  18.670  0.00  0.00    +0.000 A 
ATOM     17  C   UNL     1       1.393  11.409  18.926  0.00  0.00    +0.000 A 
ATOM     18  C   UNL     1       0.716  12.611  18.771  0.00  0.00    +0.000 A 
ATOM     19  C   UNL     1      -0.619  12.601  18.379  0.00  0.00    +0.000 A 
ATOM     20  C   UNL     1      -1.305  11.397  18.166  0.00  0.00    +0.000 A 
ATOM     21  C   UNL     1      -0.605  10.189  18.302  0.00  0.00    +0.000 A 
BRANCH  20  22
ATOM     22  N   UNL     1      -2.689  11.407  17.870  0.00  0.00    +0.000 N 
ATOM     23  C   UNL     1      -3.692  11.811  18.825  0.00  0.00    +0.000 C 
ATOM     24  C   UNL     1      -5.000  11.417  18.174  0.00  0.00    +0.000 C 
ATOM     25  C   UNL     1      -4.713  11.494  16.686  0.00  0.00    +0.000 C 
ATOM     26  C   UNL     1      -3.239  11.224  16.595  0.00  0.00    +0.000 C 
ATOM     27  O   UNL     1      -2.685  10.916  15.550  0.00  0.00    +0.000 OA
ENDBRANCH  20  22
ENDBRANCH   2  16
TORSDOF 3
ENDMDL
MODEL 7
REMARK VINA RESULT:      -8.6      7.810     10.218
REMARK  Name = 
REMARK  3 active torsions:
REMARK  status: ('A' for Active; 'I' for Inactive)
REMARK    1  A    between atoms: C_2  and  C_15
REMARK    2  A    between atoms: N_3  and  C_4
REMARK    3  A    between atoms: C_19  and  N_20
REMARK                            x       y       z     vdW  Elec       q    Type
REMARK                         _______ _______ _______ _____ _____    ______ ____
ROOT
ATOM      1  O   UNL     1       2.158   8.427  17.608  0.00  0.00    +0.000 OA
ATOM      2  C   UNL     1       2.304   7.736  18.605  0.00  0.00    +0.000 C 
ATOM      3  N   UNL     1       1.741   7.962  19.856  0.00  0.00    +0.000 N 
ATOM      4  H   UNL     1       2.107   7.423  20.632  0.00  0.00    +0.000 HD
ENDROOT
BRANCH   3   5
ATOM      5  C   UNL     1       0.899   9.054  20.180  0.00  0.00    +0.000 A 
ATOM      6  C   UNL     1       0.303   9.875  19.200  0.00  0.00    +0.000 A 
ATOM      7  C   UNL     1      -0.501  10.966  19.550  0.00  0.00    +0.000 A 
ATOM      8  C   UNL     1      -0.678  11.226  20.886  0.00  0.00    +0.000 A 
ATOM      9  C   UNL     1      -0.107  10.431  21.854  0.00  0.00    +0.000 A 
ATOM     10  C   UNL     1       0.667   9.328  21.534  0.00  0.00    +0.000 A 
ATOM     11  O   UNL     1      -0.385  10.869  23.112  0.00  0.00    +0.000 OA
ATOM     12  C   UNL     1      -1.178  12.027  22.807  0.00  0.00    +0.000 C 
ATOM     13  F   UNL     1      -2.381  11.897  23.420  0.00  0.00    +0.000 F 
ATOM     14  F   UNL     1      -0.569  13.120  23.330  0.00  0.00    +0.000 F 
ATOM     15  O   UNL     1      -1.399  12.254  21.409  0.00  0.00    +0.000 OA
ENDBRANCH   3   5
BRANCH   2  16
ATOM     16  C   UNL     1       3.225   6.574  18.495  0.00  0.00    +0.000 A 
ATOM     17  C   UNL     1       3.452   5.812  19.648  0.00  0.00    +0.000 A 
ATOM     18  C   UNL     1       4.331   4.739  19.616  0.00  0.00    +0.000 A 
ATOM     19  C   UNL     1       5.001   4.435  18.435  0.00  0.00    +0.000 A 
ATOM     20  C   UNL     1       4.829   5.214  17.282  0.00  0.00    +0.000 A 
ATOM     21  C   UNL     1       3.921   6.282  17.318  0.00  0.00    +0.000 A 
BRANCH  20  22
ATOM     22  N   UNL     1       5.599   4.952  16.122  0.00  0.00    +0.000 N 
ATOM     23  C   UNL     1       5.105   4.170  15.014  0.00  0.00    +0.000 C 
ATOM     24  C   UNL     1       6.328   3.941  14.153  0.00  0.00    +0.000 C 
ATOM     25  C   UNL     1       7.206   5.148  14.424  0.00  0.00    +0.000 C 
ATOM     26  C   UNL     1       6.823   5.558  15.817  0.00  0.00    +0.000 C 
ATOM     27  O   UNL     1       7.507   6.308  16.500  0.00  0.00    +0.000 OA
ENDBRANCH  20  22
ENDBRANCH   2  16
TORSDOF 3
ENDMDL
MODEL 8
REMARK VINA RESULT:      -8.6      6.780      7.849
REMARK  Name = 
REMARK  3 active torsions:
REMARK  status: ('A' for Active; 'I' for Inactive)
REMARK    1  A    between atoms: C_2  and  C_15
REMARK    2  A    between atoms: N_3  and  C_4
REMARK    3  A    between atoms: C_19  and  N_20
REMARK                            x       y       z     vdW  Elec       q    Type
REMARK                         _______ _______ _______ _____ _____    ______ ____
ROOT
ATOM      1  O   UNL     1       1.943   6.232  20.693  0.00  0.00    +0.000 OA
ATOM      2  C   UNL     1       1.857   7.251  20.025  0.00  0.00    +0.000 C 
ATOM      3  N   UNL     1       2.385   7.453  18.755  0.00  0.00    +0.000 N 
ATOM      4  H   UNL     1       2.408   8.405  18.410  0.00  0.00    +0.000 HD
ENDROOT
BRANCH   3   5
ATOM      5  C   UNL     1       3.125   6.492  18.023  0.00  0.00    +0.000 A 
ATOM      6  C   UNL     1       2.720   5.147  17.904  0.00  0.00    +0.000 A 
ATOM      7  C   UNL     1       3.487   4.211  17.200  0.00  0.00    +0.000 A 
ATOM      8  C   UNL     1       4.665   4.642  16.641  0.00  0.00    +0.000 A 
ATOM      9  C   UNL     1       5.071   5.953  16.745  0.00  0.00    +0.000 A 
ATOM     10  C   UNL     1       4.316   6.904  17.409  0.00  0.00    +0.000 A 
ATOM     11  O   UNL     1       6.272   6.171  16.143  0.00  0.00    +0.000 OA
ATOM     12  C   UNL     1       6.562   4.846  15.671  0.00  0.00    +0.000 C 
ATOM     13  F   UNL     1       6.753   4.901  14.329  0.00  0.00    +0.000 F 
ATOM     14  F   UNL     1       7.724   4.430  16.232  0.00  0.00    +0.000 F 
ATOM     15  O   UNL     1       5.547   3.872  15.949  0.00  0.00    +0.000 OA
ENDBRANCH   3   5
BRANCH   2  16
ATOM     16  C   UNL     1       1.181   8.417  20.652  0.00  0.00    +0.000 A 
ATOM     17  C   UNL     1       0.487   8.201  21.849  0.00  0.00    +0.000 A 
ATOM     18  C   UNL     1      -0.195   9.244  22.460  0.00  0.00    +0.000 A 
ATOM     19  C   UNL     1      -0.202  10.502  21.866  0.00  0.00    +0.000 A 
ATOM     20  C   UNL     1       0.442  10.731  20.642  0.00  0.00    +0.000 A 
ATOM     21  C   UNL     1       1.149   9.677  20.044  0.00  0.00    +0.000 A 
BRANCH  20  22
ATOM     22  N   UNL     1       0.335  11.990  20.003  0.00  0.00    +0.000 N 
ATOM     23  C   UNL     1      -0.635  12.264  18.971  0.00  0.00    +0.000 C 
ATOM     24  C   UNL     1      -0.213  13.608  18.417  0.00  0.00    +0.000 C 
ATOM     25  C   UNL     1       0.467  14.295  19.587  0.00  0.00    +0.000 C 
ATOM     26  C   UNL     1       0.997  13.155  20.408  0.00  0.00    +0.000 C 
ATOM     27  O   UNL     1       1.849  13.300  21.273  0.00  0.00    +0.000 OA
ENDBRANCH  20  22
ENDBRANCH   2  16
TORSDOF 3
ENDMDL
MODEL 9
REMARK VINA RESULT:      -8.5      7.514      9.411
REMARK  Name = 
REMARK  3 active torsions:
REMARK  status: ('A' for Active; 'I' for Inactive)
REMARK    1  A    between atoms: C_2  and  C_15
REMARK    2  A    between atoms: N_3  and  C_4
REMARK    3  A    between atoms: C_19  and  N_20
REMARK                            x       y       z     vdW  Elec       q    Type
REMARK                         _______ _______ _______ _____ _____    ______ ____
ROOT
ATOM      1  O   UNL     1       2.379   5.419  17.677  0.00  0.00    +0.000 OA
ATOM      2  C   UNL     1       3.402   6.029  17.949  0.00  0.00    +0.000 C 
ATOM      3  N   UNL     1       3.486   7.246  18.617  0.00  0.00    +0.000 N 
ATOM      4  H   UNL     1       4.378   7.724  18.596  0.00  0.00    +0.000 HD
ENDROOT
BRANCH   3   5
ATOM      5  C   UNL     1       2.376   7.987  19.091  0.00  0.00    +0.000 A 
ATOM      6  C   UNL     1       1.859   7.839  20.395  0.00  0.00    +0.000 A 
ATOM      7  C   UNL     1       0.741   8.563  20.826  0.00  0.00    +0.000 A 
ATOM      8  C   UNL     1       0.146   9.413  19.927  0.00  0.00    +0.000 A 
ATOM      9  C   UNL     1       0.642   9.572  18.653  0.00  0.00    +0.000 A 
ATOM     10  C   UNL     1       1.764   8.891  18.212  0.00  0.00    +0.000 A 
ATOM     11  O   UNL     1      -0.101  10.442  17.914  0.00  0.00    +0.000 OA
ATOM     12  C   UNL     1      -1.112  10.788  18.874  0.00  0.00    +0.000 C 
ATOM     13  F   UNL     1      -1.108  12.134  19.035  0.00  0.00    +0.000 F 
ATOM     14  F   UNL     1      -2.323  10.440  18.371  0.00  0.00    +0.000 F 
ATOM     15  O   UNL     1      -0.958  10.172  20.159  0.00  0.00    +0.000 OA
ENDBRANCH   3   5
BRANCH   2  16
ATOM     16  C   UNL     1       4.684   5.453  17.464  0.00  0.00    +0.000 A 
ATOM     17  C   UNL     1       5.731   5.326  18.386  0.00  0.00    +0.000 A 
ATOM     18  C   UNL     1       6.963   4.830  17.982  0.00  0.00    +0.000 A 
ATOM     19  C   UNL     1       7.158   4.477  16.650  0.00  0.00    +0.000 A 
ATOM     20  C   UNL     1       6.142   4.642  15.699  0.00  0.00    +0.000 A 
ATOM     21  C   UNL     1       4.893   5.122  16.121  0.00  0.00    +0.000 A 
BRANCH  20  22
ATOM     22  N   UNL     1       6.394   4.376  14.331  0.00  0.00    +0.000 N 
ATOM     23  C   UNL     1       5.501   3.599  13.506  0.00  0.00    +0.000 C 
ATOM     24  C   UNL     1       6.287   3.362  12.235  0.00  0.00    +0.000 C 
ATOM     25  C   UNL     1       7.209   4.563  12.139  0.00  0.00    +0.000 C 
ATOM     26  C   UNL     1       7.405   4.975  13.570  0.00  0.00    +0.000 C 
ATOM     27  O   UNL     1       8.307   5.719  13.929  0.00  0.00    +0.000 OA
ENDBRANCH  20  22
ENDBRANCH   2  16
TORSDOF 3
ENDMDL
