MODEL 1
REMARK VINA RESULT:      -8.8      0.000      0.000
REMARK  Name = 
REMARK  5 active torsions:
REMARK  status: ('A' for Active; 'I' for Inactive)
REMARK    1  A    between atoms: S_2  and  N_4
REMARK    2  A    between atoms: S_2  and  C_19
REMARK    3  A    between atoms: N_4  and  C_5
REMARK    4  A    between atoms: C_8  and  S_9
REMARK    5  A    between atoms: S_9  and  N_12
REMARK                            x       y       z     vdW  Elec       q    Type
REMARK                         _______ _______ _______ _____ _____    ______ ____
ROOT
ATOM      1  N   UNL     1       3.434   4.911  18.179  0.00  0.00    +0.000 N 
ATOM      2  H   UNL     1       3.039   4.538  17.311  0.00  0.00    +0.000 HD
ENDROOT
BRANCH   1   3
ATOM      3  C   UNL     1       2.720   5.899  18.912  0.00  0.00    +0.000 A 
ATOM      4  C   UNL     1       2.203   5.571  20.159  0.00  0.00    +0.000 A 
ATOM      5  C   UNL     1       1.591   6.550  20.944  0.00  0.00    +0.000 A 
ATOM      6  C   UNL     1       1.528   7.872  20.487  0.00  0.00    +0.000 A 
ATOM      7  C   UNL     1       2.020   8.191  19.229  0.00  0.00    +0.000 A 
ATOM      8  C   UNL     1       2.668   7.203  18.446  0.00  0.00    +0.000 A 
BRANCH   6   9
ATOM      9  S   UNL     1       0.707   9.113  21.479  0.00  0.00    +0.000 S 
ATOM     10  O   UNL     1      -0.586   8.576  21.846  0.00  0.00    +0.000 OA
ATOM     11  O   UNL     1       1.651   9.541  22.493  0.00  0.00    +0.000 OA
BRANCH   9  12
ATOM     12  N   UNL     1       0.450  10.412  20.434  0.00  0.00    +0.000 NA
ATOM     13  C   UNL     1       0.737  11.784  20.878  0.00  0.00    +0.000 C 
ATOM     14  C   UNL     1      -0.637  12.408  21.027  0.00  0.00    +0.000 C 
ATOM     15  C   UNL     1      -1.442  11.783  19.897  0.00  0.00    +0.000 C 
ATOM     16  C   UNL     1      -0.772  10.441  19.602  0.00  0.00    +0.000 C 
ENDBRANCH   9  12
ENDBRANCH   6   9
ENDBRANCH   1   3
BRANCH   1  18
ATOM     17  O   UNL     1       5.599   5.585  19.225  0.00  0.00    +0.000 OA
ATOM     18  S   UNL     1       5.010   4.471  18.534  0.00  0.00    +0.000 S 
ATOM     19  O   UNL     1       5.025   3.119  19.088  0.00  0.00    +0.000 OA
BRANCH  18  20
ATOM     20  C   UNL     1       5.734   4.420  16.914  0.00  0.00    +0.000 A 
ATOM     21  C   UNL     1       7.094   4.753  16.841  0.00  0.00    +0.000 A 
ATOM     22  C   UNL     1       7.655   4.991  15.603  0.00  0.00    +0.000 A 
ATOM     23  C   UNL     1       6.910   4.742  14.450  0.00  0.00    +0.000 A 
ATOM     24  C   UNL     1       7.477   5.009  13.216  0.00  0.00    +0.000 A 
ATOM     25  C   UNL     1       7.189   4.178  12.153  0.00  0.00    +0.000 A 
ATOM     26  C   UNL     1       6.005   3.462  12.193  0.00  0.00    +0.000 A 
ATOM     27  C   UNL     1       5.165   3.554  13.318  0.00  0.00    +0.000 A 
ATOM     28  C   UNL     1       5.649   4.132  14.512  0.00  0.00    +0.000 A 
ATOM     29  C   UNL     1       5.003   4.093  15.765  0.00  0.00    +0.000 A 
ENDBRANCH  18  20
ENDBRANCH   1  18
TORSDOF 5
ENDMDL
MODEL 2
REMARK VINA RESULT:      -8.5      1.040      1.391
REMARK  Name = 
REMARK  5 active torsions:
REMARK  status: ('A' for Active; 'I' for Inactive)
REMARK    1  A    between atoms: S_2  and  N_4
REMARK    2  A    between atoms: S_2  and  C_19
REMARK    3  A    between atoms: N_4  and  C_5
REMARK    4  A    between atoms: C_8  and  S_9
REMARK    5  A    between atoms: S_9  and  N_12
REMARK                            x       y       z     vdW  Elec       q    Type
REMARK                         _______ _______ _______ _____ _____    ______ ____
ROOT
ATOM      1  N   UNL     1       3.356   4.960  18.529  0.00  0.00    +0.000 N 
ATOM      2  H   UNL     1       2.862   4.408  17.823  0.00  0.00    +0.000 HD
ENDROOT
BRANCH   1   3
ATOM      3  C   UNL     1       2.779   6.167  19.012  0.00  0.00    +0.000 A 
ATOM      4  C   UNL     1       2.723   7.272  18.172  0.00  0.00    +0.000 A 
ATOM      5  C   UNL     1       2.068   8.434  18.585  0.00  0.00    +0.000 A 
ATOM      6  C   UNL     1       1.438   8.473  19.836  0.00  0.00    +0.000 A 
ATOM      7  C   UNL     1       1.520   7.378  20.684  0.00  0.00    +0.000 A 
ATOM      8  C   UNL     1       2.159   6.188  20.252  0.00  0.00    +0.000 A 
BRANCH   6   9
ATOM      9  S   UNL     1       0.636   9.978  20.374  0.00  0.00    +0.000 S 
ATOM     10  O   UNL     1      -0.741   9.643  20.667  0.00  0.00    +0.000 OA
ATOM     11  O   UNL     1       1.488  10.578  21.383  0.00  0.00    +0.000 OA
BRANCH   9  12
ATOM     12  N   UNL     1       0.646  10.989  19.023  0.00  0.00    +0.000 NA
ATOM     13  C   UNL     1       1.627  12.081  18.927  0.00  0.00    +0.000 C 
ATOM     14  C   UNL     1       0.789  13.331  19.111  0.00  0.00    +0.000 C 
ATOM     15  C   UNL     1      -0.522  12.992  18.419  0.00  0.00    +0.000 C 
ATOM     16  C   UNL     1      -0.636  11.469  18.468  0.00  0.00    +0.000 C 
ENDBRANCH   9  12
ENDBRANCH   6   9
ENDBRANCH   1   3
BRANCH   1  18
ATOM     17  O   UNL     1       5.531   5.589  19.583  0.00  0.00    +0.000 OA
ATOM     18  S   UNL     1       4.923   4.490  18.886  0.00  0.00    +0.000 S 
ATOM     19  O   UNL     1       4.912   3.135  19.434  0.00  0.00    +0.000 OA
BRANCH  18  20
ATOM     20  C   UNL     1       5.650   4.432  17.267  0.00  0.00    +0.000 A 
ATOM     21  C   UNL     1       7.030   4.673  17.208  0.00  0.00    +0.000 A 
ATOM     22  C   UNL     1       7.611   4.905  15.978  0.00  0.00    +0.000 A 
ATOM     23  C   UNL     1       6.857   4.738  14.817  0.00  0.00    +0.000 A 
ATOM     24  C   UNL     1       7.447   4.999  13.592  0.00  0.00    +0.000 A 
ATOM     25  C   UNL     1       7.109   4.217  12.506  0.00  0.00    +0.000 A 
ATOM     26  C   UNL     1       5.879   3.582  12.524  0.00  0.00    +0.000 A 
ATOM     27  C   UNL     1       5.042   3.701  13.648  0.00  0.00    +0.000 A 
ATOM     28  C   UNL     1       5.558   4.213  14.859  0.00  0.00    +0.000 A 
ATOM     29  C   UNL     1       4.904   4.185  16.108  0.00  0.00    +0.000 A 
ENDBRANCH  18  20
ENDBRANCH   1  18
TORSDOF 5
ENDMDL
MODEL 3
REMARK VINA RESULT:      -8.4      2.701      3.816
REMARK  Name = 
REMARK  5 active torsions:
REMARK  status: ('A' for Active; 'I' for Inactive)
REMARK    1  A    between atoms: S_2  and  N_4
REMARK    2  A    between atoms: S_2  and  C_19
REMARK    3  A    between atoms: N_4  and  C_5
REMARK    4  A    between atoms: C_8  and  S_9
REMARK    5  A    between atoms: S_9  and  N_12
REMARK                            x       y       z     vdW  Elec       q    Type
REMARK                         _______ _______ _______ _____ _____    ______ ____
ROOT
ATOM      1  N   UNL     1       2.335   6.696  20.838  0.00  0.00    +0.000 N 
ATOM      2  H   UNL     1       3.119   6.893  21.464  0.00  0.00    +0.000 HD
ENDROOT
BRANCH   1   3
ATOM      3  C   UNL     1       1.485   7.755  20.415  0.00  0.00    +0.000 A 
ATOM      4  C   UNL     1       0.506   8.222  21.284  0.00  0.00    +0.000 A 
ATOM      5  C   UNL     1      -0.270   9.330  20.934  0.00  0.00    +0.000 A 
ATOM      6  C   UNL     1      -0.039   9.990  19.722  0.00  0.00    +0.000 A 
ATOM      7  C   UNL     1       0.920   9.504  18.844  0.00  0.00    +0.000 A 
ATOM      8  C   UNL     1       1.729   8.399  19.212  0.00  0.00    +0.000 A 
BRANCH   6   9
ATOM      9  S   UNL     1      -1.064  11.382  19.263  0.00  0.00    +0.000 S 
ATOM     10  O   UNL     1      -1.559  11.966  20.491  0.00  0.00    +0.000 OA
ATOM     11  O   UNL     1      -0.307  12.174  18.313  0.00  0.00    +0.000 OA
BRANCH   9  12
ATOM     12  N   UNL     1      -2.377  10.710  18.444  0.00  0.00    +0.000 NA
ATOM     13  C   UNL     1      -2.159   9.938  17.211  0.00  0.00    +0.000 C 
ATOM     14  C   UNL     1      -2.709  10.839  16.123  0.00  0.00    +0.000 C 
ATOM     15  C   UNL     1      -3.905  11.512  16.781  0.00  0.00    +0.000 C 
ATOM     16  C   UNL     1      -3.612  11.504  18.281  0.00  0.00    +0.000 C 
ENDBRANCH   9  12
ENDBRANCH   6   9
ENDBRANCH   1   3
BRANCH   1  18
ATOM     17  O   UNL     1       2.641   4.334  21.590  0.00  0.00    +0.000 OA
ATOM     18  S   UNL     1       1.995   5.082  20.547  0.00  0.00    +0.000 S 
ATOM     19  O   UNL     1       0.573   4.930  20.251  0.00  0.00    +0.000 OA
BRANCH  18  20
ATOM     20  C   UNL     1       2.912   4.794  19.054  0.00  0.00    +0.000 A 
ATOM     21  C   UNL     1       2.835   3.495  18.530  0.00  0.00    +0.000 A 
ATOM     22  C   UNL     1       3.717   3.126  17.537  0.00  0.00    +0.000 A 
ATOM     23  C   UNL     1       4.552   4.086  16.965  0.00  0.00    +0.000 A 
ATOM     24  C   UNL     1       5.450   3.696  15.986  0.00  0.00    +0.000 A 
ATOM     25  C   UNL     1       5.717   4.557  14.941  0.00  0.00    +0.000 A 
ATOM     26  C   UNL     1       5.517   5.910  15.150  0.00  0.00    +0.000 A 
ATOM     27  C   UNL     1       5.005   6.365  16.379  0.00  0.00    +0.000 A 
ATOM     28  C   UNL     1       4.426   5.447  17.283  0.00  0.00    +0.000 A 
ATOM     29  C   UNL     1       3.688   5.782  18.436  0.00  0.00    +0.000 A 
ENDBRANCH  18  20
ENDBRANCH   1  18
TORSDOF 5
ENDMDL
MODEL 4
REMARK VINA RESULT:      -8.4      1.472      2.003
REMARK  Name = 
REMARK  5 active torsions:
REMARK  status: ('A' for Active; 'I' for Inactive)
REMARK    1  A    between atoms: S_2  and  N_4
REMARK    2  A    between atoms: S_2  and  C_19
REMARK    3  A    between atoms: N_4  and  C_5
REMARK    4  A    between atoms: C_8  and  S_9
REMARK    5  A    between atoms: S_9  and  N_12
REMARK                            x       y       z     vdW  Elec       q    Type
REMARK                         _______ _______ _______ _____ _____    ______ ____
ROOT
ATOM      1  N   UNL     1       3.505   4.873  18.730  0.00  0.00    +0.000 N 
ATOM      2  H   UNL     1       2.919   4.117  18.367  0.00  0.00    +0.000 HD
ENDROOT
BRANCH   1   3
ATOM      3  C   UNL     1       2.995   6.200  18.778  0.00  0.00    +0.000 A 
ATOM      4  C   UNL     1       3.081   6.998  17.644  0.00  0.00    +0.000 A 
ATOM      5  C   UNL     1       2.495   8.265  17.632  0.00  0.00    +0.000 A 
ATOM      6  C   UNL     1       1.790   8.719  18.754  0.00  0.00    +0.000 A 
ATOM      7  C   UNL     1       1.730   7.932  19.895  0.00  0.00    +0.000 A 
ATOM      8  C   UNL     1       2.299   6.633  19.896  0.00  0.00    +0.000 A 
BRANCH   6   9
ATOM      9  S   UNL     1       1.076  10.359  18.746  0.00  0.00    +0.000 S 
ATOM     10  O   UNL     1       2.087  11.259  18.233  0.00  0.00    +0.000 OA
ATOM     11  O   UNL     1      -0.222  10.255  18.109  0.00  0.00    +0.000 OA
BRANCH   9  12
ATOM     12  N   UNL     1       0.824  10.736  20.371  0.00  0.00    +0.000 NA
ATOM     13  C   UNL     1      -0.447  10.383  21.021  0.00  0.00    +0.000 C 
ATOM     14  C   UNL     1      -1.128  11.723  21.225  0.00  0.00    +0.000 C 
ATOM     15  C   UNL     1       0.021  12.668  21.539  0.00  0.00    +0.000 C 
ATOM     16  C   UNL     1       1.257  12.052  20.885  0.00  0.00    +0.000 C 
ENDBRANCH   9  12
ENDBRANCH   6   9
ENDBRANCH   1   3
BRANCH   1  18
ATOM     17  O   UNL     1       5.683   5.648  19.675  0.00  0.00    +0.000 OA
ATOM     18  S   UNL     1       5.109   4.500  19.028  0.00  0.00    +0.000 S 
ATOM     19  O   UNL     1       5.199   3.160  19.604  0.00  0.00    +0.000 OA
BRANCH  18  20
ATOM     20  C   UNL     1       5.770   4.446  17.380  0.00  0.00    +0.000 A 
ATOM     21  C   UNL     1       7.141   4.713  17.262  0.00  0.00    +0.000 A 
ATOM     22  C   UNL     1       7.667   4.948  16.009  0.00  0.00    +0.000 A 
ATOM     23  C   UNL     1       6.868   4.761  14.880  0.00  0.00    +0.000 A 
ATOM     24  C   UNL     1       7.402   5.025  13.631  0.00  0.00    +0.000 A 
ATOM     25  C   UNL     1       7.033   4.232  12.564  0.00  0.00    +0.000 A 
ATOM     26  C   UNL     1       5.817   3.575  12.636  0.00  0.00    +0.000 A 
ATOM     27  C   UNL     1       5.025   3.685  13.793  0.00  0.00    +0.000 A 
ATOM     28  C   UNL     1       5.581   4.213  14.979  0.00  0.00    +0.000 A 
ATOM     29  C   UNL     1       4.981   4.180  16.255  0.00  0.00    +0.000 A 
ENDBRANCH  18  20
ENDBRANCH   1  18
TORSDOF 5
ENDMDL
MODEL 5
REMARK VINA RESULT:      -8.4      0.474      1.045
REMARK  Name = 
REMARK  5 active torsions:
REMARK  status: ('A' for Active; 'I' for Inactive)
REMARK    1  A    between atoms: S_2  and  N_4
REMARK    2  A    between atoms: S_2  and  C_19
REMARK    3  A    between atoms: N_4  and  C_5
REMARK    4  A    between atoms: C_8  and  S_9
REMARK    5  A    between atoms: S_9  and  N_12
REMARK                            x       y       z     vdW  Elec       q    Type
REMARK                         _______ _______ _______ _____ _____    ______ ____
ROOT
ATOM      1  N   UNL     1       3.419   5.550  17.838  0.00  0.00    +0.000 N 
ATOM      2  H   UNL     1       3.123   5.537  16.859  0.00  0.00    +0.000 HD
ENDROOT
BRANCH   1   3
ATOM      3  C   UNL     1       2.821   6.468  18.745  0.00  0.00    +0.000 A 
ATOM      4  C   UNL     1       2.543   7.759  18.313  0.00  0.00    +0.000 A 
ATOM      5  C   UNL     1       1.861   8.645  19.149  0.00  0.00    +0.000 A 
ATOM      6  C   UNL     1       1.428   8.222  20.411  0.00  0.00    +0.000 A 
ATOM      7  C   UNL     1       1.731   6.941  20.851  0.00  0.00    +0.000 A 
ATOM      8  C   UNL     1       2.397   6.031  19.991  0.00  0.00    +0.000 A 
BRANCH   6   9
ATOM      9  S   UNL     1       0.591   9.376  21.492  0.00  0.00    +0.000 S 
ATOM     10  O   UNL     1      -0.688   8.788  21.830  0.00  0.00    +0.000 OA
ATOM     11  O   UNL     1       1.535   9.753  22.526  0.00  0.00    +0.000 OA
BRANCH   9  12
ATOM     12  N   UNL     1       0.298  10.737  20.539  0.00  0.00    +0.000 NA
ATOM     13  C   UNL     1       1.102  11.954  20.726  0.00  0.00    +0.000 C 
ATOM     14  C   UNL     1       0.130  12.930  21.361  0.00  0.00    +0.000 C 
ATOM     15  C   UNL     1      -1.198  12.603  20.694  0.00  0.00    +0.000 C 
ATOM     16  C   UNL     1      -1.095  11.141  20.261  0.00  0.00    +0.000 C 
ENDBRANCH   9  12
ENDBRANCH   6   9
ENDBRANCH   1   3
BRANCH   1  18
ATOM     17  O   UNL     1       5.581   5.431  19.083  0.00  0.00    +0.000 OA
ATOM     18  S   UNL     1       4.758   4.622  18.228  0.00  0.00    +0.000 S 
ATOM     19  O   UNL     1       4.325   3.280  18.611  0.00  0.00    +0.000 OA
BRANCH  18  20
ATOM     20  C   UNL     1       5.582   4.517  16.658  0.00  0.00    +0.000 A 
ATOM     21  C   UNL     1       6.948   4.831  16.662  0.00  0.00    +0.000 A 
ATOM     22  C   UNL     1       7.588   5.028  15.456  0.00  0.00    +0.000 A 
ATOM     23  C   UNL     1       6.913   4.756  14.266  0.00  0.00    +0.000 A 
ATOM     24  C   UNL     1       7.560   4.982  13.063  0.00  0.00    +0.000 A 
ATOM     25  C   UNL     1       7.328   4.125  12.007  0.00  0.00    +0.000 A 
ATOM     26  C   UNL     1       6.134   3.424  11.992  0.00  0.00    +0.000 A 
ATOM     27  C   UNL     1       5.227   3.557  13.058  0.00  0.00    +0.000 A 
ATOM     28  C   UNL     1       5.643   4.162  14.265  0.00  0.00    +0.000 A 
ATOM     29  C   UNL     1       4.919   4.166  15.475  0.00  0.00    +0.000 A 
ENDBRANCH  18  20
ENDBRANCH   1  18
TORSDOF 5
ENDMDL
MODEL 6
REMARK VINA RESULT:      -8.3      3.315      9.325
REMARK  Name = 
REMARK  5 active torsions:
REMARK  status: ('A' for Active; 'I' for Inactive)
REMARK    1  A    between atoms: S_2  and  N_4
REMARK    2  A    between atoms: S_2  and  C_19
REMARK    3  A    between atoms: N_4  and  C_5
REMARK    4  A    between atoms: C_8  and  S_9
REMARK    5  A    between atoms: S_9  and  N_12
REMARK                            x       y       z     vdW  Elec       q    Type
REMARK                         _______ _______ _______ _____ _____    ______ ____
ROOT
ATOM      1  N   UNL     1       0.955   8.879  19.815  0.00  0.00    +0.000 N 
ATOM      2  H   UNL     1       0.283   8.658  20.554  0.00  0.00    +0.000 HD
ENDROOT
BRANCH   1   3
ATOM      3  C   UNL     1       1.931   7.915  19.438  0.00  0.00    +0.000 A 
ATOM      4  C   UNL     1       2.211   6.865  20.303  0.00  0.00    +0.000 A 
ATOM      5  C   UNL     1       3.086   5.849  19.911  0.00  0.00    +0.000 A 
ATOM      6  C   UNL     1       3.655   5.872  18.631  0.00  0.00    +0.000 A 
ATOM      7  C   UNL     1       3.395   6.937  17.780  0.00  0.00    +0.000 A 
ATOM      8  C   UNL     1       2.483   7.952  18.167  0.00  0.00    +0.000 A 
BRANCH   6   9
ATOM      9  S   UNL     1       4.805   4.590  18.152  0.00  0.00    +0.000 S 
ATOM     10  O   UNL     1       5.347   4.967  16.863  0.00  0.00    +0.000 OA
ATOM     11  O   UNL     1       5.676   4.352  19.286  0.00  0.00    +0.000 OA
BRANCH   9  12
ATOM     12  N   UNL     1       3.858   3.211  17.931  0.00  0.00    +0.000 NA
ATOM     13  C   UNL     1       2.594   3.297  17.184  0.00  0.00    +0.000 C 
ATOM     14  C   UNL     1       1.534   3.123  18.254  0.00  0.00    +0.000 C 
ATOM     15  C   UNL     1       2.154   2.123  19.218  0.00  0.00    +0.000 C 
ATOM     16  C   UNL     1       3.666   2.276  19.058  0.00  0.00    +0.000 C 
ENDBRANCH   9  12
ENDBRANCH   6   9
ENDBRANCH   1   3
BRANCH   1  18
ATOM     17  O   UNL     1       1.109  11.293  20.436  0.00  0.00    +0.000 OA
ATOM     18  S   UNL     1       0.978  10.462  19.271  0.00  0.00    +0.000 S 
ATOM     19  O   UNL     1       1.888  10.573  18.134  0.00  0.00    +0.000 OA
BRANCH  18  20
ATOM     20  C   UNL     1      -0.685  10.654  18.678  0.00  0.00    +0.000 A 
ATOM     21  C   UNL     1      -1.029   9.878  17.562  0.00  0.00    +0.000 A 
ATOM     22  C   UNL     1      -2.200  10.164  16.890  0.00  0.00    +0.000 A 
ATOM     23  C   UNL     1      -3.087  11.101  17.419  0.00  0.00    +0.000 A 
ATOM     24  C   UNL     1      -4.245  11.395  16.721  0.00  0.00    +0.000 A 
ATOM     25  C   UNL     1      -5.403  11.659  17.425  0.00  0.00    +0.000 A 
ATOM     26  C   UNL     1      -5.279  12.124  18.722  0.00  0.00    +0.000 A 
ATOM     27  C   UNL     1      -4.005  12.263  19.302  0.00  0.00    +0.000 A 
ATOM     28  C   UNL     1      -2.883  11.666  18.686  0.00  0.00    +0.000 A 
ATOM     29  C   UNL     1      -1.601  11.539  19.260  0.00  0.00    +0.000 A 
ENDBRANCH  18  20
ENDBRANCH   1  18
TORSDOF 5
ENDMDL
MODEL 7
REMARK VINA RESULT:      -8.2      4.179     10.601
REMARK  Name = 
REMARK  5 active torsions:
REMARK  status: ('A' for Active; 'I' for Inactive)
REMARK    1  A    between atoms: S_2  and  N_4
REMARK    2  A    between atoms: S_2  and  C_19
REMARK    3  A    between atoms: N_4  and  C_5
REMARK    4  A    between atoms: C_8  and  S_9
REMARK    5  A    between atoms: S_9  and  N_12
REMARK                            x       y       z     vdW  Elec       q    Type
REMARK                         _______ _______ _______ _____ _____    ______ ____
ROOT
ATOM      1  N   UNL     1       0.622  11.082  19.267  0.00  0.00    +0.000 N 
ATOM      2  H   UNL     1       1.250  11.837  19.553  0.00  0.00    +0.000 HD
ENDROOT
BRANCH   1   3
ATOM      3  C   UNL     1       1.121   9.755  19.150  0.00  0.00    +0.000 A 
ATOM      4  C   UNL     1       1.624   9.329  17.927  0.00  0.00    +0.000 A 
ATOM      5  C   UNL     1       2.216   8.069  17.813  0.00  0.00    +0.000 A 
ATOM      6  C   UNL     1       2.332   7.248  18.941  0.00  0.00    +0.000 A 
ATOM      7  C   UNL     1       1.803   7.664  20.155  0.00  0.00    +0.000 A 
ATOM      8  C   UNL     1       1.229   8.955  20.277  0.00  0.00    +0.000 A 
BRANCH   6   9
ATOM      9  S   UNL     1       3.054   5.619  18.779  0.00  0.00    +0.000 S 
ATOM     10  O   UNL     1       3.604   5.531  17.443  0.00  0.00    +0.000 OA
ATOM     11  O   UNL     1       3.888   5.405  19.945  0.00  0.00    +0.000 OA
BRANCH   9  12
ATOM     12  N   UNL     1       1.752   4.550  18.873  0.00  0.00    +0.000 NA
ATOM     13  C   UNL     1       1.153   4.232  20.178  0.00  0.00    +0.000 C 
ATOM     14  C   UNL     1       1.576   2.796  20.425  0.00  0.00    +0.000 C 
ATOM     15  C   UNL     1       1.547   2.168  19.040  0.00  0.00    +0.000 C 
ATOM     16  C   UNL     1       1.766   3.318  18.058  0.00  0.00    +0.000 C 
ENDBRANCH   9  12
ENDBRANCH   6   9
ENDBRANCH   1   3
BRANCH   1  18
ATOM     17  O   UNL     1      -0.733  12.735  17.976  0.00  0.00    +0.000 OA
ATOM     18  S   UNL     1      -0.903  11.533  18.744  0.00  0.00    +0.000 S 
ATOM     19  O   UNL     1      -1.601  10.365  18.211  0.00  0.00    +0.000 OA
BRANCH  18  20
ATOM     20  C   UNL     1      -1.677  11.996  20.274  0.00  0.00    +0.000 A 
ATOM     21  C   UNL     1      -0.950  11.709  21.438  0.00  0.00    +0.000 A 
ATOM     22  C   UNL     1      -1.589  11.794  22.658  0.00  0.00    +0.000 A 
ATOM     23  C   UNL     1      -2.882  12.313  22.724  0.00  0.00    +0.000 A 
ATOM     24  C   UNL     1      -3.520  12.369  23.951  0.00  0.00    +0.000 A 
ATOM     25  C   UNL     1      -4.352  13.435  24.225  0.00  0.00    +0.000 A 
ATOM     26  C   UNL     1      -4.922  14.103  23.156  0.00  0.00    +0.000 A 
ATOM     27  C   UNL     1      -4.605  13.723  21.839  0.00  0.00    +0.000 A 
ATOM     28  C   UNL     1      -3.504  12.872  21.598  0.00  0.00    +0.000 A 
ATOM     29  C   UNL     1      -2.944  12.589  20.334  0.00  0.00    +0.000 A 
ENDBRANCH  18  20
ENDBRANCH   1  18
TORSDOF 5
ENDMDL
MODEL 8
REMARK VINA RESULT:      -8.2      1.354      1.990
REMARK  Name = 
REMARK  5 active torsions:
REMARK  status: ('A' for Active; 'I' for Inactive)
REMARK    1  A    between atoms: S_2  and  N_4
REMARK    2  A    between atoms: S_2  and  C_19
REMARK    3  A    between atoms: N_4  and  C_5
REMARK    4  A    between atoms: C_8  and  S_9
REMARK    5  A    between atoms: S_9  and  N_12
REMARK                            x       y       z     vdW  Elec       q    Type
REMARK                         _______ _______ _______ _____ _____    ______ ____
ROOT
ATOM      1  N   UNL     1       3.001   5.617  17.991  0.00  0.00    +0.000 N 
ATOM      2  H   UNL     1       2.527   5.219  17.176  0.00  0.00    +0.000 HD
ENDROOT
BRANCH   1   3
ATOM      3  C   UNL     1       2.589   6.880  18.500  0.00  0.00    +0.000 A 
ATOM      4  C   UNL     1       2.535   7.970  17.640  0.00  0.00    +0.000 A 
ATOM      5  C   UNL     1       2.033   9.193  18.090  0.00  0.00    +0.000 A 
ATOM      6  C   UNL     1       1.553   9.311  19.400  0.00  0.00    +0.000 A 
ATOM      7  C   UNL     1       1.634   8.230  20.265  0.00  0.00    +0.000 A 
ATOM      8  C   UNL     1       2.115   6.979  19.799  0.00  0.00    +0.000 A 
BRANCH   6   9
ATOM      9  S   UNL     1       0.949  10.892  19.980  0.00  0.00    +0.000 S 
ATOM     10  O   UNL     1       1.027  10.870  21.426  0.00  0.00    +0.000 OA
ATOM     11  O   UNL     1       1.629  11.916  19.212  0.00  0.00    +0.000 OA
BRANCH   9  12
ATOM     12  N   UNL     1      -0.683  10.923  19.551  0.00  0.00    +0.000 NA
ATOM     13  C   UNL     1      -1.303   9.746  18.924  0.00  0.00    +0.000 C 
ATOM     14  C   UNL     1      -1.534  10.185  17.491  0.00  0.00    +0.000 C 
ATOM     15  C   UNL     1      -1.894  11.658  17.617  0.00  0.00    +0.000 C 
ATOM     16  C   UNL     1      -1.240  12.134  18.914  0.00  0.00    +0.000 C 
ENDBRANCH   9  12
ENDBRANCH   6   9
ENDBRANCH   1   3
BRANCH   1  18
ATOM     17  O   UNL     1       5.096   5.761  19.344  0.00  0.00    +0.000 OA
ATOM     18  S   UNL     1       4.383   4.830  18.513  0.00  0.00    +0.000 S 
ATOM     19  O   UNL     1       4.034   3.488  18.975  0.00  0.00    +0.000 OA
BRANCH  18  20
ATOM     20  C   UNL     1       5.296   4.678  16.997  0.00  0.00    +0.000 A 
ATOM     21  C   UNL     1       6.670   4.942  17.082  0.00  0.00    +0.000 A 
ATOM     22  C   UNL     1       7.389   5.103  15.915  0.00  0.00    +0.000 A 
ATOM     23  C   UNL     1       6.778   4.844  14.688  0.00  0.00    +0.000 A 
ATOM     24  C   UNL     1       7.504   5.034  13.526  0.00  0.00    +0.000 A 
ATOM     25  C   UNL     1       7.304   4.176  12.464  0.00  0.00    +0.000 A 
ATOM     26  C   UNL     1       6.088   3.520  12.382  0.00  0.00    +0.000 A 
ATOM     27  C   UNL     1       5.123   3.697  13.390  0.00  0.00    +0.000 A 
ATOM     28  C   UNL     1       5.488   4.298  14.615  0.00  0.00    +0.000 A 
ATOM     29  C   UNL     1       4.693   4.341  15.779  0.00  0.00    +0.000 A 
ENDBRANCH  18  20
ENDBRANCH   1  18
TORSDOF 5
ENDMDL
MODEL 9
REMARK VINA RESULT:      -8.2      2.275      2.988
REMARK  Name = 
REMARK  5 active torsions:
REMARK  status: ('A' for Active; 'I' for Inactive)
REMARK    1  A    between atoms: S_2  and  N_4
REMARK    2  A    between atoms: S_2  and  C_19
REMARK    3  A    between atoms: N_4  and  C_5
REMARK    4  A    between atoms: C_8  and  S_9
REMARK    5  A    between atoms: S_9  and  N_12
REMARK                            x       y       z     vdW  Elec       q    Type
REMARK                         _______ _______ _______ _____ _____    ______ ____
ROOT
ATOM      1  N   UNL     1       2.480   5.823  20.711  0.00  0.00    +0.000 N 
ATOM      2  H   UNL     1       2.849   5.720  21.660  0.00  0.00    +0.000 HD
ENDROOT
BRANCH   1   3
ATOM      3  C   UNL     1       1.919   7.065  20.303  0.00  0.00    +0.000 A 
ATOM      4  C   UNL     1       1.099   7.757  21.186  0.00  0.00    +0.000 A 
ATOM      5  C   UNL     1       0.622   9.026  20.850  0.00  0.00    +0.000 A 
ATOM      6  C   UNL     1       0.998   9.615  19.637  0.00  0.00    +0.000 A 
ATOM      7  C   UNL     1       1.794   8.911  18.745  0.00  0.00    +0.000 A 
ATOM      8  C   UNL     1       2.303   7.635  19.099  0.00  0.00    +0.000 A 
BRANCH   6   9
ATOM      9  S   UNL     1       0.351  11.224  19.197  0.00  0.00    +0.000 S 
ATOM     10  O   UNL     1      -0.390  11.710  20.341  0.00  0.00    +0.000 OA
ATOM     11  O   UNL     1       1.450  11.988  18.641  0.00  0.00    +0.000 OA
BRANCH   9  12
ATOM     12  N   UNL     1      -0.752  10.928  17.955  0.00  0.00    +0.000 NA
ATOM     13  C   UNL     1      -1.795  11.917  17.645  0.00  0.00    +0.000 C 
ATOM     14  C   UNL     1      -3.071  11.253  18.125  0.00  0.00    +0.000 C 
ATOM     15  C   UNL     1      -2.851   9.780  17.814  0.00  0.00    +0.000 C 
ATOM     16  C   UNL     1      -1.336   9.578  17.811  0.00  0.00    +0.000 C 
ENDBRANCH   9  12
ENDBRANCH   6   9
ENDBRANCH   1   3
BRANCH   1  18
ATOM     17  O   UNL     1       2.648   3.332  20.680  0.00  0.00    +0.000 OA
ATOM     18  S   UNL     1       2.373   4.428  19.792  0.00  0.00    +0.000 S 
ATOM     19  O   UNL     1       1.165   4.477  18.971  0.00  0.00    +0.000 OA
BRANCH  18  20
ATOM     20  C   UNL     1       3.782   4.601  18.725  0.00  0.00    +0.000 A 
ATOM     21  C   UNL     1       4.965   5.036  19.338  0.00  0.00    +0.000 A 
ATOM     22  C   UNL     1       6.015   5.444  18.543  0.00  0.00    +0.000 A 
ATOM     23  C   UNL     1       5.942   5.266  17.161  0.00  0.00    +0.000 A 
ATOM     24  C   UNL     1       6.993   5.703  16.373  0.00  0.00    +0.000 A 
ATOM     25  C   UNL     1       7.342   4.971  15.257  0.00  0.00    +0.000 A 
ATOM     26  C   UNL     1       6.372   4.171  14.678  0.00  0.00    +0.000 A 
ATOM     27  C   UNL     1       5.094   4.083  15.258  0.00  0.00    +0.000 A 
ATOM     28  C   UNL     1       4.882   4.564  16.570  0.00  0.00    +0.000 A 
ATOM     29  C   UNL     1       3.727   4.346  17.349  0.00  0.00    +0.000 A 
ENDBRANCH  18  20
ENDBRANCH   1  18
TORSDOF 5
ENDMDL
