MODEL 1
REMARK VINA RESULT:      -8.5      0.000      0.000
REMARK  Name = 
REMARK  6 active torsions:
REMARK  status: ('A' for Active; 'I' for Inactive)
REMARK    1  A    between atoms: C_1  and  C_2
REMARK    2  A    between atoms: C_4  and  C_5
REMARK    3  A    between atoms: C_9  and  N_10
REMARK    4  A    between atoms: C_11  and  C_13
REMARK    5  A    between atoms: C_13  and  C_14
REMARK    6  A    between atoms: C_17  and  C_18
REMARK                            x       y       z     vdW  Elec       q    Type
REMARK                         _______ _______ _______ _____ _____    ______ ____
ROOT
ATOM      1  N   UNL     1       3.240   6.408  18.842  0.00  0.00    +0.000 N 
ATOM      2  C   UNL     1       2.837   5.148  18.435  0.00  0.00    +0.000 C 
ATOM      3  O   UNL     1       1.704   4.803  18.133  0.00  0.00    +0.000 OA
ATOM      4  H   UNL     1       4.190   6.509  19.177  0.00  0.00    +0.000 HD
ENDROOT
BRANCH   1   9
ATOM      5  C   UNL     1       0.960   9.052  20.150  0.00  0.00    +0.000 A 
ATOM      6  C   UNL     1       0.787   9.846  19.008  0.00  0.00    +0.000 A 
ATOM      7  C   UNL     1       1.425   9.519  17.816  0.00  0.00    +0.000 A 
ATOM      8  C   UNL     1       2.236   8.386  17.757  0.00  0.00    +0.000 A 
ATOM      9  C   UNL     1       2.418   7.563  18.872  0.00  0.00    +0.000 A 
ATOM     10  C   UNL     1       1.786   7.911  20.073  0.00  0.00    +0.000 A 
BRANCH   5  14
ATOM     11  C   UNL     1      -1.776  11.607  23.351  0.00  0.00    +0.000 C 
ATOM     12  C   UNL     1      -0.901  10.606  22.709  0.00  0.00    +0.000 A 
ATOM     13  N   UNL     1      -0.531  10.547  21.451  0.00  0.00    +0.000 NA
ATOM     14  C   UNL     1       0.296   9.444  21.390  0.00  0.00    +0.000 A 
ATOM     15  N   UNL     1       0.438   8.816  22.569  0.00  0.00    +0.000 NA
ATOM     16  N   UNL     1      -0.322   9.568  23.381  0.00  0.00    +0.000 N 
ATOM     17  H   UNL     1      -0.394   9.328  24.362  0.00  0.00    +0.000 HD
ENDBRANCH   5  14
ENDBRANCH   1   9
BRANCH   2  18
ATOM     18  C   UNL     1       3.929   4.103  18.377  0.00  0.00    +0.000 C 
ATOM     19  C   UNL     1       3.418   2.670  18.622  0.00  0.00    +0.000 C 
ATOM     20  C   UNL     1       4.330   3.309  19.619  0.00  0.00    +0.000 C 
BRANCH  18  21
ATOM     21  C   UNL     1       4.947   4.229  17.237  0.00  0.00    +0.000 A 
ATOM     22  C   UNL     1       4.570   4.128  15.887  0.00  0.00    +0.000 A 
ATOM     23  C   UNL     1       5.466   4.420  14.853  0.00  0.00    +0.000 A 
ATOM     24  C   UNL     1       6.781   4.786  15.155  0.00  0.00    +0.000 A 
ATOM     25  C   UNL     1       7.205   4.793  16.481  0.00  0.00    +0.000 A 
ATOM     26  C   UNL     1       6.298   4.512  17.507  0.00  0.00    +0.000 A 
BRANCH  24  27
ATOM     27  C   UNL     1       7.669   5.194  14.104  0.00  0.00    +0.000 C 
ATOM     28  N   UNL     1       8.364   5.546  13.242  0.00  0.00    +0.000 NA
ENDBRANCH  24  27
ENDBRANCH  18  21
ENDBRANCH   2  18
TORSDOF 5
ENDMDL
MODEL 2
REMARK VINA RESULT:      -8.2      0.987      1.176
REMARK  Name = 
REMARK  6 active torsions:
REMARK  status: ('A' for Active; 'I' for Inactive)
REMARK    1  A    between atoms: C_1  and  C_2
REMARK    2  A    between atoms: C_4  and  C_5
REMARK    3  A    between atoms: C_9  and  N_10
REMARK    4  A    between atoms: C_11  and  C_13
REMARK    5  A    between atoms: C_13  and  C_14
REMARK    6  A    between atoms: C_17  and  C_18
REMARK                            x       y       z     vdW  Elec       q    Type
REMARK                         _______ _______ _______ _____ _____    ______ ____
ROOT
ATOM      1  N   UNL     1       2.762   6.427  19.275  0.00  0.00    +0.000 N 
ATOM      2  C   UNL     1       2.230   5.244  19.759  0.00  0.00    +0.000 C 
ATOM      3  O   UNL     1       1.148   5.097  20.309  0.00  0.00    +0.000 OA
ATOM      4  H   UNL     1       3.723   6.411  18.957  0.00  0.00    +0.000 HD
ENDROOT
BRANCH   1   9
ATOM      5  C   UNL     1       0.703   9.337  20.368  0.00  0.00    +0.000 A 
ATOM      6  C   UNL     1       0.739  10.137  19.219  0.00  0.00    +0.000 A 
ATOM      7  C   UNL     1       1.445   9.726  18.092  0.00  0.00    +0.000 A 
ATOM      8  C   UNL     1       2.115   8.503  18.107  0.00  0.00    +0.000 A 
ATOM      9  C   UNL     1       2.086   7.672  19.231  0.00  0.00    +0.000 A 
ATOM     10  C   UNL     1       1.388   8.103  20.367  0.00  0.00    +0.000 A 
BRANCH   5  14
ATOM     11  C   UNL     1      -1.923  12.265  23.332  0.00  0.00    +0.000 C 
ATOM     12  C   UNL     1      -1.158  11.141  22.757  0.00  0.00    +0.000 A 
ATOM     13  N   UNL     1      -0.661  11.040  21.547  0.00  0.00    +0.000 NA
ATOM     14  C   UNL     1      -0.025   9.815  21.540  0.00  0.00    +0.000 A 
ATOM     15  N   UNL     1      -0.125   9.153  22.704  0.00  0.00    +0.000 NA
ATOM     16  N   UNL     1      -0.839  10.010  23.453  0.00  0.00    +0.000 N 
ATOM     17  H   UNL     1      -1.061   9.771  24.412  0.00  0.00    +0.000 HD
ENDBRANCH   5  14
ENDBRANCH   1   9
BRANCH   2  18
ATOM     18  C   UNL     1       3.103   4.020  19.590  0.00  0.00    +0.000 C 
ATOM     19  C   UNL     1       2.318   2.696  19.643  0.00  0.00    +0.000 C 
ATOM     20  C   UNL     1       3.292   3.020  20.730  0.00  0.00    +0.000 C 
BRANCH  18  21
ATOM     21  C   UNL     1       4.174   4.081  18.495  0.00  0.00    +0.000 A 
ATOM     22  C   UNL     1       3.865   3.881  17.139  0.00  0.00    +0.000 A 
ATOM     23  C   UNL     1       4.807   4.114  16.131  0.00  0.00    +0.000 A 
ATOM     24  C   UNL     1       6.102   4.518  16.470  0.00  0.00    +0.000 A 
ATOM     25  C   UNL     1       6.461   4.622  17.811  0.00  0.00    +0.000 A 
ATOM     26  C   UNL     1       5.508   4.401  18.809  0.00  0.00    +0.000 A 
BRANCH  24  27
ATOM     27  C   UNL     1       7.037   4.864  15.437  0.00  0.00    +0.000 C 
ATOM     28  N   UNL     1       7.804   5.170  14.620  0.00  0.00    +0.000 NA
ENDBRANCH  24  27
ENDBRANCH  18  21
ENDBRANCH   2  18
TORSDOF 5
ENDMDL
MODEL 3
REMARK VINA RESULT:      -7.9      3.040      9.007
REMARK  Name = 
REMARK  6 active torsions:
REMARK  status: ('A' for Active; 'I' for Inactive)
REMARK    1  A    between atoms: C_1  and  C_2
REMARK    2  A    between atoms: C_4  and  C_5
REMARK    3  A    between atoms: C_9  and  N_10
REMARK    4  A    between atoms: C_11  and  C_13
REMARK    5  A    between atoms: C_13  and  C_14
REMARK    6  A    between atoms: C_17  and  C_18
REMARK                            x       y       z     vdW  Elec       q    Type
REMARK                         _______ _______ _______ _____ _____    ______ ____
ROOT
ATOM      1  N   UNL     1       1.664   8.485  19.876  0.00  0.00    +0.000 N 
ATOM      2  C   UNL     1       1.326   9.172  18.723  0.00  0.00    +0.000 C 
ATOM      3  O   UNL     1       1.432   8.772  17.573  0.00  0.00    +0.000 OA
ATOM      4  H   UNL     1       1.635   8.995  20.749  0.00  0.00    +0.000 HD
ENDROOT
BRANCH   1   9
ATOM      5  C   UNL     1       3.721   5.436  19.262  0.00  0.00    +0.000 A 
ATOM      6  C   UNL     1       3.014   4.482  20.004  0.00  0.00    +0.000 A 
ATOM      7  C   UNL     1       1.871   4.841  20.712  0.00  0.00    +0.000 A 
ATOM      8  C   UNL     1       1.423   6.160  20.673  0.00  0.00    +0.000 A 
ATOM      9  C   UNL     1       2.095   7.135  19.929  0.00  0.00    +0.000 A 
ATOM     10  C   UNL     1       3.255   6.768  19.235  0.00  0.00    +0.000 A 
BRANCH   5  14
ATOM     11  C   UNL     1       6.924   4.635  15.607  0.00  0.00    +0.000 C 
ATOM     12  C   UNL     1       6.256   4.713  16.921  0.00  0.00    +0.000 A 
ATOM     13  N   UNL     1       5.088   5.241  17.201  0.00  0.00    +0.000 NA
ATOM     14  C   UNL     1       4.932   5.027  18.555  0.00  0.00    +0.000 A 
ATOM     15  N   UNL     1       5.973   4.393  19.120  0.00  0.00    +0.000 NA
ATOM     16  N   UNL     1       6.790   4.204  18.070  0.00  0.00    +0.000 N 
ATOM     17  H   UNL     1       7.672   3.725  18.203  0.00  0.00    +0.000 HD
ENDBRANCH   5  14
ENDBRANCH   1   9
BRANCH   2  18
ATOM     18  C   UNL     1       0.780  10.567  18.934  0.00  0.00    +0.000 C 
ATOM     19  C   UNL     1       1.744  11.678  18.474  0.00  0.00    +0.000 C 
ATOM     20  C   UNL     1       1.430  11.529  19.927  0.00  0.00    +0.000 C 
BRANCH  18  21
ATOM     21  C   UNL     1      -0.687  10.800  18.553  0.00  0.00    +0.000 A 
ATOM     22  C   UNL     1      -1.341  10.011  17.592  0.00  0.00    +0.000 A 
ATOM     23  C   UNL     1      -2.721  10.111  17.380  0.00  0.00    +0.000 A 
ATOM     24  C   UNL     1      -3.471  11.039  18.107  0.00  0.00    +0.000 A 
ATOM     25  C   UNL     1      -2.828  11.902  18.990  0.00  0.00    +0.000 A 
ATOM     26  C   UNL     1      -1.452  11.785  19.204  0.00  0.00    +0.000 A 
BRANCH  24  27
ATOM     27  C   UNL     1      -4.900  11.067  17.972  0.00  0.00    +0.000 C 
ATOM     28  N   UNL     1      -6.052  11.079  17.830  0.00  0.00    +0.000 NA
ENDBRANCH  24  27
ENDBRANCH  18  21
ENDBRANCH   2  18
TORSDOF 5
ENDMDL
MODEL 4
REMARK VINA RESULT:      -7.8      1.982      8.609
REMARK  Name = 
REMARK  6 active torsions:
REMARK  status: ('A' for Active; 'I' for Inactive)
REMARK    1  A    between atoms: C_1  and  C_2
REMARK    2  A    between atoms: C_4  and  C_5
REMARK    3  A    between atoms: C_9  and  N_10
REMARK    4  A    between atoms: C_11  and  C_13
REMARK    5  A    between atoms: C_13  and  C_14
REMARK    6  A    between atoms: C_17  and  C_18
REMARK                            x       y       z     vdW  Elec       q    Type
REMARK                         _______ _______ _______ _____ _____    ______ ____
ROOT
ATOM      1  N   UNL     1       4.309   5.576  19.087  0.00  0.00    +0.000 N 
ATOM      2  C   UNL     1       3.221   4.725  19.163  0.00  0.00    +0.000 C 
ATOM      3  O   UNL     1       3.099   3.639  18.615  0.00  0.00    +0.000 OA
ATOM      4  H   UNL     1       4.211   6.497  19.497  0.00  0.00    +0.000 HD
ENDROOT
BRANCH   1   9
ATOM      5  C   UNL     1       6.737   4.807  16.364  0.00  0.00    +0.000 A 
ATOM      6  C   UNL     1       7.932   4.716  17.089  0.00  0.00    +0.000 A 
ATOM      7  C   UNL     1       7.942   4.917  18.466  0.00  0.00    +0.000 A 
ATOM      8  C   UNL     1       6.749   5.202  19.129  0.00  0.00    +0.000 A 
ATOM      9  C   UNL     1       5.536   5.283  18.439  0.00  0.00    +0.000 A 
ATOM     10  C   UNL     1       5.539   5.098  17.050  0.00  0.00    +0.000 A 
BRANCH   5  14
ATOM     11  C   UNL     1       5.758   3.005  11.887  0.00  0.00    +0.000 C 
ATOM     12  C   UNL     1       6.295   3.782  13.020  0.00  0.00    +0.000 A 
ATOM     13  N   UNL     1       5.958   3.701  14.286  0.00  0.00    +0.000 NA
ATOM     14  C   UNL     1       6.773   4.618  14.916  0.00  0.00    +0.000 A 
ATOM     15  N   UNL     1       7.593   5.271  14.077  0.00  0.00    +0.000 NA
ATOM     16  N   UNL     1       7.275   4.724  12.892  0.00  0.00    +0.000 N 
ATOM     17  H   UNL     1       7.760   5.026  12.056  0.00  0.00    +0.000 HD
ENDBRANCH   5  14
ENDBRANCH   1   9
BRANCH   2  18
ATOM     18  C   UNL     1       2.068   5.215  20.012  0.00  0.00    +0.000 C 
ATOM     19  C   UNL     1       2.008   4.557  21.403  0.00  0.00    +0.000 C 
ATOM     20  C   UNL     1       0.926   4.282  20.410  0.00  0.00    +0.000 C 
BRANCH  18  21
ATOM     21  C   UNL     1       1.803   6.726  20.011  0.00  0.00    +0.000 A 
ATOM     22  C   UNL     1       2.063   7.526  18.886  0.00  0.00    +0.000 A 
ATOM     23  C   UNL     1       1.654   8.863  18.829  0.00  0.00    +0.000 A 
ATOM     24  C   UNL     1       1.006   9.440  19.926  0.00  0.00    +0.000 A 
ATOM     25  C   UNL     1       0.831   8.696  21.089  0.00  0.00    +0.000 A 
ATOM     26  C   UNL     1       1.231   7.357  21.130  0.00  0.00    +0.000 A 
BRANCH  24  27
ATOM     27  C   UNL     1       0.488  10.775  19.830  0.00  0.00    +0.000 C 
ATOM     28  N   UNL     1       0.101  11.866  19.742  0.00  0.00    +0.000 NA
ENDBRANCH  24  27
ENDBRANCH  18  21
ENDBRANCH   2  18
TORSDOF 5
ENDMDL
MODEL 5
REMARK VINA RESULT:      -7.7      3.082      9.260
REMARK  Name = 
REMARK  6 active torsions:
REMARK  status: ('A' for Active; 'I' for Inactive)
REMARK    1  A    between atoms: C_1  and  C_2
REMARK    2  A    between atoms: C_4  and  C_5
REMARK    3  A    between atoms: C_9  and  N_10
REMARK    4  A    between atoms: C_11  and  C_13
REMARK    5  A    between atoms: C_13  and  C_14
REMARK    6  A    between atoms: C_17  and  C_18
REMARK                            x       y       z     vdW  Elec       q    Type
REMARK                         _______ _______ _______ _____ _____    ______ ____
ROOT
ATOM      1  N   UNL     1       1.767   8.536  19.487  0.00  0.00    +0.000 N 
ATOM      2  C   UNL     1       1.443   9.490  18.538  0.00  0.00    +0.000 C 
ATOM      3  O   UNL     1       1.675   9.440  17.339  0.00  0.00    +0.000 OA
ATOM      4  H   UNL     1       1.620   8.776  20.460  0.00  0.00    +0.000 HD
ENDROOT
BRANCH   1   9
ATOM      5  C   UNL     1       3.804   5.893  17.824  0.00  0.00    +0.000 A 
ATOM      6  C   UNL     1       3.503   4.781  18.622  0.00  0.00    +0.000 A 
ATOM      7  C   UNL     1       2.643   4.902  19.709  0.00  0.00    +0.000 A 
ATOM      8  C   UNL     1       2.069   6.139  19.998  0.00  0.00    +0.000 A 
ATOM      9  C   UNL     1       2.333   7.265  19.213  0.00  0.00    +0.000 A 
ATOM     10  C   UNL     1       3.216   7.138  18.132  0.00  0.00    +0.000 A 
BRANCH   5  14
ATOM     11  C   UNL     1       6.263   3.843  14.082  0.00  0.00    +0.000 C 
ATOM     12  C   UNL     1       5.752   4.772  15.108  0.00  0.00    +0.000 A 
ATOM     13  N   UNL     1       4.791   4.564  15.977  0.00  0.00    +0.000 NA
ATOM     14  C   UNL     1       4.734   5.732  16.709  0.00  0.00    +0.000 A 
ATOM     15  N   UNL     1       5.622   6.658  16.311  0.00  0.00    +0.000 NA
ATOM     16  N   UNL     1       6.252   6.027  15.306  0.00  0.00    +0.000 N 
ATOM     17  H   UNL     1       7.001   6.497  14.814  0.00  0.00    +0.000 HD
ENDBRANCH   5  14
ENDBRANCH   1   9
BRANCH   2  18
ATOM     18  C   UNL     1       0.739  10.720  19.066  0.00  0.00    +0.000 C 
ATOM     19  C   UNL     1       1.541  12.020  18.863  0.00  0.00    +0.000 C 
ATOM     20  C   UNL     1       1.303  11.509  20.247  0.00  0.00    +0.000 C 
BRANCH  18  21
ATOM     21  C   UNL     1      -0.759  10.843  18.762  0.00  0.00    +0.000 A 
ATOM     22  C   UNL     1      -1.605  11.678  19.511  0.00  0.00    +0.000 A 
ATOM     23  C   UNL     1      -2.926  11.921  19.120  0.00  0.00    +0.000 A 
ATOM     24  C   UNL     1      -3.441  11.296  17.980  0.00  0.00    +0.000 A 
ATOM     25  C   UNL     1      -2.654  10.385  17.281  0.00  0.00    +0.000 A 
ATOM     26  C   UNL     1      -1.331  10.159  17.673  0.00  0.00    +0.000 A 
BRANCH  24  27
ATOM     27  C   UNL     1      -4.757  11.629  17.514  0.00  0.00    +0.000 C 
ATOM     28  N   UNL     1      -5.823  11.868  17.119  0.00  0.00    +0.000 NA
ENDBRANCH  24  27
ENDBRANCH  18  21
ENDBRANCH   2  18
TORSDOF 5
ENDMDL
MODEL 6
REMARK VINA RESULT:      -7.7      2.241      3.536
REMARK  Name = 
REMARK  6 active torsions:
REMARK  status: ('A' for Active; 'I' for Inactive)
REMARK    1  A    between atoms: C_1  and  C_2
REMARK    2  A    between atoms: C_4  and  C_5
REMARK    3  A    between atoms: C_9  and  N_10
REMARK    4  A    between atoms: C_11  and  C_13
REMARK    5  A    between atoms: C_13  and  C_14
REMARK    6  A    between atoms: C_17  and  C_18
REMARK                            x       y       z     vdW  Elec       q    Type
REMARK                         _______ _______ _______ _____ _____    ______ ____
ROOT
ATOM      1  N   UNL     1       2.238   6.990  20.459  0.00  0.00    +0.000 N 
ATOM      2  C   UNL     1       1.705   5.715  20.398  0.00  0.00    +0.000 C 
ATOM      3  O   UNL     1       0.554   5.387  20.650  0.00  0.00    +0.000 OA
ATOM      4  H   UNL     1       3.239   7.084  20.341  0.00  0.00    +0.000 HD
ENDROOT
BRANCH   1   9
ATOM      5  C   UNL     1       0.097   9.986  19.871  0.00  0.00    +0.000 A 
ATOM      6  C   UNL     1       0.016  10.516  21.165  0.00  0.00    +0.000 A 
ATOM      7  C   UNL     1       0.654   9.885  22.229  0.00  0.00    +0.000 A 
ATOM      8  C   UNL     1       1.387   8.722  22.001  0.00  0.00    +0.000 A 
ATOM      9  C   UNL     1       1.503   8.175  20.719  0.00  0.00    +0.000 A 
ATOM     10  C   UNL     1       0.841   8.806  19.657  0.00  0.00    +0.000 A 
BRANCH   5  14
ATOM     11  C   UNL     1      -2.915  10.740  16.047  0.00  0.00    +0.000 C 
ATOM     12  C   UNL     1      -1.933  10.901  17.138  0.00  0.00    +0.000 A 
ATOM     13  N   UNL     1      -1.554  10.007  18.020  0.00  0.00    +0.000 NA
ATOM     14  C   UNL     1      -0.610  10.660  18.786  0.00  0.00    +0.000 A 
ATOM     15  N   UNL     1      -0.405  11.933  18.410  0.00  0.00    +0.000 NA
ATOM     16  N   UNL     1      -1.246  12.058  17.370  0.00  0.00    +0.000 N 
ATOM     17  H   UNL     1      -1.294  12.937  16.869  0.00  0.00    +0.000 HD
ENDBRANCH   5  14
ENDBRANCH   1   9
BRANCH   2  18
ATOM     18  C   UNL     1       2.670   4.625  19.986  0.00  0.00    +0.000 C 
ATOM     19  C   UNL     1       1.981   3.282  19.677  0.00  0.00    +0.000 C 
ATOM     20  C   UNL     1       2.888   3.390  20.860  0.00  0.00    +0.000 C 
BRANCH  18  21
ATOM     21  C   UNL     1       3.774   5.017  18.997  0.00  0.00    +0.000 A 
ATOM     22  C   UNL     1       5.137   4.882  19.310  0.00  0.00    +0.000 A 
ATOM     23  C   UNL     1       6.132   5.071  18.345  0.00  0.00    +0.000 A 
ATOM     24  C   UNL     1       5.777   5.441  17.044  0.00  0.00    +0.000 A 
ATOM     25  C   UNL     1       4.440   5.681  16.738  0.00  0.00    +0.000 A 
ATOM     26  C   UNL     1       3.453   5.476  17.706  0.00  0.00    +0.000 A 
BRANCH  24  27
ATOM     27  C   UNL     1       6.784   5.528  16.025  0.00  0.00    +0.000 C 
ATOM     28  N   UNL     1       7.618   5.574  15.218  0.00  0.00    +0.000 NA
ENDBRANCH  24  27
ENDBRANCH  18  21
ENDBRANCH   2  18
TORSDOF 5
ENDMDL
MODEL 7
REMARK VINA RESULT:      -7.6      2.686      8.682
REMARK  Name = 
REMARK  6 active torsions:
REMARK  status: ('A' for Active; 'I' for Inactive)
REMARK    1  A    between atoms: C_1  and  C_2
REMARK    2  A    between atoms: C_4  and  C_5
REMARK    3  A    between atoms: C_9  and  N_10
REMARK    4  A    between atoms: C_11  and  C_13
REMARK    5  A    between atoms: C_13  and  C_14
REMARK    6  A    between atoms: C_17  and  C_18
REMARK                            x       y       z     vdW  Elec       q    Type
REMARK                         _______ _______ _______ _____ _____    ______ ____
ROOT
ATOM      1  N   UNL     1       1.410   6.871  21.012  0.00  0.00    +0.000 N 
ATOM      2  C   UNL     1       1.358   8.095  20.369  0.00  0.00    +0.000 C 
ATOM      3  O   UNL     1       1.811   8.363  19.265  0.00  0.00    +0.000 OA
ATOM      4  H   UNL     1       1.100   6.836  21.975  0.00  0.00    +0.000 HD
ENDROOT
BRANCH   1   9
ATOM      5  C   UNL     1       3.675   4.515  19.218  0.00  0.00    +0.000 A 
ATOM      6  C   UNL     1       2.954   3.318  19.323  0.00  0.00    +0.000 A 
ATOM      7  C   UNL     1       1.733   3.283  19.989  0.00  0.00    +0.000 A 
ATOM      8  C   UNL     1       1.221   4.453  20.549  0.00  0.00    +0.000 A 
ATOM      9  C   UNL     1       1.905   5.668  20.449  0.00  0.00    +0.000 A 
ATOM     10  C   UNL     1       3.143   5.689  19.793  0.00  0.00    +0.000 A 
BRANCH   5  14
ATOM     11  C   UNL     1       7.028   4.622  15.612  0.00  0.00    +0.000 C 
ATOM     12  C   UNL     1       6.349   4.557  16.921  0.00  0.00    +0.000 A 
ATOM     13  N   UNL     1       5.065   4.662  17.169  0.00  0.00    +0.000 NA
ATOM     14  C   UNL     1       4.967   4.505  18.536  0.00  0.00    +0.000 A 
ATOM     15  N   UNL     1       6.152   4.317  19.140  0.00  0.00    +0.000 NA
ATOM     16  N   UNL     1       7.004   4.351  18.102  0.00  0.00    +0.000 N 
ATOM     17  H   UNL     1       7.995   4.221  18.264  0.00  0.00    +0.000 HD
ENDBRANCH   5  14
ENDBRANCH   1   9
BRANCH   2  18
ATOM     18  C   UNL     1       0.675   9.206  21.135  0.00  0.00    +0.000 C 
ATOM     19  C   UNL     1       1.139   9.314  22.600  0.00  0.00    +0.000 C 
ATOM     20  C   UNL     1      -0.265   8.900  22.300  0.00  0.00    +0.000 C 
BRANCH  18  21
ATOM     21  C   UNL     1       0.523  10.551  20.415  0.00  0.00    +0.000 A 
ATOM     22  C   UNL     1      -0.612  10.860  19.646  0.00  0.00    +0.000 A 
ATOM     23  C   UNL     1      -0.825  12.147  19.141  0.00  0.00    +0.000 A 
ATOM     24  C   UNL     1       0.124  13.149  19.366  0.00  0.00    +0.000 A 
ATOM     25  C   UNL     1       1.304  12.839  20.036  0.00  0.00    +0.000 A 
ATOM     26  C   UNL     1       1.501  11.553  20.548  0.00  0.00    +0.000 A 
BRANCH  24  27
ATOM     27  C   UNL     1      -0.144  14.495  18.946  0.00  0.00    +0.000 C 
ATOM     28  N   UNL     1      -0.339  15.579  18.579  0.00  0.00    +0.000 NA
ENDBRANCH  24  27
ENDBRANCH  18  21
ENDBRANCH   2  18
TORSDOF 5
ENDMDL
MODEL 8
REMARK VINA RESULT:      -7.5      2.196      3.297
REMARK  Name = 
REMARK  6 active torsions:
REMARK  status: ('A' for Active; 'I' for Inactive)
REMARK    1  A    between atoms: C_1  and  C_2
REMARK    2  A    between atoms: C_4  and  C_5
REMARK    3  A    between atoms: C_9  and  N_10
REMARK    4  A    between atoms: C_11  and  C_13
REMARK    5  A    between atoms: C_13  and  C_14
REMARK    6  A    between atoms: C_17  and  C_18
REMARK                            x       y       z     vdW  Elec       q    Type
REMARK                         _______ _______ _______ _____ _____    ______ ____
ROOT
ATOM      1  N   UNL     1       1.941   7.170  20.368  0.00  0.00    +0.000 N 
ATOM      2  C   UNL     1       2.512   6.801  19.162  0.00  0.00    +0.000 C 
ATOM      3  O   UNL     1       2.489   7.434  18.116  0.00  0.00    +0.000 OA
ATOM      4  H   UNL     1       1.939   6.483  21.112  0.00  0.00    +0.000 HD
ENDROOT
BRANCH   1   9
ATOM      5  C   UNL     1      -0.024  10.291  19.822  0.00  0.00    +0.000 A 
ATOM      6  C   UNL     1       0.041  10.874  21.093  0.00  0.00    +0.000 A 
ATOM      7  C   UNL     1       0.720  10.240  22.129  0.00  0.00    +0.000 A 
ATOM      8  C   UNL     1       1.347   9.017  21.895  0.00  0.00    +0.000 A 
ATOM      9  C   UNL     1       1.316   8.414  20.633  0.00  0.00    +0.000 A 
ATOM     10  C   UNL     1       0.615   9.052  19.602  0.00  0.00    +0.000 A 
BRANCH   5  14
ATOM     11  C   UNL     1      -2.981  11.033  15.953  0.00  0.00    +0.000 C 
ATOM     12  C   UNL     1      -2.059  11.208  17.093  0.00  0.00    +0.000 A 
ATOM     13  N   UNL     1      -1.608  10.288  17.913  0.00  0.00    +0.000 NA
ATOM     14  C   UNL     1      -0.770  10.974  18.768  0.00  0.00    +0.000 A 
ATOM     15  N   UNL     1      -0.700  12.289  18.508  0.00  0.00    +0.000 NA
ATOM     16  N   UNL     1      -1.517  12.409  17.448  0.00  0.00    +0.000 N 
ATOM     17  H   UNL     1      -1.650  13.317  17.021  0.00  0.00    +0.000 HD
ENDBRANCH   5  14
ENDBRANCH   1   9
BRANCH   2  18
ATOM     18  C   UNL     1       3.225   5.467  19.159  0.00  0.00    +0.000 C 
ATOM     19  C   UNL     1       2.277   4.266  19.334  0.00  0.00    +0.000 C 
ATOM     20  C   UNL     1       3.264   4.589  20.409  0.00  0.00    +0.000 C 
BRANCH  18  21
ATOM     21  C   UNL     1       4.316   5.268  18.100  0.00  0.00    +0.000 A 
ATOM     22  C   UNL     1       4.135   4.417  16.996  0.00  0.00    +0.000 A 
ATOM     23  C   UNL     1       5.058   4.377  15.945  0.00  0.00    +0.000 A 
ATOM     24  C   UNL     1       6.209   5.169  15.999  0.00  0.00    +0.000 A 
ATOM     25  C   UNL     1       6.459   5.941  17.129  0.00  0.00    +0.000 A 
ATOM     26  C   UNL     1       5.525   5.984  18.168  0.00  0.00    +0.000 A 
BRANCH  24  27
ATOM     27  C   UNL     1       7.099   5.214  14.874  0.00  0.00    +0.000 C 
ATOM     28  N   UNL     1       7.797   5.270  13.947  0.00  0.00    +0.000 NA
ENDBRANCH  24  27
ENDBRANCH  18  21
ENDBRANCH   2  18
TORSDOF 5
ENDMDL
MODEL 9
REMARK VINA RESULT:      -7.5      2.214      3.055
REMARK  Name = 
REMARK  6 active torsions:
REMARK  status: ('A' for Active; 'I' for Inactive)
REMARK    1  A    between atoms: C_1  and  C_2
REMARK    2  A    between atoms: C_4  and  C_5
REMARK    3  A    between atoms: C_9  and  N_10
REMARK    4  A    between atoms: C_11  and  C_13
REMARK    5  A    between atoms: C_13  and  C_14
REMARK    6  A    between atoms: C_17  and  C_18
REMARK                            x       y       z     vdW  Elec       q    Type
REMARK                         _______ _______ _______ _____ _____    ______ ____
ROOT
ATOM      1  N   UNL     1       1.937   7.055  18.863  0.00  0.00    +0.000 N 
ATOM      2  C   UNL     1       2.464   5.876  19.359  0.00  0.00    +0.000 C 
ATOM      3  O   UNL     1       2.767   5.638  20.519  0.00  0.00    +0.000 OA
ATOM      4  H   UNL     1       1.854   7.143  17.858  0.00  0.00    +0.000 HD
ENDROOT
BRANCH   1   9
ATOM      5  C   UNL     1       0.670  10.452  19.731  0.00  0.00    +0.000 A 
ATOM      6  C   UNL     1       0.738  10.414  21.130  0.00  0.00    +0.000 A 
ATOM      7  C   UNL     1       1.188   9.272  21.786  0.00  0.00    +0.000 A 
ATOM      8  C   UNL     1       1.584   8.162  21.042  0.00  0.00    +0.000 A 
ATOM      9  C   UNL     1       1.545   8.171  19.644  0.00  0.00    +0.000 A 
ATOM     10  C   UNL     1       1.072   9.319  18.994  0.00  0.00    +0.000 A 
BRANCH   5  14
ATOM     11  C   UNL     1      -0.049  15.208  18.673  0.00  0.00    +0.000 C 
ATOM     12  C   UNL     1      -0.091  13.733  18.690  0.00  0.00    +0.000 A 
ATOM     13  N   UNL     1       0.602  12.915  19.447  0.00  0.00    +0.000 NA
ATOM     14  C   UNL     1       0.165  11.659  19.081  0.00  0.00    +0.000 A 
ATOM     15  N   UNL     1      -0.767  11.676  18.114  0.00  0.00    +0.000 NA
ATOM     16  N   UNL     1      -0.912  12.992  17.889  0.00  0.00    +0.000 N 
ATOM     17  H   UNL     1      -1.580  13.310  17.197  0.00  0.00    +0.000 HD
ENDBRANCH   5  14
ENDBRANCH   1   9
BRANCH   2  18
ATOM     18  C   UNL     1       2.692   4.783  18.338  0.00  0.00    +0.000 C 
ATOM     19  C   UNL     1       1.416   4.384  17.572  0.00  0.00    +0.000 C 
ATOM     20  C   UNL     1       2.057   3.403  18.500  0.00  0.00    +0.000 C 
BRANCH  18  21
ATOM     21  C   UNL     1       3.947   4.905  17.464  0.00  0.00    +0.000 A 
ATOM     22  C   UNL     1       4.613   3.777  16.956  0.00  0.00    +0.000 A 
ATOM     23  C   UNL     1       5.645   3.897  16.019  0.00  0.00    +0.000 A 
ATOM     24  C   UNL     1       6.059   5.164  15.598  0.00  0.00    +0.000 A 
ATOM     25  C   UNL     1       5.484   6.298  16.165  0.00  0.00    +0.000 A 
ATOM     26  C   UNL     1       4.444   6.167  17.091  0.00  0.00    +0.000 A 
BRANCH  24  27
ATOM     27  C   UNL     1       7.038   5.288  14.557  0.00  0.00    +0.000 C 
ATOM     28  N   UNL     1       7.806   5.396  13.692  0.00  0.00    +0.000 NA
ENDBRANCH  24  27
ENDBRANCH  18  21
ENDBRANCH   2  18
TORSDOF 5
ENDMDL
