MODEL 1
REMARK VINA RESULT:      -7.7      0.000      0.000
REMARK  Name = 
REMARK  6 active torsions:
REMARK  status: ('A' for Active; 'I' for Inactive)
REMARK    1  A    between atoms: C_1  and  C_2
REMARK    2  A    between atoms: C_5  and  C_6
REMARK    3  A    between atoms: C_9  and  C_10
REMARK    4  A    between atoms: N_12  and  C_13
REMARK    5  A    between atoms: N_12  and  C_21
REMARK    6  A    between atoms: C_13  and  C_14
REMARK                            x       y       z     vdW  Elec       q    Type
REMARK                         _______ _______ _______ _____ _____    ______ ____
ROOT
ATOM      1  C   UNL     1       3.965   5.101  17.471  0.00  0.00    +0.000 C 
ATOM      2  O   UNL     1       3.159   4.232  17.131  0.00  0.00    +0.000 OA
ATOM      3  N   UNL     1       5.354   4.951  17.302  0.00  0.00    +0.000 N 
ENDROOT
BRANCH   1   7
ATOM      4  C   UNL     1       1.878   8.528  19.086  0.00  0.00    +0.000 A 
ATOM      5  C   UNL     1       2.109   7.389  19.870  0.00  0.00    +0.000 A 
ATOM      6  C   UNL     1       2.851   6.308  19.360  0.00  0.00    +0.000 A 
ATOM      7  C   UNL     1       3.390   6.356  18.065  0.00  0.00    +0.000 A 
ATOM      8  C   UNL     1       3.231   7.529  17.323  0.00  0.00    +0.000 A 
ATOM      9  C   UNL     1       2.514   8.616  17.840  0.00  0.00    +0.000 A 
BRANCH   4  14
ATOM     10  C   UNL     1      -1.967  11.572  19.092  0.00  0.00    +0.000 C 
ATOM     11  C   UNL     1      -0.806  10.778  19.536  0.00  0.00    +0.000 A 
ATOM     12  N   UNL     1      -0.626  10.422  20.814  0.00  0.00    +0.000 NA
ATOM     13  O   UNL     1       0.498   9.594  20.759  0.00  0.00    +0.000 OA
ATOM     14  C   UNL     1       0.877   9.534  19.446  0.00  0.00    +0.000 A 
ATOM     15  N   UNL     1       0.124  10.276  18.661  0.00  0.00    +0.000 NA
ENDBRANCH   4  14
ENDBRANCH   1   7
BRANCH   3  16
ATOM     16  C   UNL     1       6.327   5.795  17.950  0.00  0.00    +0.000 C 
ATOM     17  C   UNL     1       7.712   5.332  18.325  0.00  0.00    +0.000 C 
ATOM     18  C   UNL     1       6.695   5.556  19.398  0.00  0.00    +0.000 C 
ENDBRANCH   3  16
BRANCH   3  19
ATOM     19  C   UNL     1       5.861   3.766  16.585  0.00  0.00    +0.000 C 
BRANCH  19  20
ATOM     20  C   UNL     1       6.179   4.020  15.123  0.00  0.00    +0.000 A 
ATOM     21  C   UNL     1       7.312   4.762  14.758  0.00  0.00    +0.000 A 
ATOM     22  C   UNL     1       7.603   5.008  13.406  0.00  0.00    +0.000 A 
ATOM     23  C   UNL     1       6.769   4.509  12.408  0.00  0.00    +0.000 A 
ATOM     24  C   UNL     1       5.636   3.784  12.759  0.00  0.00    +0.000 A 
ATOM     25 BR   UNL     1       4.493   3.120  11.406  0.00  0.00    +0.000 Br
ATOM     26  C   UNL     1       5.330   3.544  14.108  0.00  0.00    +0.000 A 
ENDBRANCH  19  20
ENDBRANCH   3  19
TORSDOF 5
ENDMDL
MODEL 2
REMARK VINA RESULT:      -7.6      3.795      8.699
REMARK  Name = 
REMARK  6 active torsions:
REMARK  status: ('A' for Active; 'I' for Inactive)
REMARK    1  A    between atoms: C_1  and  C_2
REMARK    2  A    between atoms: C_5  and  C_6
REMARK    3  A    between atoms: C_9  and  C_10
REMARK    4  A    between atoms: N_12  and  C_13
REMARK    5  A    between atoms: N_12  and  C_21
REMARK    6  A    between atoms: C_13  and  C_14
REMARK                            x       y       z     vdW  Elec       q    Type
REMARK                         _______ _______ _______ _____ _____    ______ ____
ROOT
ATOM      1  C   UNL     1       4.551   5.548  18.568  0.00  0.00    +0.000 C 
ATOM      2  O   UNL     1       5.331   5.993  19.413  0.00  0.00    +0.000 OA
ATOM      3  N   UNL     1       3.171   5.416  18.807  0.00  0.00    +0.000 N 
ENDROOT
BRANCH   1   7
ATOM      4  C   UNL     1       5.817   4.331  14.614  0.00  0.00    +0.000 A 
ATOM      5  C   UNL     1       5.333   5.625  14.850  0.00  0.00    +0.000 A 
ATOM      6  C   UNL     1       4.993   6.035  16.152  0.00  0.00    +0.000 A 
ATOM      7  C   UNL     1       5.146   5.164  17.242  0.00  0.00    +0.000 A 
ATOM      8  C   UNL     1       5.711   3.906  17.011  0.00  0.00    +0.000 A 
ATOM      9  C   UNL     1       6.074   3.507  15.718  0.00  0.00    +0.000 A 
BRANCH   4  14
ATOM     10  C   UNL     1       7.054   1.693  10.669  0.00  0.00    +0.000 C 
ATOM     11  C   UNL     1       6.323   2.591  11.584  0.00  0.00    +0.000 A 
ATOM     12  N   UNL     1       5.010   2.822  11.465  0.00  0.00    +0.000 NA
ATOM     13  O   UNL     1       4.722   3.605  12.586  0.00  0.00    +0.000 OA
ATOM     14  C   UNL     1       5.898   3.761  13.268  0.00  0.00    +0.000 A 
ATOM     15  N   UNL     1       6.918   3.184  12.669  0.00  0.00    +0.000 NA
ENDBRANCH   4  14
ENDBRANCH   1   7
BRANCH   3  16
ATOM     16  C   UNL     1       2.293   4.633  17.974  0.00  0.00    +0.000 C 
ATOM     17  C   UNL     1       1.148   3.812  18.510  0.00  0.00    +0.000 C 
ATOM     18  C   UNL     1       2.371   3.122  17.998  0.00  0.00    +0.000 C 
ENDBRANCH   3  16
BRANCH   3  19
ATOM     19  C   UNL     1       2.613   5.938  20.069  0.00  0.00    +0.000 C 
BRANCH  19  20
ATOM     20  C   UNL     1       1.987   7.314  19.942  0.00  0.00    +0.000 A 
ATOM     21  C   UNL     1       2.089   8.037  18.745  0.00  0.00    +0.000 A 
ATOM     22  C   UNL     1       1.520   9.315  18.627  0.00  0.00    +0.000 A 
ATOM     23  C   UNL     1       0.838   9.880  19.704  0.00  0.00    +0.000 A 
ATOM     24  C   UNL     1       0.744   9.178  20.900  0.00  0.00    +0.000 A 
ATOM     25 BR   UNL     1      -0.166   9.950  22.368  0.00  0.00    +0.000 Br
ATOM     26  C   UNL     1       1.321   7.905  21.031  0.00  0.00    +0.000 A 
ENDBRANCH  19  20
ENDBRANCH   3  19
TORSDOF 5
ENDMDL
MODEL 3
REMARK VINA RESULT:      -7.5      4.756      6.881
REMARK  Name = 
REMARK  6 active torsions:
REMARK  status: ('A' for Active; 'I' for Inactive)
REMARK    1  A    between atoms: C_1  and  C_2
REMARK    2  A    between atoms: C_5  and  C_6
REMARK    3  A    between atoms: C_9  and  C_10
REMARK    4  A    between atoms: N_12  and  C_13
REMARK    5  A    between atoms: N_12  and  C_21
REMARK    6  A    between atoms: C_13  and  C_14
REMARK                            x       y       z     vdW  Elec       q    Type
REMARK                         _______ _______ _______ _____ _____    ______ ____
ROOT
ATOM      1  C   UNL     1       6.267   4.832  18.020  0.00  0.00    +0.000 C 
ATOM      2  O   UNL     1       6.293   4.198  19.077  0.00  0.00    +0.000 OA
ATOM      3  N   UNL     1       5.530   4.403  16.900  0.00  0.00    +0.000 N 
ENDROOT
BRANCH   1   7
ATOM      4  C   UNL     1       8.272   8.655  18.298  0.00  0.00    +0.000 A 
ATOM      5  C   UNL     1       8.696   7.560  19.065  0.00  0.00    +0.000 A 
ATOM      6  C   UNL     1       8.085   6.302  18.914  0.00  0.00    +0.000 A 
ATOM      7  C   UNL     1       7.052   6.113  17.984  0.00  0.00    +0.000 A 
ATOM      8  C   UNL     1       6.695   7.186  17.162  0.00  0.00    +0.000 A 
ATOM      9  C   UNL     1       7.321   8.432  17.294  0.00  0.00    +0.000 A 
BRANCH   4  14
ATOM     10  C   UNL     1      10.649  12.653  19.853  0.00  0.00    +0.000 C 
ATOM     11  C   UNL     1       9.674  11.773  19.180  0.00  0.00    +0.000 A 
ATOM     12  N   UNL     1       8.975  12.164  18.107  0.00  0.00    +0.000 NA
ATOM     13  O   UNL     1       8.292  11.004  17.733  0.00  0.00    +0.000 OA
ATOM     14  C   UNL     1       8.655  10.030  18.622  0.00  0.00    +0.000 A 
ATOM     15  N   UNL     1       9.478  10.467  19.553  0.00  0.00    +0.000 NA
ENDBRANCH   4  14
ENDBRANCH   1   7
BRANCH   3  16
ATOM     16  C   UNL     1       5.714   4.943  15.576  0.00  0.00    +0.000 C 
ATOM     17  C   UNL     1       5.422   4.172  14.314  0.00  0.00    +0.000 C 
ATOM     18  C   UNL     1       6.841   4.441  14.701  0.00  0.00    +0.000 C 
ENDBRANCH   3  16
BRANCH   3  19
ATOM     19  C   UNL     1       4.663   3.217  17.029  0.00  0.00    +0.000 C 
BRANCH  19  20
ATOM     20  C   UNL     1       3.405   3.459  17.844  0.00  0.00    +0.000 A 
ATOM     21  C   UNL     1       2.309   4.128  17.281  0.00  0.00    +0.000 A 
ATOM     22  C   UNL     1       1.148   4.364  18.035  0.00  0.00    +0.000 A 
ATOM     23  C   UNL     1       1.070   3.926  19.356  0.00  0.00    +0.000 A 
ATOM     24  C   UNL     1       2.157   3.275  19.927  0.00  0.00    +0.000 A 
ATOM     25 BR   UNL     1       2.059   2.694  21.725  0.00  0.00    +0.000 Br
ATOM     26  C   UNL     1       3.326   3.046  19.185  0.00  0.00    +0.000 A 
ENDBRANCH  19  20
ENDBRANCH   3  19
TORSDOF 5
ENDMDL
MODEL 4
REMARK VINA RESULT:      -7.4      4.336      7.711
REMARK  Name = 
REMARK  6 active torsions:
REMARK  status: ('A' for Active; 'I' for Inactive)
REMARK    1  A    between atoms: C_1  and  C_2
REMARK    2  A    between atoms: C_5  and  C_6
REMARK    3  A    between atoms: C_9  and  C_10
REMARK    4  A    between atoms: N_12  and  C_13
REMARK    5  A    between atoms: N_12  and  C_21
REMARK    6  A    between atoms: C_13  and  C_14
REMARK                            x       y       z     vdW  Elec       q    Type
REMARK                         _______ _______ _______ _____ _____    ______ ____
ROOT
ATOM      1  C   UNL     1       0.658  11.552  20.053  0.00  0.00    +0.000 C 
ATOM      2  O   UNL     1       1.802  11.997  20.164  0.00  0.00    +0.000 OA
ATOM      3  N   UNL     1       0.295  10.642  19.044  0.00  0.00    +0.000 N 
ENDROOT
BRANCH   1   7
ATOM      4  C   UNL     1      -2.537  12.584  22.781  0.00  0.00    +0.000 A 
ATOM      5  C   UNL     1      -1.719  11.471  23.016  0.00  0.00    +0.000 A 
ATOM      6  C   UNL     1      -0.637  11.185  22.164  0.00  0.00    +0.000 A 
ATOM      7  C   UNL     1      -0.345  12.016  21.072  0.00  0.00    +0.000 A 
ATOM      8  C   UNL     1      -1.110  13.173  20.895  0.00  0.00    +0.000 A 
ATOM      9  C   UNL     1      -2.172  13.472  21.760  0.00  0.00    +0.000 A 
BRANCH   4  14
ATOM     10  C   UNL     1      -7.253  13.506  23.762  0.00  0.00    +0.000 C 
ATOM     11  C   UNL     1      -5.858  13.042  23.889  0.00  0.00    +0.000 A 
ATOM     12  N   UNL     1      -5.502  12.057  24.724  0.00  0.00    +0.000 NA
ATOM     13  O   UNL     1      -4.150  11.865  24.430  0.00  0.00    +0.000 OA
ATOM     14  C   UNL     1      -3.832  12.756  23.442  0.00  0.00    +0.000 A 
ATOM     15  N   UNL     1      -4.844  13.527  23.102  0.00  0.00    +0.000 NA
ENDBRANCH   4  14
ENDBRANCH   1   7
BRANCH   3  16
ATOM     16  C   UNL     1      -1.073  10.340  18.703  0.00  0.00    +0.000 C 
ATOM     17  C   UNL     1      -1.518   9.945  17.317  0.00  0.00    +0.000 C 
ATOM     18  C   UNL     1      -1.871  11.298  17.846  0.00  0.00    +0.000 C 
ENDBRANCH   3  16
BRANCH   3  19
ATOM     19  C   UNL     1       1.344  10.106  18.156  0.00  0.00    +0.000 C 
BRANCH  19  20
ATOM     20  C   UNL     1       1.897   8.762  18.597  0.00  0.00    +0.000 A 
ATOM     21  C   UNL     1       1.560   8.229  19.849  0.00  0.00    +0.000 A 
ATOM     22  C   UNL     1       2.078   6.992  20.265  0.00  0.00    +0.000 A 
ATOM     23  C   UNL     1       2.932   6.274  19.430  0.00  0.00    +0.000 A 
ATOM     24  C   UNL     1       3.283   6.801  18.193  0.00  0.00    +0.000 A 
ATOM     25 BR   UNL     1       4.455   5.835  17.064  0.00  0.00    +0.000 Br
ATOM     26  C   UNL     1       2.780   8.043  17.774  0.00  0.00    +0.000 A 
ENDBRANCH  19  20
ENDBRANCH   3  19
TORSDOF 5
ENDMDL
MODEL 5
REMARK VINA RESULT:      -7.4      4.482      6.953
REMARK  Name = 
REMARK  6 active torsions:
REMARK  status: ('A' for Active; 'I' for Inactive)
REMARK    1  A    between atoms: C_1  and  C_2
REMARK    2  A    between atoms: C_5  and  C_6
REMARK    3  A    between atoms: C_9  and  C_10
REMARK    4  A    between atoms: N_12  and  C_13
REMARK    5  A    between atoms: N_12  and  C_21
REMARK    6  A    between atoms: C_13  and  C_14
REMARK                            x       y       z     vdW  Elec       q    Type
REMARK                         _______ _______ _______ _____ _____    ______ ____
ROOT
ATOM      1  C   UNL     1       6.033   4.743  17.993  0.00  0.00    +0.000 C 
ATOM      2  O   UNL     1       6.029   4.079  19.032  0.00  0.00    +0.000 OA
ATOM      3  N   UNL     1       5.263   4.394  16.869  0.00  0.00    +0.000 N 
ENDROOT
BRANCH   1   7
ATOM      4  C   UNL     1       8.271   8.427  18.357  0.00  0.00    +0.000 A 
ATOM      5  C   UNL     1       8.627   7.291  19.098  0.00  0.00    +0.000 A 
ATOM      6  C   UNL     1       7.939   6.077  18.919  0.00  0.00    +0.000 A 
ATOM      7  C   UNL     1       6.896   5.974  17.985  0.00  0.00    +0.000 A 
ATOM      8  C   UNL     1       6.606   7.086  17.189  0.00  0.00    +0.000 A 
ATOM      9  C   UNL     1       7.308   8.288  17.349  0.00  0.00    +0.000 A 
BRANCH   4  14
ATOM     10  C   UNL     1      10.716  12.222  20.274  0.00  0.00    +0.000 C 
ATOM     11  C   UNL     1       9.815  11.417  19.427  0.00  0.00    +0.000 A 
ATOM     12  N   UNL     1       9.425  11.817  18.210  0.00  0.00    +0.000 NA
ATOM     13  O   UNL     1       8.705  10.721  17.731  0.00  0.00    +0.000 OA
ATOM     14  C   UNL     1       8.739   9.768  18.712  0.00  0.00    +0.000 A 
ATOM     15  N   UNL     1       9.382  10.167  19.790  0.00  0.00    +0.000 NA
ENDBRANCH   4  14
ENDBRANCH   1   7
BRANCH   3  16
ATOM     16  C   UNL     1       5.469   4.959  15.559  0.00  0.00    +0.000 C 
ATOM     17  C   UNL     1       5.259   4.193  14.278  0.00  0.00    +0.000 C 
ATOM     18  C   UNL     1       6.649   4.520  14.719  0.00  0.00    +0.000 C 
ENDBRANCH   3  16
BRANCH   3  19
ATOM     19  C   UNL     1       4.324   3.260  16.972  0.00  0.00    +0.000 C 
BRANCH  19  20
ATOM     20  C   UNL     1       3.183   3.493  17.945  0.00  0.00    +0.000 A 
ATOM     21  C   UNL     1       2.237   2.486  18.188  0.00  0.00    +0.000 A 
ATOM     22  C   UNL     1       1.174   2.701  19.079  0.00  0.00    +0.000 A 
ATOM     23  C   UNL     1       1.050   3.921  19.741  0.00  0.00    +0.000 A 
ATOM     24  C   UNL     1       1.973   4.930  19.496  0.00  0.00    +0.000 A 
ATOM     25 BR   UNL     1       1.798   6.594  20.380  0.00  0.00    +0.000 Br
ATOM     26  C   UNL     1       3.033   4.729  18.597  0.00  0.00    +0.000 A 
ENDBRANCH  19  20
ENDBRANCH   3  19
TORSDOF 5
ENDMDL
MODEL 6
REMARK VINA RESULT:      -7.3      2.198      3.633
REMARK  Name = 
REMARK  6 active torsions:
REMARK  status: ('A' for Active; 'I' for Inactive)
REMARK    1  A    between atoms: C_1  and  C_2
REMARK    2  A    between atoms: C_5  and  C_6
REMARK    3  A    between atoms: C_9  and  C_10
REMARK    4  A    between atoms: N_12  and  C_13
REMARK    5  A    between atoms: N_12  and  C_21
REMARK    6  A    between atoms: C_13  and  C_14
REMARK                            x       y       z     vdW  Elec       q    Type
REMARK                         _______ _______ _______ _____ _____    ______ ____
ROOT
ATOM      1  C   UNL     1       2.449   6.580  18.605  0.00  0.00    +0.000 C 
ATOM      2  O   UNL     1       2.741   6.779  17.424  0.00  0.00    +0.000 OA
ATOM      3  N   UNL     1       2.535   5.308  19.201  0.00  0.00    +0.000 N 
ENDROOT
BRANCH   1   7
ATOM      4  C   UNL     1       0.754   9.825  20.909  0.00  0.00    +0.000 A 
ATOM      5  C   UNL     1       1.231   8.666  21.538  0.00  0.00    +0.000 A 
ATOM      6  C   UNL     1       1.846   7.647  20.788  0.00  0.00    +0.000 A 
ATOM      7  C   UNL     1       2.011   7.777  19.400  0.00  0.00    +0.000 A 
ATOM      8  C   UNL     1       1.613   8.973  18.794  0.00  0.00    +0.000 A 
ATOM      9  C   UNL     1       1.024   9.998  19.545  0.00  0.00    +0.000 A 
BRANCH   4  14
ATOM     10  C   UNL     1      -3.074  12.630  22.145  0.00  0.00    +0.000 C 
ATOM     11  C   UNL     1      -1.793  11.900  22.202  0.00  0.00    +0.000 A 
ATOM     12  N   UNL     1      -1.225  11.536  23.358  0.00  0.00    +0.000 NA
ATOM     13  O   UNL     1      -0.126  10.778  22.948  0.00  0.00    +0.000 OA
ATOM     14  C   UNL     1      -0.148  10.762  21.580  0.00  0.00    +0.000 A 
ATOM     15  N   UNL     1      -1.137  11.470  21.076  0.00  0.00    +0.000 NA
ENDBRANCH   4  14
ENDBRANCH   1   7
BRANCH   3  16
ATOM     16  C   UNL     1       1.926   4.983  20.467  0.00  0.00    +0.000 C 
ATOM     17  C   UNL     1       2.215   3.714  21.229  0.00  0.00    +0.000 C 
ATOM     18  C   UNL     1       0.893   3.881  20.552  0.00  0.00    +0.000 C 
ENDBRANCH   3  16
BRANCH   3  19
ATOM     19  C   UNL     1       3.105   4.193  18.423  0.00  0.00    +0.000 C 
BRANCH  19  20
ATOM     20  C   UNL     1       4.533   4.428  17.965  0.00  0.00    +0.000 A 
ATOM     21  C   UNL     1       5.530   4.773  18.889  0.00  0.00    +0.000 A 
ATOM     22  C   UNL     1       6.850   5.002  18.469  0.00  0.00    +0.000 A 
ATOM     23  C   UNL     1       7.187   4.881  17.122  0.00  0.00    +0.000 A 
ATOM     24  C   UNL     1       6.204   4.553  16.196  0.00  0.00    +0.000 A 
ATOM     25 BR   UNL     1       6.655   4.404  14.365  0.00  0.00    +0.000 Br
ATOM     26  C   UNL     1       4.878   4.334  16.606  0.00  0.00    +0.000 A 
ENDBRANCH  19  20
ENDBRANCH   3  19
TORSDOF 5
ENDMDL
MODEL 7
REMARK VINA RESULT:      -7.3      1.566      2.582
REMARK  Name = 
REMARK  6 active torsions:
REMARK  status: ('A' for Active; 'I' for Inactive)
REMARK    1  A    between atoms: C_1  and  C_2
REMARK    2  A    between atoms: C_5  and  C_6
REMARK    3  A    between atoms: C_9  and  C_10
REMARK    4  A    between atoms: N_12  and  C_13
REMARK    5  A    between atoms: N_12  and  C_21
REMARK    6  A    between atoms: C_13  and  C_14
REMARK                            x       y       z     vdW  Elec       q    Type
REMARK                         _______ _______ _______ _____ _____    ______ ____
ROOT
ATOM      1  C   UNL     1       3.972   6.092  18.315  0.00  0.00    +0.000 C 
ATOM      2  O   UNL     1       5.123   6.534  18.325  0.00  0.00    +0.000 OA
ATOM      3  N   UNL     1       3.675   4.763  17.963  0.00  0.00    +0.000 N 
ENDROOT
BRANCH   1   7
ATOM      4  C   UNL     1       1.185   9.150  19.578  0.00  0.00    +0.000 A 
ATOM      5  C   UNL     1       1.673   9.116  18.264  0.00  0.00    +0.000 A 
ATOM      6  C   UNL     1       2.521   8.077  17.842  0.00  0.00    +0.000 A 
ATOM      7  C   UNL     1       2.883   7.045  18.722  0.00  0.00    +0.000 A 
ATOM      8  C   UNL     1       2.323   7.038  20.003  0.00  0.00    +0.000 A 
ATOM      9  C   UNL     1       1.457   8.059  20.415  0.00  0.00    +0.000 A 
BRANCH   4  14
ATOM     10  C   UNL     1      -2.021  12.572  21.015  0.00  0.00    +0.000 C 
ATOM     11  C   UNL     1      -0.783  11.783  20.868  0.00  0.00    +0.000 A 
ATOM     12  N   UNL     1       0.182  11.780  21.796  0.00  0.00    +0.000 NA
ATOM     13  O   UNL     1       1.080  10.823  21.318  0.00  0.00    +0.000 OA
ATOM     14  C   UNL     1       0.559  10.344  20.148  0.00  0.00    +0.000 A 
ATOM     15  N   UNL     1      -0.571  10.932  19.812  0.00  0.00    +0.000 NA
ENDBRANCH   4  14
ENDBRANCH   1   7
BRANCH   3  16
ATOM     16  C   UNL     1       2.345   4.303  17.652  0.00  0.00    +0.000 C 
ATOM     17  C   UNL     1       1.379   3.784  18.687  0.00  0.00    +0.000 C 
ATOM     18  C   UNL     1       2.014   2.828  17.728  0.00  0.00    +0.000 C 
ENDBRANCH   3  16
BRANCH   3  19
ATOM     19  C   UNL     1       4.787   3.827  17.710  0.00  0.00    +0.000 C 
BRANCH  19  20
ATOM     20  C   UNL     1       5.554   4.113  16.432  0.00  0.00    +0.000 A 
ATOM     21  C   UNL     1       6.813   4.730  16.479  0.00  0.00    +0.000 A 
ATOM     22  C   UNL     1       7.521   5.006  15.298  0.00  0.00    +0.000 A 
ATOM     23  C   UNL     1       6.981   4.661  14.061  0.00  0.00    +0.000 A 
ATOM     24  C   UNL     1       5.728   4.063  14.003  0.00  0.00    +0.000 A 
ATOM     25 BR   UNL     1       4.985   3.609  12.323  0.00  0.00    +0.000 Br
ATOM     26  C   UNL     1       5.007   3.794  15.177  0.00  0.00    +0.000 A 
ENDBRANCH  19  20
ENDBRANCH   3  19
TORSDOF 5
ENDMDL
MODEL 8
REMARK VINA RESULT:      -7.3      4.718     10.024
REMARK  Name = 
REMARK  6 active torsions:
REMARK  status: ('A' for Active; 'I' for Inactive)
REMARK    1  A    between atoms: C_1  and  C_2
REMARK    2  A    between atoms: C_5  and  C_6
REMARK    3  A    between atoms: C_9  and  C_10
REMARK    4  A    between atoms: N_12  and  C_13
REMARK    5  A    between atoms: N_12  and  C_21
REMARK    6  A    between atoms: C_13  and  C_14
REMARK                            x       y       z     vdW  Elec       q    Type
REMARK                         _______ _______ _______ _____ _____    ______ ____
ROOT
ATOM      1  C   UNL     1      -0.092  10.640  19.013  0.00  0.00    +0.000 C 
ATOM      2  O   UNL     1      -1.219  10.325  18.627  0.00  0.00    +0.000 OA
ATOM      3  N   UNL     1       0.227  11.945  19.432  0.00  0.00    +0.000 N 
ENDROOT
BRANCH   1   7
ATOM      4  C   UNL     1       2.549   7.216  18.878  0.00  0.00    +0.000 A 
ATOM      5  C   UNL     1       2.407   8.062  17.769  0.00  0.00    +0.000 A 
ATOM      6  C   UNL     1       1.603   9.214  17.846  0.00  0.00    +0.000 A 
ATOM      7  C   UNL     1       0.940   9.548  19.037  0.00  0.00    +0.000 A 
ATOM      8  C   UNL     1       1.156   8.748  20.163  0.00  0.00    +0.000 A 
ATOM      9  C   UNL     1       1.979   7.615  20.094  0.00  0.00    +0.000 A 
BRANCH   4  14
ATOM     10  C   UNL     1       3.295   2.475  17.871  0.00  0.00    +0.000 C 
ATOM     11  C   UNL     1       3.521   3.876  18.273  0.00  0.00    +0.000 A 
ATOM     12  N   UNL     1       4.732   4.447  18.236  0.00  0.00    +0.000 NA
ATOM     13  O   UNL     1       4.466   5.778  18.568  0.00  0.00    +0.000 OA
ATOM     14  C   UNL     1       3.116   5.871  18.766  0.00  0.00    +0.000 A 
ATOM     15  N   UNL     1       2.497   4.717  18.631  0.00  0.00    +0.000 NA
ENDBRANCH   4  14
ENDBRANCH   1   7
BRANCH   3  16
ATOM     16  C   UNL     1       1.579  12.417  19.597  0.00  0.00    +0.000 C 
ATOM     17  C   UNL     1       1.972  13.869  19.499  0.00  0.00    +0.000 C 
ATOM     18  C   UNL     1       2.356  12.928  18.404  0.00  0.00    +0.000 C 
ENDBRANCH   3  16
BRANCH   3  19
ATOM     19  C   UNL     1      -0.852  12.947  19.526  0.00  0.00    +0.000 C 
BRANCH  19  20
ATOM     20  C   UNL     1      -1.728  12.794  20.756  0.00  0.00    +0.000 A 
ATOM     21  C   UNL     1      -1.157  12.527  22.009  0.00  0.00    +0.000 A 
ATOM     22  C   UNL     1      -1.965  12.375  23.148  0.00  0.00    +0.000 A 
ATOM     23  C   UNL     1      -3.350  12.495  23.045  0.00  0.00    +0.000 A 
ATOM     24  C   UNL     1      -3.926  12.745  21.805  0.00  0.00    +0.000 A 
ATOM     25 BR   UNL     1      -5.807  12.893  21.661  0.00  0.00    +0.000 Br
ATOM     26  C   UNL     1      -3.127  12.887  20.659  0.00  0.00    +0.000 A 
ENDBRANCH  19  20
ENDBRANCH   3  19
TORSDOF 5
ENDMDL
MODEL 9
REMARK VINA RESULT:      -7.2      4.116     10.282
REMARK  Name = 
REMARK  6 active torsions:
REMARK  status: ('A' for Active; 'I' for Inactive)
REMARK    1  A    between atoms: C_1  and  C_2
REMARK    2  A    between atoms: C_5  and  C_6
REMARK    3  A    between atoms: C_9  and  C_10
REMARK    4  A    between atoms: N_12  and  C_13
REMARK    5  A    between atoms: N_12  and  C_21
REMARK    6  A    between atoms: C_13  and  C_14
REMARK                            x       y       z     vdW  Elec       q    Type
REMARK                         _______ _______ _______ _____ _____    ______ ____
ROOT
ATOM      1  C   UNL     1       0.611  10.803  19.758  0.00  0.00    +0.000 C 
ATOM      2  O   UNL     1       1.319  11.513  20.475  0.00  0.00    +0.000 OA
ATOM      3  N   UNL     1      -0.682  11.184  19.356  0.00  0.00    +0.000 N 
ENDROOT
BRANCH   1   7
ATOM      4  C   UNL     1       2.722   7.181  18.691  0.00  0.00    +0.000 A 
ATOM      5  C   UNL     1       2.058   7.293  19.920  0.00  0.00    +0.000 A 
ATOM      6  C   UNL     1       1.313   8.446  20.228  0.00  0.00    +0.000 A 
ATOM      7  C   UNL     1       1.207   9.499  19.306  0.00  0.00    +0.000 A 
ATOM      8  C   UNL     1       1.798   9.342  18.049  0.00  0.00    +0.000 A 
ATOM      9  C   UNL     1       2.518   8.183  17.732  0.00  0.00    +0.000 A 
BRANCH   4  14
ATOM     10  C   UNL     1       6.483   4.599  16.889  0.00  0.00    +0.000 C 
ATOM     11  C   UNL     1       5.398   5.067  17.772  0.00  0.00    +0.000 A 
ATOM     12  N   UNL     1       5.379   4.807  19.086  0.00  0.00    +0.000 NA
ATOM     13  O   UNL     1       4.272   5.531  19.537  0.00  0.00    +0.000 OA
ATOM     14  C   UNL     1       3.740   6.158  18.444  0.00  0.00    +0.000 A 
ATOM     15  N   UNL     1       4.380   5.873  17.328  0.00  0.00    +0.000 NA
ENDBRANCH   4  14
ENDBRANCH   1   7
BRANCH   3  16
ATOM     16  C   UNL     1      -1.637  10.268  18.783  0.00  0.00    +0.000 C 
ATOM     17  C   UNL     1      -1.663   9.899  17.321  0.00  0.00    +0.000 C 
ATOM     18  C   UNL     1      -2.733  10.783  17.876  0.00  0.00    +0.000 C 
ENDBRANCH   3  16
BRANCH   3  19
ATOM     19  C   UNL     1      -1.169  12.532  19.705  0.00  0.00    +0.000 C 
BRANCH  19  20
ATOM     20  C   UNL     1      -2.112  12.558  20.894  0.00  0.00    +0.000 A 
ATOM     21  C   UNL     1      -1.667  12.171  22.166  0.00  0.00    +0.000 A 
ATOM     22  C   UNL     1      -2.540  12.183  23.266  0.00  0.00    +0.000 A 
ATOM     23  C   UNL     1      -3.863  12.589  23.106  0.00  0.00    +0.000 A 
ATOM     24  C   UNL     1      -4.318  12.961  21.846  0.00  0.00    +0.000 A 
ATOM     25 BR   UNL     1      -6.119  13.497  21.623  0.00  0.00    +0.000 Br
ATOM     26  C   UNL     1      -3.456  12.940  20.738  0.00  0.00    +0.000 A 
ENDBRANCH  19  20
ENDBRANCH   3  19
TORSDOF 5
ENDMDL
