MODEL 1
REMARK VINA RESULT:      -8.8      0.000      0.000
REMARK  Name = 
REMARK  7 active torsions:
REMARK  status: ('A' for Active; 'I' for Inactive)
REMARK    1  A    between atoms: C_1  and  C_2
REMARK    2  A    between atoms: C_2  and  N_3
REMARK    3  A    between atoms: C_2  and  C_19
REMARK    4  A    between atoms: C_4  and  C_6
REMARK    5  A    between atoms: C_6  and  O_7
REMARK    6  A    between atoms: O_7  and  C_8
REMARK    7  A    between atoms: C_12  and  N_13
REMARK                            x       y       z     vdW  Elec       q    Type
REMARK                         _______ _______ _______ _____ _____    ______ ____
ROOT
ATOM      1  N   UNL     1       2.671   6.298  19.025  0.00  0.00    +0.000 N 
ATOM      2  C   UNL     1       2.282   5.030  18.650  0.00  0.00    +0.000 C 
ATOM      3  O   UNL     1       1.608   4.787  17.653  0.00  0.00    +0.000 OA
ATOM      4  H   UNL     1       3.135   6.428  19.897  0.00  0.00    +0.000 HD
ENDROOT
BRANCH   1   6
ATOM      5  C   UNL     1       3.462   8.112  17.504  0.00  0.00    +0.000 C 
ATOM      6  C   UNL     1       2.282   7.479  18.254  0.00  0.00    +0.000 C 
BRANCH   6   7
ATOM      7  C   UNL     1       1.603   8.516  19.126  0.00  0.00    +0.000 A 
ATOM      8  C   UNL     1       1.184   9.708  18.524  0.00  0.00    +0.000 A 
ATOM      9  C   UNL     1       0.682  10.751  19.295  0.00  0.00    +0.000 A 
ATOM     10  C   UNL     1       0.462  10.574  20.663  0.00  0.00    +0.000 A 
ATOM     11  C   UNL     1      -0.071  11.608  21.430  0.00  0.00    +0.000 A 
ATOM     12  C   UNL     1      -0.784  11.305  22.581  0.00  0.00    +0.000 A 
ATOM     13  C   UNL     1      -0.678  10.034  23.132  0.00  0.00    +0.000 A 
ATOM     14  C   UNL     1       0.171   9.090  22.542  0.00  0.00    +0.000 A 
ATOM     15  C   UNL     1       0.694   9.320  21.256  0.00  0.00    +0.000 A 
ATOM     16  C   UNL     1       1.384   8.343  20.509  0.00  0.00    +0.000 A 
ENDBRANCH   6   7
ENDBRANCH   1   6
BRANCH   2  17
ATOM     17  C   UNL     1       2.802   3.917  19.562  0.00  0.00    +0.000 C 
BRANCH  17  18
ATOM     18  O   UNL     1       3.919   3.266  18.973  0.00  0.00    +0.000 OA
BRANCH  18  19
ATOM     19  C   UNL     1       4.975   4.062  18.615  0.00  0.00    +0.000 A 
ATOM     20  C   UNL     1       5.777   4.797  19.490  0.00  0.00    +0.000 A 
ATOM     21  C   UNL     1       6.856   5.536  18.999  0.00  0.00    +0.000 A 
ATOM     22  C   UNL     1       7.151   5.539  17.635  0.00  0.00    +0.000 A 
ATOM     23  C   UNL     1       6.342   4.815  16.747  0.00  0.00    +0.000 A 
ATOM     24  C   UNL     1       5.243   4.096  17.242  0.00  0.00    +0.000 A 
BRANCH  23  25
ATOM     25  N   UNL     1       6.666   4.785  15.372  0.00  0.00    +0.000 N 
ATOM     26  C   UNL     1       6.165   3.989  14.373  0.00  0.00    +0.000 A 
ATOM     27  N   UNL     1       6.802   4.241  13.253  0.00  0.00    +0.000 NA
ATOM     28  N   UNL     1       7.702   5.230  13.553  0.00  0.00    +0.000 NA
ATOM     29  N   UNL     1       7.621   5.575  14.831  0.00  0.00    +0.000 NA
ENDBRANCH  23  25
ENDBRANCH  18  19
ENDBRANCH  17  18
ENDBRANCH   2  17
TORSDOF 6
ENDMDL
MODEL 2
REMARK VINA RESULT:      -8.7      5.922      8.499
REMARK  Name = 
REMARK  7 active torsions:
REMARK  status: ('A' for Active; 'I' for Inactive)
REMARK    1  A    between atoms: C_1  and  C_2
REMARK    2  A    between atoms: C_2  and  N_3
REMARK    3  A    between atoms: C_2  and  C_19
REMARK    4  A    between atoms: C_4  and  C_6
REMARK    5  A    between atoms: C_6  and  O_7
REMARK    6  A    between atoms: O_7  and  C_8
REMARK    7  A    between atoms: C_12  and  N_13
REMARK                            x       y       z     vdW  Elec       q    Type
REMARK                         _______ _______ _______ _____ _____    ______ ____
ROOT
ATOM      1  N   UNL     1       7.165   6.958  16.719  0.00  0.00    +0.000 N 
ATOM      2  C   UNL     1       7.793   7.395  17.866  0.00  0.00    +0.000 C 
ATOM      3  O   UNL     1       8.137   6.654  18.782  0.00  0.00    +0.000 OA
ATOM      4  H   UNL     1       6.830   7.626  16.061  0.00  0.00    +0.000 HD
ENDROOT
BRANCH   1   6
ATOM      5  C   UNL     1       6.940   5.122  15.042  0.00  0.00    +0.000 C 
ATOM      6  C   UNL     1       6.837   5.547  16.514  0.00  0.00    +0.000 C 
BRANCH   6   7
ATOM      7  C   UNL     1       5.463   5.210  17.058  0.00  0.00    +0.000 A 
ATOM      8  C   UNL     1       4.536   6.251  17.193  0.00  0.00    +0.000 A 
ATOM      9  C   UNL     1       3.312   6.030  17.814  0.00  0.00    +0.000 A 
ATOM     10  C   UNL     1       2.933   4.739  18.188  0.00  0.00    +0.000 A 
ATOM     11  C   UNL     1       1.692   4.512  18.781  0.00  0.00    +0.000 A 
ATOM     12  C   UNL     1       1.092   3.268  18.651  0.00  0.00    +0.000 A 
ATOM     13  C   UNL     1       1.857   2.184  18.237  0.00  0.00    +0.000 A 
ATOM     14  C   UNL     1       3.224   2.352  17.989  0.00  0.00    +0.000 A 
ATOM     15  C   UNL     1       3.767   3.646  17.887  0.00  0.00    +0.000 A 
ATOM     16  C   UNL     1       5.079   3.908  17.442  0.00  0.00    +0.000 A 
ENDBRANCH   6   7
ENDBRANCH   1   6
BRANCH   2  17
ATOM     17  C   UNL     1       8.078   8.897  17.893  0.00  0.00    +0.000 C 
BRANCH  17  18
ATOM     18  O   UNL     1       8.927   9.228  18.982  0.00  0.00    +0.000 OA
BRANCH  18  19
ATOM     19  C   UNL     1       9.414  10.509  19.013  0.00  0.00    +0.000 A 
ATOM     20  C   UNL     1      10.017  11.179  17.947  0.00  0.00    +0.000 A 
ATOM     21  C   UNL     1      10.430  12.506  18.097  0.00  0.00    +0.000 A 
ATOM     22  C   UNL     1      10.235  13.177  19.304  0.00  0.00    +0.000 A 
ATOM     23  C   UNL     1       9.642  12.508  20.384  0.00  0.00    +0.000 A 
ATOM     24  C   UNL     1       9.254  11.167  20.238  0.00  0.00    +0.000 A 
BRANCH  23  25
ATOM     25  N   UNL     1       9.407  13.200  21.592  0.00  0.00    +0.000 N 
ATOM     26  C   UNL     1       8.696  12.811  22.700  0.00  0.00    +0.000 A 
ATOM     27  N   UNL     1       8.667  13.795  23.569  0.00  0.00    +0.000 NA
ATOM     28  N   UNL     1       9.393  14.810  23.003  0.00  0.00    +0.000 NA
ATOM     29  N   UNL     1       9.855  14.457  21.811  0.00  0.00    +0.000 NA
ENDBRANCH  23  25
ENDBRANCH  18  19
ENDBRANCH  17  18
ENDBRANCH   2  17
TORSDOF 6
ENDMDL
MODEL 3
REMARK VINA RESULT:      -8.7      5.965      8.248
REMARK  Name = 
REMARK  7 active torsions:
REMARK  status: ('A' for Active; 'I' for Inactive)
REMARK    1  A    between atoms: C_1  and  C_2
REMARK    2  A    between atoms: C_2  and  N_3
REMARK    3  A    between atoms: C_2  and  C_19
REMARK    4  A    between atoms: C_4  and  C_6
REMARK    5  A    between atoms: C_6  and  O_7
REMARK    6  A    between atoms: O_7  and  C_8
REMARK    7  A    between atoms: C_12  and  N_13
REMARK                            x       y       z     vdW  Elec       q    Type
REMARK                         _______ _______ _______ _____ _____    ______ ____
ROOT
ATOM      1  N   UNL     1       6.955   7.239  16.804  0.00  0.00    +0.000 N 
ATOM      2  C   UNL     1       7.712   7.763  17.831  0.00  0.00    +0.000 C 
ATOM      3  O   UNL     1       8.276   7.082  18.682  0.00  0.00    +0.000 OA
ATOM      4  H   UNL     1       6.449   7.855  16.208  0.00  0.00    +0.000 HD
ENDROOT
BRANCH   1   6
ATOM      5  C   UNL     1       6.923   5.314  15.216  0.00  0.00    +0.000 C 
ATOM      6  C   UNL     1       6.749   5.798  16.662  0.00  0.00    +0.000 C 
BRANCH   6   7
ATOM      7  C   UNL     1       5.394   5.374  17.194  0.00  0.00    +0.000 A 
ATOM      8  C   UNL     1       4.436   6.370  17.420  0.00  0.00    +0.000 A 
ATOM      9  C   UNL     1       3.228   6.061  18.034  0.00  0.00    +0.000 A 
ATOM     10  C   UNL     1       2.896   4.733  18.311  0.00  0.00    +0.000 A 
ATOM     11  C   UNL     1       1.672   4.419  18.898  0.00  0.00    +0.000 A 
ATOM     12  C   UNL     1       1.110   3.170  18.677  0.00  0.00    +0.000 A 
ATOM     13  C   UNL     1       1.903   2.148  18.171  0.00  0.00    +0.000 A 
ATOM     14  C   UNL     1       3.261   2.380  17.922  0.00  0.00    +0.000 A 
ATOM     15  C   UNL     1       3.761   3.695  17.916  0.00  0.00    +0.000 A 
ATOM     16  C   UNL     1       5.058   4.034  17.479  0.00  0.00    +0.000 A 
ENDBRANCH   6   7
ENDBRANCH   1   6
BRANCH   2  17
ATOM     17  C   UNL     1       7.837   9.288  17.805  0.00  0.00    +0.000 C 
BRANCH  17  18
ATOM     18  O   UNL     1       9.181   9.686  18.034  0.00  0.00    +0.000 OA
BRANCH  18  19
ATOM     19  C   UNL     1       9.368  10.770  18.851  0.00  0.00    +0.000 A 
ATOM     20  C   UNL     1       9.463  10.736  20.243  0.00  0.00    +0.000 A 
ATOM     21  C   UNL     1       9.702  11.913  20.958  0.00  0.00    +0.000 A 
ATOM     22  C   UNL     1       9.859  13.128  20.291  0.00  0.00    +0.000 A 
ATOM     23  C   UNL     1       9.752  13.173  18.894  0.00  0.00    +0.000 A 
ATOM     24  C   UNL     1       9.485  11.994  18.182  0.00  0.00    +0.000 A 
BRANCH  23  25
ATOM     25  N   UNL     1       9.952  14.397  18.217  0.00  0.00    +0.000 N 
ATOM     26  C   UNL     1       9.089  15.448  18.036  0.00  0.00    +0.000 A 
ATOM     27  N   UNL     1       9.658  16.355  17.276  0.00  0.00    +0.000 NA
ATOM     28  N   UNL     1      10.909  15.872  16.996  0.00  0.00    +0.000 NA
ATOM     29  N   UNL     1      11.102  14.691  17.569  0.00  0.00    +0.000 NA
ENDBRANCH  23  25
ENDBRANCH  18  19
ENDBRANCH  17  18
ENDBRANCH   2  17
TORSDOF 6
ENDMDL
MODEL 4
REMARK VINA RESULT:      -8.6      5.987      8.363
REMARK  Name = 
REMARK  7 active torsions:
REMARK  status: ('A' for Active; 'I' for Inactive)
REMARK    1  A    between atoms: C_1  and  C_2
REMARK    2  A    between atoms: C_2  and  N_3
REMARK    3  A    between atoms: C_2  and  C_19
REMARK    4  A    between atoms: C_4  and  C_6
REMARK    5  A    between atoms: C_6  and  O_7
REMARK    6  A    between atoms: O_7  and  C_8
REMARK    7  A    between atoms: C_12  and  N_13
REMARK                            x       y       z     vdW  Elec       q    Type
REMARK                         _______ _______ _______ _____ _____    ______ ____
ROOT
ATOM      1  N   UNL     1       7.107   7.286  16.749  0.00  0.00    +0.000 N 
ATOM      2  C   UNL     1       7.814   7.856  17.787  0.00  0.00    +0.000 C 
ATOM      3  O   UNL     1       8.341   7.214  18.691  0.00  0.00    +0.000 OA
ATOM      4  H   UNL     1       6.627   7.874  16.105  0.00  0.00    +0.000 HD
ENDROOT
BRANCH   1   6
ATOM      5  C   UNL     1       7.149   5.296  15.243  0.00  0.00    +0.000 C 
ATOM      6  C   UNL     1       6.911   5.839  16.659  0.00  0.00    +0.000 C 
BRANCH   6   7
ATOM      7  C   UNL     1       5.537   5.431  17.150  0.00  0.00    +0.000 A 
ATOM      8  C   UNL     1       4.571   6.433  17.307  0.00  0.00    +0.000 A 
ATOM      9  C   UNL     1       3.339   6.142  17.883  0.00  0.00    +0.000 A 
ATOM     10  C   UNL     1       2.996   4.823  18.187  0.00  0.00    +0.000 A 
ATOM     11  C   UNL     1       1.749   4.527  18.734  0.00  0.00    +0.000 A 
ATOM     12  C   UNL     1       1.196   3.271  18.530  0.00  0.00    +0.000 A 
ATOM     13  C   UNL     1       2.007   2.234  18.087  0.00  0.00    +0.000 A 
ATOM     14  C   UNL     1       3.374   2.459  17.885  0.00  0.00    +0.000 A 
ATOM     15  C   UNL     1       3.875   3.774  17.859  0.00  0.00    +0.000 A 
ATOM     16  C   UNL     1       5.188   4.100  17.462  0.00  0.00    +0.000 A 
ENDBRANCH   6   7
ENDBRANCH   1   6
BRANCH   2  17
ATOM     17  C   UNL     1       7.936   9.379  17.702  0.00  0.00    +0.000 C 
BRANCH  17  18
ATOM     18  O   UNL     1       8.929   9.854  18.599  0.00  0.00    +0.000 OA
BRANCH  18  19
ATOM     19  C   UNL     1       9.541  11.034  18.266  0.00  0.00    +0.000 A 
ATOM     20  C   UNL     1      10.828  11.167  17.743  0.00  0.00    +0.000 A 
ATOM     21  C   UNL     1      11.320  12.430  17.401  0.00  0.00    +0.000 A 
ATOM     22  C   UNL     1      10.529  13.567  17.567  0.00  0.00    +0.000 A 
ATOM     23  C   UNL     1       9.240  13.444  18.105  0.00  0.00    +0.000 A 
ATOM     24  C   UNL     1       8.761  12.178  18.472  0.00  0.00    +0.000 A 
BRANCH  23  25
ATOM     25  N   UNL     1       8.424  14.591  18.234  0.00  0.00    +0.000 N 
ATOM     26  C   UNL     1       7.088  14.684  18.532  0.00  0.00    +0.000 A 
ATOM     27  N   UNL     1       6.714  15.942  18.474  0.00  0.00    +0.000 NA
ATOM     28  N   UNL     1       7.843  16.650  18.157  0.00  0.00    +0.000 NA
ATOM     29  N   UNL     1       8.887  15.843  18.020  0.00  0.00    +0.000 NA
ENDBRANCH  23  25
ENDBRANCH  18  19
ENDBRANCH  17  18
ENDBRANCH   2  17
TORSDOF 6
ENDMDL
MODEL 5
REMARK VINA RESULT:      -8.6      5.881      8.241
REMARK  Name = 
REMARK  7 active torsions:
REMARK  status: ('A' for Active; 'I' for Inactive)
REMARK    1  A    between atoms: C_1  and  C_2
REMARK    2  A    between atoms: C_2  and  N_3
REMARK    3  A    between atoms: C_2  and  C_19
REMARK    4  A    between atoms: C_4  and  C_6
REMARK    5  A    between atoms: C_6  and  O_7
REMARK    6  A    between atoms: O_7  and  C_8
REMARK    7  A    between atoms: C_12  and  N_13
REMARK                            x       y       z     vdW  Elec       q    Type
REMARK                         _______ _______ _______ _____ _____    ______ ____
ROOT
ATOM      1  N   UNL     1       7.087   6.748  16.857  0.00  0.00    +0.000 N 
ATOM      2  C   UNL     1       7.781   7.241  17.942  0.00  0.00    +0.000 C 
ATOM      3  O   UNL     1       8.217   6.541  18.851  0.00  0.00    +0.000 OA
ATOM      4  H   UNL     1       6.681   7.385  16.207  0.00  0.00    +0.000 HD
ENDROOT
BRANCH   1   6
ATOM      5  C   UNL     1       6.927   4.830  15.268  0.00  0.00    +0.000 C 
ATOM      6  C   UNL     1       6.797   5.321  16.717  0.00  0.00    +0.000 C 
BRANCH   6   7
ATOM      7  C   UNL     1       5.425   4.975  17.263  0.00  0.00    +0.000 A 
ATOM      8  C   UNL     1       4.718   3.934  16.649  0.00  0.00    +0.000 A 
ATOM      9  C   UNL     1       3.404   3.663  17.014  0.00  0.00    +0.000 A 
ATOM     10  C   UNL     1       2.817   4.333  18.089  0.00  0.00    +0.000 A 
ATOM     11  C   UNL     1       1.511   4.038  18.476  0.00  0.00    +0.000 A 
ATOM     12  C   UNL     1       1.125   4.252  19.791  0.00  0.00    +0.000 A 
ATOM     13  C   UNL     1       1.913   5.052  20.610  0.00  0.00    +0.000 A 
ATOM     14  C   UNL     1       3.063   5.658  20.090  0.00  0.00    +0.000 A 
ATOM     15  C   UNL     1       3.574   5.247  18.845  0.00  0.00    +0.000 A 
ATOM     16  C   UNL     1       4.828   5.654  18.345  0.00  0.00    +0.000 A 
ENDBRANCH   6   7
ENDBRANCH   1   6
BRANCH   2  17
ATOM     17  C   UNL     1       8.011   8.753  17.906  0.00  0.00    +0.000 C 
BRANCH  17  18
ATOM     18  O   UNL     1       8.821   9.164  18.998  0.00  0.00    +0.000 OA
BRANCH  18  19
ATOM     19  C   UNL     1       9.312  10.442  18.951  0.00  0.00    +0.000 A 
ATOM     20  C   UNL     1       9.864  11.064  17.829  0.00  0.00    +0.000 A 
ATOM     21  C   UNL     1      10.288  12.393  17.901  0.00  0.00    +0.000 A 
ATOM     22  C   UNL     1      10.154  13.116  19.087  0.00  0.00    +0.000 A 
ATOM     23  C   UNL     1       9.614  12.496  20.222  0.00  0.00    +0.000 A 
ATOM     24  C   UNL     1       9.214  11.153  20.153  0.00  0.00    +0.000 A 
BRANCH  23  25
ATOM     25  N   UNL     1       9.440  13.241  21.410  0.00  0.00    +0.000 N 
ATOM     26  C   UNL     1       8.718  12.936  22.536  0.00  0.00    +0.000 A 
ATOM     27  N   UNL     1       8.765  13.947  23.373  0.00  0.00    +0.000 NA
ATOM     28  N   UNL     1       9.551  14.892  22.769  0.00  0.00    +0.000 NA
ATOM     29  N   UNL     1       9.974  14.471  21.584  0.00  0.00    +0.000 NA
ENDBRANCH  23  25
ENDBRANCH  18  19
ENDBRANCH  17  18
ENDBRANCH   2  17
TORSDOF 6
ENDMDL
MODEL 6
REMARK VINA RESULT:      -8.6      5.944      8.216
REMARK  Name = 
REMARK  7 active torsions:
REMARK  status: ('A' for Active; 'I' for Inactive)
REMARK    1  A    between atoms: C_1  and  C_2
REMARK    2  A    between atoms: C_2  and  N_3
REMARK    3  A    between atoms: C_2  and  C_19
REMARK    4  A    between atoms: C_4  and  C_6
REMARK    5  A    between atoms: C_6  and  O_7
REMARK    6  A    between atoms: O_7  and  C_8
REMARK    7  A    between atoms: C_12  and  N_13
REMARK                            x       y       z     vdW  Elec       q    Type
REMARK                         _______ _______ _______ _____ _____    ______ ____
ROOT
ATOM      1  N   UNL     1       6.787   7.168  16.927  0.00  0.00    +0.000 N 
ATOM      2  C   UNL     1       7.691   7.550  17.896  0.00  0.00    +0.000 C 
ATOM      3  O   UNL     1       8.155   6.786  18.738  0.00  0.00    +0.000 OA
ATOM      4  H   UNL     1       6.381   7.860  16.339  0.00  0.00    +0.000 HD
ENDROOT
BRANCH   1   6
ATOM      5  C   UNL     1       5.922   5.385  15.409  0.00  0.00    +0.000 C 
ATOM      6  C   UNL     1       6.289   5.795  16.843  0.00  0.00    +0.000 C 
BRANCH   6   7
ATOM      7  C   UNL     1       5.108   5.572  17.766  0.00  0.00    +0.000 A 
ATOM      8  C   UNL     1       4.106   6.550  17.797  0.00  0.00    +0.000 A 
ATOM      9  C   UNL     1       3.070   6.470  18.722  0.00  0.00    +0.000 A 
ATOM     10  C   UNL     1       2.940   5.345  19.540  0.00  0.00    +0.000 A 
ATOM     11  C   UNL     1       1.883   5.250  20.444  0.00  0.00    +0.000 A 
ATOM     12  C   UNL     1       1.429   3.997  20.832  0.00  0.00    +0.000 A 
ATOM     13  C   UNL     1       2.222   2.882  20.592  0.00  0.00    +0.000 A 
ATOM     14  C   UNL     1       3.478   3.038  19.995  0.00  0.00    +0.000 A 
ATOM     15  C   UNL     1       3.824   4.261  19.391  0.00  0.00    +0.000 A 
ATOM     16  C   UNL     1       4.975   4.440  18.597  0.00  0.00    +0.000 A 
ENDBRANCH   6   7
ENDBRANCH   1   6
BRANCH   2  17
ATOM     17  C   UNL     1       8.116   9.017  17.815  0.00  0.00    +0.000 C 
BRANCH  17  18
ATOM     18  O   UNL     1       8.912   9.372  18.936  0.00  0.00    +0.000 OA
BRANCH  18  19
ATOM     19  C   UNL     1       9.435  10.639  18.940  0.00  0.00    +0.000 A 
ATOM     20  C   UNL     1      10.109  11.247  17.880  0.00  0.00    +0.000 A 
ATOM     21  C   UNL     1      10.554  12.566  17.997  0.00  0.00    +0.000 A 
ATOM     22  C   UNL     1      10.321  13.292  19.165  0.00  0.00    +0.000 A 
ATOM     23  C   UNL     1       9.657  12.685  20.240  0.00  0.00    +0.000 A 
ATOM     24  C   UNL     1       9.236  11.351  20.128  0.00  0.00    +0.000 A 
BRANCH  23  25
ATOM     25  N   UNL     1       9.385  13.434  21.407  0.00  0.00    +0.000 N 
ATOM     26  C   UNL     1       9.956  14.599  21.852  0.00  0.00    +0.000 A 
ATOM     27  N   UNL     1       9.458  14.910  23.026  0.00  0.00    +0.000 NA
ATOM     28  N   UNL     1       8.541  13.932  23.310  0.00  0.00    +0.000 NA
ATOM     29  N   UNL     1       8.480  13.039  22.331  0.00  0.00    +0.000 NA
ENDBRANCH  23  25
ENDBRANCH  18  19
ENDBRANCH  17  18
ENDBRANCH   2  17
TORSDOF 6
ENDMDL
MODEL 7
REMARK VINA RESULT:      -8.5      5.919      7.921
REMARK  Name = 
REMARK  7 active torsions:
REMARK  status: ('A' for Active; 'I' for Inactive)
REMARK    1  A    between atoms: C_1  and  C_2
REMARK    2  A    between atoms: C_2  and  N_3
REMARK    3  A    between atoms: C_2  and  C_19
REMARK    4  A    between atoms: C_4  and  C_6
REMARK    5  A    between atoms: C_6  and  O_7
REMARK    6  A    between atoms: O_7  and  C_8
REMARK    7  A    between atoms: C_12  and  N_13
REMARK                            x       y       z     vdW  Elec       q    Type
REMARK                         _______ _______ _______ _____ _____    ______ ____
ROOT
ATOM      1  N   UNL     1       6.761   7.365  16.920  0.00  0.00    +0.000 N 
ATOM      2  C   UNL     1       7.684   7.849  17.823  0.00  0.00    +0.000 C 
ATOM      3  O   UNL     1       8.243   7.155  18.667  0.00  0.00    +0.000 OA
ATOM      4  H   UNL     1       6.277   8.003  16.328  0.00  0.00    +0.000 HD
ENDROOT
BRANCH   1   6
ATOM      5  C   UNL     1       6.103   5.420  15.500  0.00  0.00    +0.000 C 
ATOM      6  C   UNL     1       6.357   5.959  16.915  0.00  0.00    +0.000 C 
BRANCH   6   7
ATOM      7  C   UNL     1       5.139   5.725  17.787  0.00  0.00    +0.000 A 
ATOM      8  C   UNL     1       4.100   6.662  17.727  0.00  0.00    +0.000 A 
ATOM      9  C   UNL     1       3.022   6.577  18.602  0.00  0.00    +0.000 A 
ATOM     10  C   UNL     1       2.894   5.481  19.459  0.00  0.00    +0.000 A 
ATOM     11  C   UNL     1       1.797   5.379  20.313  0.00  0.00    +0.000 A 
ATOM     12  C   UNL     1       1.372   4.126  20.730  0.00  0.00    +0.000 A 
ATOM     13  C   UNL     1       2.219   3.035  20.576  0.00  0.00    +0.000 A 
ATOM     14  C   UNL     1       3.497   3.218  20.036  0.00  0.00    +0.000 A 
ATOM     15  C   UNL     1       3.826   4.429  19.400  0.00  0.00    +0.000 A 
ATOM     16  C   UNL     1       5.008   4.623  18.657  0.00  0.00    +0.000 A 
ENDBRANCH   6   7
ENDBRANCH   1   6
BRANCH   2  17
ATOM     17  C   UNL     1       8.000   9.336  17.662  0.00  0.00    +0.000 C 
BRANCH  17  18
ATOM     18  O   UNL     1       9.016   9.735  18.571  0.00  0.00    +0.000 OA
BRANCH  18  19
ATOM     19  C   UNL     1       9.629  10.934  18.317  0.00  0.00    +0.000 A 
ATOM     20  C   UNL     1      10.964  11.107  17.947  0.00  0.00    +0.000 A 
ATOM     21  C   UNL     1      11.456  12.385  17.670  0.00  0.00    +0.000 A 
ATOM     22  C   UNL     1      10.619  13.499  17.749  0.00  0.00    +0.000 A 
ATOM     23  C   UNL     1       9.281  13.336  18.134  0.00  0.00    +0.000 A 
ATOM     24  C   UNL     1       8.798  12.054  18.437  0.00  0.00    +0.000 A 
BRANCH  23  25
ATOM     25  N   UNL     1       8.423  14.459  18.173  0.00  0.00    +0.000 N 
ATOM     26  C   UNL     1       7.052  14.514  18.143  0.00  0.00    +0.000 A 
ATOM     27  N   UNL     1       6.666  15.769  18.121  0.00  0.00    +0.000 NA
ATOM     28  N   UNL     1       7.816  16.512  18.163  0.00  0.00    +0.000 NA
ATOM     29  N   UNL     1       8.887  15.729  18.205  0.00  0.00    +0.000 NA
ENDBRANCH  23  25
ENDBRANCH  18  19
ENDBRANCH  17  18
ENDBRANCH   2  17
TORSDOF 6
ENDMDL
MODEL 8
REMARK VINA RESULT:      -8.5      2.936      4.079
REMARK  Name = 
REMARK  7 active torsions:
REMARK  status: ('A' for Active; 'I' for Inactive)
REMARK    1  A    between atoms: C_1  and  C_2
REMARK    2  A    between atoms: C_2  and  N_3
REMARK    3  A    between atoms: C_2  and  C_19
REMARK    4  A    between atoms: C_4  and  C_6
REMARK    5  A    between atoms: C_6  and  O_7
REMARK    6  A    between atoms: O_7  and  C_8
REMARK    7  A    between atoms: C_12  and  N_13
REMARK                            x       y       z     vdW  Elec       q    Type
REMARK                         _______ _______ _______ _____ _____    ______ ____
ROOT
ATOM      1  N   UNL     1       1.335   9.310  19.250  0.00  0.00    +0.000 N 
ATOM      2  C   UNL     1       2.112   9.393  18.115  0.00  0.00    +0.000 C 
ATOM      3  O   UNL     1       2.395  10.449  17.555  0.00  0.00    +0.000 OA
ATOM      4  H   UNL     1       1.067   8.414  19.594  0.00  0.00    +0.000 HD
ENDROOT
BRANCH   1   6
ATOM      5  C   UNL     1       0.666  10.381  21.403  0.00  0.00    +0.000 C 
ATOM      6  C   UNL     1       0.761  10.501  19.876  0.00  0.00    +0.000 C 
BRANCH   6   7
ATOM      7  C   UNL     1      -0.599  10.836  19.295  0.00  0.00    +0.000 A 
ATOM      8  C   UNL     1      -1.355  11.832  19.925  0.00  0.00    +0.000 A 
ATOM      9  C   UNL     1      -2.662  12.086  19.524  0.00  0.00    +0.000 A 
ATOM     10  C   UNL     1      -3.192  11.447  18.400  0.00  0.00    +0.000 A 
ATOM     11  C   UNL     1      -4.491  11.726  17.979  0.00  0.00    +0.000 A 
ATOM     12  C   UNL     1      -4.824  11.558  16.642  0.00  0.00    +0.000 A 
ATOM     13  C   UNL     1      -3.987  10.813  15.821  0.00  0.00    +0.000 A 
ATOM     14  C   UNL     1      -2.840  10.215  16.356  0.00  0.00    +0.000 A 
ATOM     15  C   UNL     1      -2.385  10.585  17.636  0.00  0.00    +0.000 A 
ATOM     16  C   UNL     1      -1.139  10.189  18.164  0.00  0.00    +0.000 A 
ENDBRANCH   6   7
ENDBRANCH   1   6
BRANCH   2  17
ATOM     17  C   UNL     1       2.645   8.048  17.618  0.00  0.00    +0.000 C 
BRANCH  17  18
ATOM     18  O   UNL     1       2.650   7.091  18.668  0.00  0.00    +0.000 OA
BRANCH  18  19
ATOM     19  C   UNL     1       3.593   6.099  18.588  0.00  0.00    +0.000 A 
ATOM     20  C   UNL     1       3.808   5.100  19.538  0.00  0.00    +0.000 A 
ATOM     21  C   UNL     1       4.775   4.116  19.314  0.00  0.00    +0.000 A 
ATOM     22  C   UNL     1       5.526   4.115  18.138  0.00  0.00    +0.000 A 
ATOM     23  C   UNL     1       5.326   5.123  17.185  0.00  0.00    +0.000 A 
ATOM     24  C   UNL     1       4.373   6.125  17.426  0.00  0.00    +0.000 A 
BRANCH  23  25
ATOM     25  N   UNL     1       6.057   5.098  15.976  0.00  0.00    +0.000 N 
ATOM     26  C   UNL     1       5.821   4.389  14.825  0.00  0.00    +0.000 A 
ATOM     27  N   UNL     1       6.796   4.603  13.972  0.00  0.00    +0.000 NA
ATOM     28  N   UNL     1       7.645   5.481  14.592  0.00  0.00    +0.000 NA
ATOM     29  N   UNL     1       7.202   5.796  15.803  0.00  0.00    +0.000 NA
ENDBRANCH  23  25
ENDBRANCH  18  19
ENDBRANCH  17  18
ENDBRANCH   2  17
TORSDOF 6
ENDMDL
MODEL 9
REMARK VINA RESULT:      -8.5      6.080      8.022
REMARK  Name = 
REMARK  7 active torsions:
REMARK  status: ('A' for Active; 'I' for Inactive)
REMARK    1  A    between atoms: C_1  and  C_2
REMARK    2  A    between atoms: C_2  and  N_3
REMARK    3  A    between atoms: C_2  and  C_19
REMARK    4  A    between atoms: C_4  and  C_6
REMARK    5  A    between atoms: C_6  and  O_7
REMARK    6  A    between atoms: O_7  and  C_8
REMARK    7  A    between atoms: C_12  and  N_13
REMARK                            x       y       z     vdW  Elec       q    Type
REMARK                         _______ _______ _______ _____ _____    ______ ____
ROOT
ATOM      1  N   UNL     1       6.699   7.411  17.055  0.00  0.00    +0.000 N 
ATOM      2  C   UNL     1       7.668   7.895  17.908  0.00  0.00    +0.000 C 
ATOM      3  O   UNL     1       8.314   7.192  18.679  0.00  0.00    +0.000 OA
ATOM      4  H   UNL     1       6.149   8.052  16.527  0.00  0.00    +0.000 HD
ENDROOT
BRANCH   1   6
ATOM      5  C   UNL     1       6.128   5.470  15.593  0.00  0.00    +0.000 C 
ATOM      6  C   UNL     1       6.348   5.991  17.020  0.00  0.00    +0.000 C 
BRANCH   6   7
ATOM      7  C   UNL     1       5.132   5.696  17.876  0.00  0.00    +0.000 A 
ATOM      8  C   UNL     1       4.059   6.594  17.823  0.00  0.00    +0.000 A 
ATOM      9  C   UNL     1       2.978   6.452  18.686  0.00  0.00    +0.000 A 
ATOM     10  C   UNL     1       2.882   5.336  19.520  0.00  0.00    +0.000 A 
ATOM     11  C   UNL     1       1.782   5.177  20.361  0.00  0.00    +0.000 A 
ATOM     12  C   UNL     1       1.400   3.901  20.751  0.00  0.00    +0.000 A 
ATOM     13  C   UNL     1       2.289   2.846  20.585  0.00  0.00    +0.000 A 
ATOM     14  C   UNL     1       3.564   3.087  20.062  0.00  0.00    +0.000 A 
ATOM     15  C   UNL     1       3.854   4.321  19.451  0.00  0.00    +0.000 A 
ATOM     16  C   UNL     1       5.034   4.573  18.724  0.00  0.00    +0.000 A 
ENDBRANCH   6   7
ENDBRANCH   1   6
BRANCH   2  17
ATOM     17  C   UNL     1       7.916   9.400  17.787  0.00  0.00    +0.000 C 
BRANCH  17  18
ATOM     18  O   UNL     1       9.286   9.703  18.005  0.00  0.00    +0.000 OA
BRANCH  18  19
ATOM     19  C   UNL     1       9.557  10.728  18.873  0.00  0.00    +0.000 A 
ATOM     20  C   UNL     1       9.341  10.710  20.251  0.00  0.00    +0.000 A 
ATOM     21  C   UNL     1       9.706  11.809  21.033  0.00  0.00    +0.000 A 
ATOM     22  C   UNL     1      10.298  12.929  20.448  0.00  0.00    +0.000 A 
ATOM     23  C   UNL     1      10.506  12.962  19.063  0.00  0.00    +0.000 A 
ATOM     24  C   UNL     1      10.114  11.867  18.278  0.00  0.00    +0.000 A 
BRANCH  23  25
ATOM     25  N   UNL     1      11.144  14.079  18.477  0.00  0.00    +0.000 N 
ATOM     26  C   UNL     1      11.968  15.015  19.049  0.00  0.00    +0.000 A 
ATOM     27  N   UNL     1      12.277  15.928  18.158  0.00  0.00    +0.000 NA
ATOM     28  N   UNL     1      11.652  15.543  17.001  0.00  0.00    +0.000 NA
ATOM     29  N   UNL     1      10.972  14.418  17.180  0.00  0.00    +0.000 NA
ENDBRANCH  23  25
ENDBRANCH  18  19
ENDBRANCH  17  18
ENDBRANCH   2  17
TORSDOF 6
ENDMDL
