MODEL 1
REMARK VINA RESULT:      -9.1      0.000      0.000
REMARK  Name = 
REMARK  4 active torsions:
REMARK  status: ('A' for Active; 'I' for Inactive)
REMARK    1  A    between atoms: C_1  and  C_2
REMARK    2  A    between atoms: C_4  and  N_5
REMARK    3  A    between atoms: C_9  and  C_10
REMARK    4  A    between atoms: C_12  and  C_13
REMARK                            x       y       z     vdW  Elec       q    Type
REMARK                         _______ _______ _______ _____ _____    ______ ____
ROOT
ATOM      1  N   UNL     1       5.225   5.376  18.387  0.00  0.00    +0.000 N 
ATOM      2  C   UNL     1       6.495   5.649  19.063  0.00  0.00    +0.000 C 
ATOM      3  C   UNL     1       7.280   6.635  18.202  0.00  0.00    +0.000 C 
ATOM      4  C   UNL     1       7.485   6.107  16.782  0.00  0.00    +0.000 C 
ATOM      5  C   UNL     1       6.170   5.625  16.136  0.00  0.00    +0.000 C 
ATOM      6  C   UNL     1       5.369   4.703  17.086  0.00  0.00    +0.000 C 
ENDROOT
BRANCH   1  10
ATOM      7  C   UNL     1       1.606   8.028  20.418  0.00  0.00    +0.000 C 
ATOM      8  C   UNL     1       2.223   6.707  20.063  0.00  0.00    +0.000 A 
ATOM      9  C   UNL     1       3.489   6.643  19.495  0.00  0.00    +0.000 A 
ATOM     10  C   UNL     1       4.029   5.411  19.098  0.00  0.00    +0.000 A 
ATOM     11  C   UNL     1       3.241   4.251  19.331  0.00  0.00    +0.000 A 
ATOM     12  C   UNL     1       3.622   2.941  18.948  0.00  0.00    +0.000 A 
ATOM     13  C   UNL     1       2.765   1.861  19.086  0.00  0.00    +0.000 A 
ATOM     14  F   UNL     1       3.165   0.651  18.672  0.00  0.00    +0.000 F 
ATOM     15  C   UNL     1       1.504   2.036  19.614  0.00  0.00    +0.000 A 
ATOM     16  C   UNL     1       1.122   3.309  20.035  0.00  0.00    +0.000 A 
ATOM     17  C   UNL     1       1.955   4.417  19.901  0.00  0.00    +0.000 A 
ATOM     18  N   UNL     1       1.467   5.608  20.271  0.00  0.00    +0.000 NA
ENDBRANCH   1  10
BRANCH   5  19
ATOM     19  C   UNL     1       6.407   4.980  14.804  0.00  0.00    +0.000 A 
ATOM     20  C   UNL     1       5.638   3.960  14.202  0.00  0.00    +0.000 A 
ATOM     21  C   UNL     1       6.237   3.718  12.982  0.00  0.00    +0.000 A 
ATOM     22  N   UNL     1       7.300   4.580  12.930  0.00  0.00    +0.000 N 
ATOM     23  N   UNL     1       7.429   5.351  14.025  0.00  0.00    +0.000 NA
ATOM     24  H   UNL     1       7.967   4.682  12.169  0.00  0.00    +0.000 HD
BRANCH  21  25
ATOM     25  C   UNL     1       5.934   2.810  11.917  0.00  0.00    +0.000 C 
ATOM     26  N   UNL     1       6.963   2.042  11.480  0.00  0.00    +0.000 N 
ATOM     27  O   UNL     1       4.819   2.712  11.413  0.00  0.00    +0.000 OA
ATOM     28  H   UNL     1       7.898   2.101  11.855  0.00  0.00    +0.000 HD
ATOM     29  H   UNL     1       6.787   1.401  10.720  0.00  0.00    +0.000 HD
ENDBRANCH  21  25
ENDBRANCH   5  19
TORSDOF 3
ENDMDL
MODEL 2
REMARK VINA RESULT:      -9.1      2.025      3.166
REMARK  Name = 
REMARK  4 active torsions:
REMARK  status: ('A' for Active; 'I' for Inactive)
REMARK    1  A    between atoms: C_1  and  C_2
REMARK    2  A    between atoms: C_4  and  N_5
REMARK    3  A    between atoms: C_9  and  C_10
REMARK    4  A    between atoms: C_12  and  C_13
REMARK                            x       y       z     vdW  Elec       q    Type
REMARK                         _______ _______ _______ _____ _____    ______ ____
ROOT
ATOM      1  N   UNL     1       5.106   5.170  18.317  0.00  0.00    +0.000 N 
ATOM      2  C   UNL     1       6.388   5.416  18.980  0.00  0.00    +0.000 C 
ATOM      3  C   UNL     1       7.176   6.404  18.124  0.00  0.00    +0.000 C 
ATOM      4  C   UNL     1       7.355   5.894  16.694  0.00  0.00    +0.000 C 
ATOM      5  C   UNL     1       6.026   5.440  16.058  0.00  0.00    +0.000 C 
ATOM      6  C   UNL     1       5.225   4.515  17.004  0.00  0.00    +0.000 C 
ENDROOT
BRANCH   1  10
ATOM      7  C   UNL     1       2.210   3.188  21.771  0.00  0.00    +0.000 C 
ATOM      8  C   UNL     1       2.509   4.266  20.772  0.00  0.00    +0.000 A 
ATOM      9  C   UNL     1       3.604   4.167  19.924  0.00  0.00    +0.000 A 
ATOM     10  C   UNL     1       3.920   5.211  19.044  0.00  0.00    +0.000 A 
ATOM     11  C   UNL     1       3.059   6.343  19.043  0.00  0.00    +0.000 A 
ATOM     12  C   UNL     1       3.265   7.499  18.249  0.00  0.00    +0.000 A 
ATOM     13  C   UNL     1       2.467   8.624  18.376  0.00  0.00    +0.000 A 
ATOM     14  F   UNL     1       2.731   9.702  17.625  0.00  0.00    +0.000 F 
ATOM     15  C   UNL     1       1.433   8.645  19.287  0.00  0.00    +0.000 A 
ATOM     16  C   UNL     1       1.187   7.505  20.052  0.00  0.00    +0.000 A 
ATOM     17  C   UNL     1       1.976   6.362  19.956  0.00  0.00    +0.000 A 
ATOM     18  N   UNL     1       1.699   5.346  20.784  0.00  0.00    +0.000 NA
ENDBRANCH   1  10
BRANCH   5  19
ATOM     19  C   UNL     1       6.237   4.812  14.713  0.00  0.00    +0.000 A 
ATOM     20  C   UNL     1       5.455   3.801  14.112  0.00  0.00    +0.000 A 
ATOM     21  C   UNL     1       6.031   3.574  12.879  0.00  0.00    +0.000 A 
ATOM     22  N   UNL     1       7.094   4.435  12.818  0.00  0.00    +0.000 N 
ATOM     23  N   UNL     1       7.245   5.191  13.920  0.00  0.00    +0.000 NA
ATOM     24  H   UNL     1       7.747   4.545  12.047  0.00  0.00    +0.000 HD
BRANCH  21  25
ATOM     25  C   UNL     1       5.707   2.680  11.808  0.00  0.00    +0.000 C 
ATOM     26  N   UNL     1       6.671   1.790  11.464  0.00  0.00    +0.000 N 
ATOM     27  O   UNL     1       4.628   2.697  11.221  0.00  0.00    +0.000 OA
ATOM     28  H   UNL     1       7.575   1.751  11.910  0.00  0.00    +0.000 HD
ATOM     29  H   UNL     1       6.480   1.155  10.704  0.00  0.00    +0.000 HD
ENDBRANCH  21  25
ENDBRANCH   5  19
TORSDOF 3
ENDMDL
MODEL 3
REMARK VINA RESULT:      -8.6      1.156      1.292
REMARK  Name = 
REMARK  4 active torsions:
REMARK  status: ('A' for Active; 'I' for Inactive)
REMARK    1  A    between atoms: C_1  and  C_2
REMARK    2  A    between atoms: C_4  and  N_5
REMARK    3  A    between atoms: C_9  and  C_10
REMARK    4  A    between atoms: C_12  and  C_13
REMARK                            x       y       z     vdW  Elec       q    Type
REMARK                         _______ _______ _______ _____ _____    ______ ____
ROOT
ATOM      1  N   UNL     1       5.200   5.673  17.917  0.00  0.00    +0.000 N 
ATOM      2  C   UNL     1       6.444   5.513  18.672  0.00  0.00    +0.000 C 
ATOM      3  C   UNL     1       7.569   6.154  17.862  0.00  0.00    +0.000 C 
ATOM      4  C   UNL     1       7.665   5.556  16.458  0.00  0.00    +0.000 C 
ATOM      5  C   UNL     1       6.306   5.536  15.730  0.00  0.00    +0.000 C 
ATOM      6  C   UNL     1       5.184   4.963  16.628  0.00  0.00    +0.000 C 
ENDROOT
BRANCH   1  10
ATOM      7  C   UNL     1       1.639   9.057  18.265  0.00  0.00    +0.000 C 
ATOM      8  C   UNL     1       2.268   7.767  18.700  0.00  0.00    +0.000 A 
ATOM      9  C   UNL     1       3.499   7.369  18.195  0.00  0.00    +0.000 A 
ATOM     10  C   UNL     1       4.048   6.129  18.551  0.00  0.00    +0.000 A 
ATOM     11  C   UNL     1       3.306   5.327  19.461  0.00  0.00    +0.000 A 
ATOM     12  C   UNL     1       3.698   4.032  19.882  0.00  0.00    +0.000 A 
ATOM     13  C   UNL     1       2.880   3.243  20.673  0.00  0.00    +0.000 A 
ATOM     14  F   UNL     1       3.286   2.011  21.011  0.00  0.00    +0.000 F 
ATOM     15  C   UNL     1       1.648   3.706  21.082  0.00  0.00    +0.000 A 
ATOM     16  C   UNL     1       1.257   4.993  20.712  0.00  0.00    +0.000 A 
ATOM     17  C   UNL     1       2.051   5.809  19.909  0.00  0.00    +0.000 A 
ATOM     18  N   UNL     1       1.555   7.000  19.553  0.00  0.00    +0.000 NA
ENDBRANCH   1  10
BRANCH   5  19
ATOM     19  C   UNL     1       6.388   4.820  14.416  0.00  0.00    +0.000 A 
ATOM     20  C   UNL     1       5.535   3.796  13.948  0.00  0.00    +0.000 A 
ATOM     21  C   UNL     1       5.999   3.476  12.688  0.00  0.00    +0.000 A 
ATOM     22  N   UNL     1       7.073   4.301  12.485  0.00  0.00    +0.000 N 
ATOM     23  N   UNL     1       7.334   5.120  13.520  0.00  0.00    +0.000 NA
ATOM     24  H   UNL     1       7.661   4.344  11.657  0.00  0.00    +0.000 HD
BRANCH  21  25
ATOM     25  C   UNL     1       5.565   2.528  11.708  0.00  0.00    +0.000 C 
ATOM     26  N   UNL     1       6.445   1.542  11.404  0.00  0.00    +0.000 N 
ATOM     27  O   UNL     1       4.466   2.580  11.161  0.00  0.00    +0.000 OA
ATOM     28  H   UNL     1       7.362   1.469  11.818  0.00  0.00    +0.000 HD
ATOM     29  H   UNL     1       6.175   0.864  10.706  0.00  0.00    +0.000 HD
ENDBRANCH  21  25
ENDBRANCH   5  19
TORSDOF 3
ENDMDL
MODEL 4
REMARK VINA RESULT:      -8.2      5.383      8.035
REMARK  Name = 
REMARK  4 active torsions:
REMARK  status: ('A' for Active; 'I' for Inactive)
REMARK    1  A    between atoms: C_1  and  C_2
REMARK    2  A    between atoms: C_4  and  N_5
REMARK    3  A    between atoms: C_9  and  C_10
REMARK    4  A    between atoms: C_12  and  C_13
REMARK                            x       y       z     vdW  Elec       q    Type
REMARK                         _______ _______ _______ _____ _____    ______ ____
ROOT
ATOM      1  N   UNL     1       1.088   9.603  19.415  0.00  0.00    +0.000 N 
ATOM      2  C   UNL     1       2.145  10.214  18.608  0.00  0.00    +0.000 C 
ATOM      3  C   UNL     1       2.468   9.259  17.461  0.00  0.00    +0.000 C 
ATOM      4  C   UNL     1       2.861   7.874  17.972  0.00  0.00    +0.000 C 
ATOM      5  C   UNL     1       1.846   7.309  18.986  0.00  0.00    +0.000 C 
ATOM      6  C   UNL     1       1.483   8.348  20.074  0.00  0.00    +0.000 C 
ENDROOT
BRANCH   1  10
ATOM      7  C   UNL     1      -0.968  12.747  22.599  0.00  0.00    +0.000 C 
ATOM      8  C   UNL     1      -1.024  11.932  21.342  0.00  0.00    +0.000 A 
ATOM      9  C   UNL     1       0.004  11.056  21.015  0.00  0.00    +0.000 A 
ATOM     10  C   UNL     1      -0.020  10.352  19.803  0.00  0.00    +0.000 A 
ATOM     11  C   UNL     1      -1.144  10.554  18.956  0.00  0.00    +0.000 A 
ATOM     12  C   UNL     1      -1.296   9.955  17.681  0.00  0.00    +0.000 A 
ATOM     13  C   UNL     1      -2.350  10.280  16.842  0.00  0.00    +0.000 A 
ATOM     14  F   UNL     1      -2.424   9.709  15.632  0.00  0.00    +0.000 F 
ATOM     15  C   UNL     1      -3.294  11.203  17.236  0.00  0.00    +0.000 A 
ATOM     16  C   UNL     1      -3.186  11.776  18.503  0.00  0.00    +0.000 A 
ATOM     17  C   UNL     1      -2.135  11.479  19.366  0.00  0.00    +0.000 A 
ATOM     18  N   UNL     1      -2.084  12.136  20.532  0.00  0.00    +0.000 NA
ENDBRANCH   1  10
BRANCH   5  19
ATOM     19  C   UNL     1       2.314   6.017  19.584  0.00  0.00    +0.000 A 
ATOM     20  C   UNL     1       1.626   5.211  20.518  0.00  0.00    +0.000 A 
ATOM     21  C   UNL     1       2.450   4.127  20.747  0.00  0.00    +0.000 A 
ATOM     22  N   UNL     1       3.551   4.345  19.962  0.00  0.00    +0.000 N 
ATOM     23  N   UNL     1       3.497   5.487  19.254  0.00  0.00    +0.000 NA
ATOM     24  H   UNL     1       4.366   3.744  19.874  0.00  0.00    +0.000 HD
BRANCH  21  25
ATOM     25  C   UNL     1       2.320   2.970  21.580  0.00  0.00    +0.000 C 
ATOM     26  N   UNL     1       1.066   2.690  22.017  0.00  0.00    +0.000 N 
ATOM     27  O   UNL     1       3.269   2.257  21.894  0.00  0.00    +0.000 OA
ATOM     28  H   UNL     1       0.262   3.256  21.795  0.00  0.00    +0.000 HD
ATOM     29  H   UNL     1       0.942   1.889  22.618  0.00  0.00    +0.000 HD
ENDBRANCH  21  25
ENDBRANCH   5  19
TORSDOF 3
ENDMDL
MODEL 5
REMARK VINA RESULT:      -8.1      4.868      8.452
REMARK  Name = 
REMARK  4 active torsions:
REMARK  status: ('A' for Active; 'I' for Inactive)
REMARK    1  A    between atoms: C_1  and  C_2
REMARK    2  A    between atoms: C_4  and  N_5
REMARK    3  A    between atoms: C_9  and  C_10
REMARK    4  A    between atoms: C_12  and  C_13
REMARK                            x       y       z     vdW  Elec       q    Type
REMARK                         _______ _______ _______ _____ _____    ______ ____
ROOT
ATOM      1  N   UNL     1       2.547   7.006  18.831  0.00  0.00    +0.000 N 
ATOM      2  C   UNL     1       2.019   7.473  17.548  0.00  0.00    +0.000 C 
ATOM      3  C   UNL     1       2.095   8.998  17.539  0.00  0.00    +0.000 C 
ATOM      4  C   UNL     1       1.350   9.608  18.726  0.00  0.00    +0.000 C 
ATOM      5  C   UNL     1       1.759   8.971  20.070  0.00  0.00    +0.000 C 
ATOM      6  C   UNL     1       1.754   7.426  19.997  0.00  0.00    +0.000 C 
ENDROOT
BRANCH   1  10
ATOM      7  C   UNL     1       7.200   5.522  19.465  0.00  0.00    +0.000 C 
ATOM      8  C   UNL     1       5.750   5.222  19.226  0.00  0.00    +0.000 A 
ATOM      9  C   UNL     1       4.835   6.247  19.023  0.00  0.00    +0.000 A 
ATOM     10  C   UNL     1       3.471   5.965  18.873  0.00  0.00    +0.000 A 
ATOM     11  C   UNL     1       3.083   4.597  18.908  0.00  0.00    +0.000 A 
ATOM     12  C   UNL     1       1.742   4.148  18.818  0.00  0.00    +0.000 A 
ATOM     13  C   UNL     1       1.406   2.814  18.981  0.00  0.00    +0.000 A 
ATOM     14  F   UNL     1       0.117   2.451  18.922  0.00  0.00    +0.000 F 
ATOM     15  C   UNL     1       2.383   1.875  19.232  0.00  0.00    +0.000 A 
ATOM     16  C   UNL     1       3.714   2.288  19.286  0.00  0.00    +0.000 A 
ATOM     17  C   UNL     1       4.085   3.622  19.136  0.00  0.00    +0.000 A 
ATOM     18  N   UNL     1       5.382   3.924  19.274  0.00  0.00    +0.000 NA
ENDBRANCH   1  10
BRANCH   5  19
ATOM     19  C   UNL     1       0.920   9.478  21.204  0.00  0.00    +0.000 A 
ATOM     20  C   UNL     1       0.063  10.601  21.196  0.00  0.00    +0.000 A 
ATOM     21  C   UNL     1      -0.498  10.646  22.456  0.00  0.00    +0.000 A 
ATOM     22  N   UNL     1       0.043   9.581  23.125  0.00  0.00    +0.000 N 
ATOM     23  N   UNL     1       0.911   8.861  22.391  0.00  0.00    +0.000 NA
ATOM     24  H   UNL     1      -0.147   9.301  24.084  0.00  0.00    +0.000 HD
BRANCH  21  25
ATOM     25  C   UNL     1      -1.438  11.537  23.066  0.00  0.00    +0.000 C 
ATOM     26  N   UNL     1      -1.086  12.846  23.091  0.00  0.00    +0.000 N 
ATOM     27  O   UNL     1      -2.506  11.163  23.544  0.00  0.00    +0.000 OA
ATOM     28  H   UNL     1      -0.214  13.194  22.723  0.00  0.00    +0.000 HD
ATOM     29  H   UNL     1      -1.721  13.499  23.526  0.00  0.00    +0.000 HD
ENDBRANCH  21  25
ENDBRANCH   5  19
TORSDOF 3
ENDMDL
MODEL 6
REMARK VINA RESULT:      -8.1      4.990      7.934
REMARK  Name = 
REMARK  4 active torsions:
REMARK  status: ('A' for Active; 'I' for Inactive)
REMARK    1  A    between atoms: C_1  and  C_2
REMARK    2  A    between atoms: C_4  and  N_5
REMARK    3  A    between atoms: C_9  and  C_10
REMARK    4  A    between atoms: C_12  and  C_13
REMARK                            x       y       z     vdW  Elec       q    Type
REMARK                         _______ _______ _______ _____ _____    ______ ____
ROOT
ATOM      1  N   UNL     1       0.650  10.110  19.232  0.00  0.00    +0.000 N 
ATOM      2  C   UNL     1       1.746  10.862  18.617  0.00  0.00    +0.000 C 
ATOM      3  C   UNL     1       2.318  10.013  17.485  0.00  0.00    +0.000 C 
ATOM      4  C   UNL     1       2.769   8.639  17.981  0.00  0.00    +0.000 C 
ATOM      5  C   UNL     1       1.682   7.924  18.809  0.00  0.00    +0.000 C 
ATOM      6  C   UNL     1       1.071   8.858  19.880  0.00  0.00    +0.000 C 
ENDROOT
BRANCH   1  10
ATOM      7  C   UNL     1      -1.995  13.223  21.982  0.00  0.00    +0.000 C 
ATOM      8  C   UNL     1      -1.866  12.293  20.812  0.00  0.00    +0.000 A 
ATOM      9  C   UNL     1      -0.712  11.542  20.624  0.00  0.00    +0.000 A 
ATOM     10  C   UNL     1      -0.569  10.730  19.490  0.00  0.00    +0.000 A 
ATOM     11  C   UNL     1      -1.657  10.693  18.576  0.00  0.00    +0.000 A 
ATOM     12  C   UNL     1      -1.651   9.961  17.362  0.00  0.00    +0.000 A 
ATOM     13  C   UNL     1      -2.687  10.056  16.447  0.00  0.00    +0.000 A 
ATOM     14  F   UNL     1      -2.612   9.369  15.299  0.00  0.00    +0.000 F 
ATOM     15  C   UNL     1      -3.768  10.871  16.701  0.00  0.00    +0.000 A 
ATOM     16  C   UNL     1      -3.814  11.571  17.907  0.00  0.00    +0.000 A 
ATOM     17  C   UNL     1      -2.786  11.506  18.843  0.00  0.00    +0.000 A 
ATOM     18  N   UNL     1      -2.893  12.270  19.938  0.00  0.00    +0.000 NA
ENDBRANCH   1  10
BRANCH   5  19
ATOM     19  C   UNL     1       2.187   6.646  19.406  0.00  0.00    +0.000 A 
ATOM     20  C   UNL     1       2.986   5.667  18.774  0.00  0.00    +0.000 A 
ATOM     21  C   UNL     1       3.204   4.696  19.730  0.00  0.00    +0.000 A 
ATOM     22  N   UNL     1       2.540   5.137  20.843  0.00  0.00    +0.000 N 
ATOM     23  N   UNL     1       1.909   6.312  20.671  0.00  0.00    +0.000 NA
ATOM     24  H   UNL     1       2.486   4.672  21.746  0.00  0.00    +0.000 HD
BRANCH  21  25
ATOM     25  C   UNL     1       3.931   3.463  19.710  0.00  0.00    +0.000 C 
ATOM     26  N   UNL     1       5.211   3.534  19.266  0.00  0.00    +0.000 N 
ATOM     27  O   UNL     1       3.450   2.392  20.070  0.00  0.00    +0.000 OA
ATOM     28  H   UNL     1       5.641   4.389  18.948  0.00  0.00    +0.000 HD
ATOM     29  H   UNL     1       5.747   2.680  19.226  0.00  0.00    +0.000 HD
ENDBRANCH  21  25
ENDBRANCH   5  19
TORSDOF 3
ENDMDL
MODEL 7
REMARK VINA RESULT:      -8.0      5.105      7.694
REMARK  Name = 
REMARK  4 active torsions:
REMARK  status: ('A' for Active; 'I' for Inactive)
REMARK    1  A    between atoms: C_1  and  C_2
REMARK    2  A    between atoms: C_4  and  N_5
REMARK    3  A    between atoms: C_9  and  C_10
REMARK    4  A    between atoms: C_12  and  C_13
REMARK                            x       y       z     vdW  Elec       q    Type
REMARK                         _______ _______ _______ _____ _____    ______ ____
ROOT
ATOM      1  N   UNL     1       1.144   9.330  19.403  0.00  0.00    +0.000 N 
ATOM      2  C   UNL     1       2.207   9.859  18.548  0.00  0.00    +0.000 C 
ATOM      3  C   UNL     1       2.472   8.838  17.444  0.00  0.00    +0.000 C 
ATOM      4  C   UNL     1       2.822   7.465  18.017  0.00  0.00    +0.000 C 
ATOM      5  C   UNL     1       1.807   6.990  19.076  0.00  0.00    +0.000 C 
ATOM      6  C   UNL     1       1.505   8.094  20.116  0.00  0.00    +0.000 C 
ENDROOT
BRANCH   1  10
ATOM      7  C   UNL     1      -0.780  12.600  22.543  0.00  0.00    +0.000 C 
ATOM      8  C   UNL     1      -0.864  11.780  21.290  0.00  0.00    +0.000 A 
ATOM      9  C   UNL     1       0.119  10.849  20.981  0.00  0.00    +0.000 A 
ATOM     10  C   UNL     1       0.073  10.138  19.773  0.00  0.00    +0.000 A 
ATOM     11  C   UNL     1      -1.030  10.393  18.911  0.00  0.00    +0.000 A 
ATOM     12  C   UNL     1      -1.198   9.794  17.639  0.00  0.00    +0.000 A 
ATOM     13  C   UNL     1      -2.224  10.168  16.786  0.00  0.00    +0.000 A 
ATOM     14  F   UNL     1      -2.314   9.594  15.578  0.00  0.00    +0.000 F 
ATOM     15  C   UNL     1      -3.123  11.143  17.162  0.00  0.00    +0.000 A 
ATOM     16  C   UNL     1      -2.999  11.718  18.427  0.00  0.00    +0.000 A 
ATOM     17  C   UNL     1      -1.975  11.373  19.304  0.00  0.00    +0.000 A 
ATOM     18  N   UNL     1      -1.903  12.034  20.466  0.00  0.00    +0.000 NA
ENDBRANCH   1  10
BRANCH   5  19
ATOM     19  C   UNL     1       2.239   5.712  19.729  0.00  0.00    +0.000 A 
ATOM     20  C   UNL     1       3.277   4.850  19.310  0.00  0.00    +0.000 A 
ATOM     21  C   UNL     1       3.302   3.827  20.237  0.00  0.00    +0.000 A 
ATOM     22  N   UNL     1       2.306   4.128  21.127  0.00  0.00    +0.000 N 
ATOM     23  N   UNL     1       1.642   5.262  20.837  0.00  0.00    +0.000 NA
ATOM     24  H   UNL     1       2.039   3.593  21.949  0.00  0.00    +0.000 HD
BRANCH  21  25
ATOM     25  C   UNL     1       4.120   2.659  20.369  0.00  0.00    +0.000 C 
ATOM     26  N   UNL     1       4.892   2.350  19.297  0.00  0.00    +0.000 N 
ATOM     27  O   UNL     1       4.141   1.963  21.380  0.00  0.00    +0.000 OA
ATOM     28  H   UNL     1       4.895   2.886  18.442  0.00  0.00    +0.000 HD
ATOM     29  H   UNL     1       5.470   1.525  19.352  0.00  0.00    +0.000 HD
ENDBRANCH  21  25
ENDBRANCH   5  19
TORSDOF 3
ENDMDL
MODEL 8
REMARK VINA RESULT:      -8.0      5.823      8.810
REMARK  Name = 
REMARK  4 active torsions:
REMARK  status: ('A' for Active; 'I' for Inactive)
REMARK    1  A    between atoms: C_1  and  C_2
REMARK    2  A    between atoms: C_4  and  N_5
REMARK    3  A    between atoms: C_9  and  C_10
REMARK    4  A    between atoms: C_12  and  C_13
REMARK                            x       y       z     vdW  Elec       q    Type
REMARK                         _______ _______ _______ _____ _____    ______ ____
ROOT
ATOM      1  N   UNL     1      -0.556  11.441  19.350  0.00  0.00    +0.000 N 
ATOM      2  C   UNL     1       0.384  12.558  19.454  0.00  0.00    +0.000 C 
ATOM      3  C   UNL     1       1.461  12.363  18.389  0.00  0.00    +0.000 C 
ATOM      4  C   UNL     1       2.156  11.008  18.529  0.00  0.00    +0.000 C 
ATOM      5  C   UNL     1       1.155   9.839  18.627  0.00  0.00    +0.000 C 
ATOM      6  C   UNL     1       0.034  10.127  19.653  0.00  0.00    +0.000 C 
ENDROOT
BRANCH   1  10
ATOM      7  C   UNL     1      -4.493  13.464  21.510  0.00  0.00    +0.000 C 
ATOM      8  C   UNL     1      -3.863  12.706  20.379  0.00  0.00    +0.000 A 
ATOM      9  C   UNL     1      -2.530  12.321  20.435  0.00  0.00    +0.000 A 
ATOM     10  C   UNL     1      -1.928  11.677  19.345  0.00  0.00    +0.000 A 
ATOM     11  C   UNL     1      -2.747  11.416  18.212  0.00  0.00    +0.000 A 
ATOM     12  C   UNL     1      -2.281  10.817  17.015  0.00  0.00    +0.000 A 
ATOM     13  C   UNL     1      -3.088  10.697  15.896  0.00  0.00    +0.000 A 
ATOM     14  F   UNL     1      -2.583  10.156  14.779  0.00  0.00    +0.000 F 
ATOM     15  C   UNL     1      -4.386  11.159  15.921  0.00  0.00    +0.000 A 
ATOM     16  C   UNL     1      -4.879  11.716  17.101  0.00  0.00    +0.000 A 
ATOM     17  C   UNL     1      -4.091  11.861  18.240  0.00  0.00    +0.000 A 
ATOM     18  N   UNL     1      -4.638  12.472  19.298  0.00  0.00    +0.000 NA
ENDBRANCH   1  10
BRANCH   5  19
ATOM     19  C   UNL     1       1.845   8.538  18.906  0.00  0.00    +0.000 A 
ATOM     20  C   UNL     1       2.616   7.771  18.004  0.00  0.00    +0.000 A 
ATOM     21  C   UNL     1       3.052   6.679  18.727  0.00  0.00    +0.000 A 
ATOM     22  N   UNL     1       2.529   6.851  19.981  0.00  0.00    +0.000 N 
ATOM     23  N   UNL     1       1.787   7.966  20.113  0.00  0.00    +0.000 NA
ATOM     24  H   UNL     1       2.648   6.236  20.782  0.00  0.00    +0.000 HD
BRANCH  21  25
ATOM     25  C   UNL     1       3.864   5.551  18.384  0.00  0.00    +0.000 C 
ATOM     26  N   UNL     1       4.980   5.372  19.134  0.00  0.00    +0.000 N 
ATOM     27  O   UNL     1       3.589   4.776  17.472  0.00  0.00    +0.000 OA
ATOM     28  H   UNL     1       5.251   5.992  19.882  0.00  0.00    +0.000 HD
ATOM     29  H   UNL     1       5.582   4.594  18.910  0.00  0.00    +0.000 HD
ENDBRANCH  21  25
ENDBRANCH   5  19
TORSDOF 3
ENDMDL
MODEL 9
REMARK VINA RESULT:      -8.0      5.913      8.850
REMARK  Name = 
REMARK  4 active torsions:
REMARK  status: ('A' for Active; 'I' for Inactive)
REMARK    1  A    between atoms: C_1  and  C_2
REMARK    2  A    between atoms: C_4  and  N_5
REMARK    3  A    between atoms: C_9  and  C_10
REMARK    4  A    between atoms: C_12  and  C_13
REMARK                            x       y       z     vdW  Elec       q    Type
REMARK                         _______ _______ _______ _____ _____    ______ ____
ROOT
ATOM      1  N   UNL     1      -0.365  11.496  19.273  0.00  0.00    +0.000 N 
ATOM      2  C   UNL     1       0.559  12.617  19.450  0.00  0.00    +0.000 C 
ATOM      3  C   UNL     1       1.578  12.567  18.314  0.00  0.00    +0.000 C 
ATOM      4  C   UNL     1       2.306  11.224  18.266  0.00  0.00    +0.000 C 
ATOM      5  C   UNL     1       1.334  10.026  18.286  0.00  0.00    +0.000 C 
ATOM      6  C   UNL     1       0.267  10.172  19.396  0.00  0.00    +0.000 C 
ENDROOT
BRANCH   1  10
ATOM      7  C   UNL     1      -4.192  13.362  21.747  0.00  0.00    +0.000 C 
ATOM      8  C   UNL     1      -3.623  12.649  20.556  0.00  0.00    +0.000 A 
ATOM      9  C   UNL     1      -2.280  12.297  20.512  0.00  0.00    +0.000 A 
ATOM     10  C   UNL     1      -1.739  11.697  19.367  0.00  0.00    +0.000 A 
ATOM     11  C   UNL     1      -2.626  11.444  18.284  0.00  0.00    +0.000 A 
ATOM     12  C   UNL     1      -2.229  10.888  17.043  0.00  0.00    +0.000 A 
ATOM     13  C   UNL     1      -3.107  10.776  15.978  0.00  0.00    +0.000 A 
ATOM     14  F   UNL     1      -2.667  10.276  14.816  0.00  0.00    +0.000 F 
ATOM     15  C   UNL     1      -4.412  11.204  16.103  0.00  0.00    +0.000 A 
ATOM     16  C   UNL     1      -4.836  11.718  17.328  0.00  0.00    +0.000 A 
ATOM     17  C   UNL     1      -3.976  11.854  18.415  0.00  0.00    +0.000 A 
ATOM     18  N   UNL     1      -4.463  12.424  19.525  0.00  0.00    +0.000 NA
ENDBRANCH   1  10
BRANCH   5  19
ATOM     19  C   UNL     1       2.063   8.719  18.382  0.00  0.00    +0.000 A 
ATOM     20  C   UNL     1       2.026   7.800  19.454  0.00  0.00    +0.000 A 
ATOM     21  C   UNL     1       2.837   6.752  19.068  0.00  0.00    +0.000 A 
ATOM     22  N   UNL     1       3.300   7.098  17.827  0.00  0.00    +0.000 N 
ATOM     23  N   UNL     1       2.851   8.289  17.392  0.00  0.00    +0.000 NA
ATOM     24  H   UNL     1       3.924   6.556  17.235  0.00  0.00    +0.000 HD
BRANCH  21  25
ATOM     25  C   UNL     1       3.204   5.525  19.708  0.00  0.00    +0.000 C 
ATOM     26  N   UNL     1       2.536   5.227  20.850  0.00  0.00    +0.000 N 
ATOM     27  O   UNL     1       4.068   4.770  19.270  0.00  0.00    +0.000 OA
ATOM     28  H   UNL     1       1.830   5.825  21.253  0.00  0.00    +0.000 HD
ATOM     29  H   UNL     1       2.780   4.376  21.334  0.00  0.00    +0.000 HD
ENDBRANCH  21  25
ENDBRANCH   5  19
TORSDOF 3
ENDMDL
