MODEL 1
REMARK VINA RESULT:      -8.5      0.000      0.000
REMARK  Name = 
REMARK  7 active torsions:
REMARK  status: ('A' for Active; 'I' for Inactive)
REMARK    1  A    between atoms: C_1  and  C_2
REMARK    2  A    between atoms: C_2  and  C_3
REMARK    3  A    between atoms: C_2  and  C_10
REMARK    4  A    between atoms: C_3  and  C_4
REMARK    5  A    between atoms: N_8  and  C_9
REMARK    6  A    between atoms: C_14  and  N_15
REMARK    7  A    between atoms: C_16  and  C_18
REMARK                            x       y       z     vdW  Elec       q    Type
REMARK                         _______ _______ _______ _____ _____    ______ ____
ROOT
ATOM      1  C   UNL     1       4.476   5.432  17.424  0.00  0.00    +0.000 A 
ATOM      2  C   UNL     1       4.984   4.379  16.638  0.00  0.00    +0.000 A 
ATOM      3  C   UNL     1       6.271   4.426  16.110  0.00  0.00    +0.000 A 
ATOM      4  C   UNL     1       7.049   5.563  16.292  0.00  0.00    +0.000 A 
ATOM      5  C   UNL     1       6.549   6.651  17.015  0.00  0.00    +0.000 A 
ATOM      6  C   UNL     1       5.307   6.551  17.643  0.00  0.00    +0.000 A 
ENDROOT
BRANCH   5   7
ATOM      7  N   UNL     1       7.263   7.863  17.096  0.00  0.00    +0.000 N 
ATOM      8  C   UNL     1       8.128   8.146  18.143  0.00  0.00    +0.000 C 
ATOM      9  O   UNL     1       8.490   7.300  18.969  0.00  0.00    +0.000 OA
ATOM     10  H   UNL     1       7.334   8.445  16.270  0.00  0.00    +0.000 HD
BRANCH   8  11
ATOM     11  C   UNL     1       8.507   9.554  18.240  0.00  0.00    +0.000 C 
ATOM     12  C   UNL     1       8.953  10.348  17.229  0.00  0.00    +0.000 C 
ATOM     13  C   UNL     1       9.681  11.115  18.210  0.00  0.00    +0.000 A 
ATOM     14  C   UNL     1      10.662  12.035  18.358  0.00  0.00    +0.000 A 
ATOM     15  C   UNL     1      11.061  12.223  19.685  0.00  0.00    +0.000 A 
ATOM     16  C   UNL     1      10.415  11.543  20.760  0.00  0.00    +0.000 A 
ATOM     17  C   UNL     1       9.403  10.598  20.534  0.00  0.00    +0.000 A 
ATOM     18  C   UNL     1       9.116  10.398  19.225  0.00  0.00    +0.000 A 
ENDBRANCH   8  11
ENDBRANCH   5   7
BRANCH   1  20
ATOM     19  C   UNL     1       2.354   4.065  17.417  0.00  0.00    +0.000 C 
ATOM     20  C   UNL     1       3.025   5.353  17.923  0.00  0.00    +0.000 C 
BRANCH  20  21
ATOM     21  C   UNL     1       2.885   5.520  19.452  0.00  0.00    +0.000 C 
BRANCH  21  22
ATOM     22  C   UNL     1       2.396   4.330  20.208  0.00  0.00    +0.000 A 
ATOM     23  N   UNL     1       1.177   4.209  20.698  0.00  0.00    +0.000 NA
ATOM     24  N   UNL     1       1.047   2.957  21.241  0.00  0.00    +0.000 NA
ATOM     25  C   UNL     1       2.188   2.335  21.078  0.00  0.00    +0.000 A 
ATOM     26  N   UNL     1       3.069   3.157  20.440  0.00  0.00    +0.000 N 
ATOM     27  C   UNL     1       4.418   2.801  20.089  0.00  0.00    +0.000 C 
ENDBRANCH  21  22
ENDBRANCH  20  21
ENDBRANCH   1  20
TORSDOF 5
ENDMDL
MODEL 2
REMARK VINA RESULT:      -8.4      3.577      7.056
REMARK  Name = 
REMARK  7 active torsions:
REMARK  status: ('A' for Active; 'I' for Inactive)
REMARK    1  A    between atoms: C_1  and  C_2
REMARK    2  A    between atoms: C_2  and  C_3
REMARK    3  A    between atoms: C_2  and  C_10
REMARK    4  A    between atoms: C_3  and  C_4
REMARK    5  A    between atoms: N_8  and  C_9
REMARK    6  A    between atoms: C_14  and  N_15
REMARK    7  A    between atoms: C_16  and  C_18
REMARK                            x       y       z     vdW  Elec       q    Type
REMARK                         _______ _______ _______ _____ _____    ______ ____
ROOT
ATOM      1  C   UNL     1       4.540   4.457  16.539  0.00  0.00    +0.000 A 
ATOM      2  C   UNL     1       3.712   3.339  16.762  0.00  0.00    +0.000 A 
ATOM      3  C   UNL     1       2.537   3.445  17.499  0.00  0.00    +0.000 A 
ATOM      4  C   UNL     1       2.205   4.655  18.096  0.00  0.00    +0.000 A 
ATOM      5  C   UNL     1       3.038   5.768  17.944  0.00  0.00    +0.000 A 
ATOM      6  C   UNL     1       4.150   5.689  17.106  0.00  0.00    +0.000 A 
ENDROOT
BRANCH   5   7
ATOM      7  N   UNL     1       2.795   6.964  18.650  0.00  0.00    +0.000 N 
ATOM      8  C   UNL     1       2.167   6.980  19.887  0.00  0.00    +0.000 C 
ATOM      9  O   UNL     1       1.954   5.958  20.551  0.00  0.00    +0.000 OA
ATOM     10  H   UNL     1       3.285   7.804  18.372  0.00  0.00    +0.000 HD
BRANCH   8  11
ATOM     11  C   UNL     1       1.700   8.300  20.302  0.00  0.00    +0.000 C 
ATOM     12  C   UNL     1       1.215   8.644  21.526  0.00  0.00    +0.000 C 
ATOM     13  C   UNL     1       0.430   9.668  20.880  0.00  0.00    +0.000 A 
ATOM     14  C   UNL     1      -0.609  10.516  21.062  0.00  0.00    +0.000 A 
ATOM     15  C   UNL     1      -1.031  11.147  19.887  0.00  0.00    +0.000 A 
ATOM     16  C   UNL     1      -0.354  10.945  18.649  0.00  0.00    +0.000 A 
ATOM     17  C   UNL     1       0.718  10.047  18.530  0.00  0.00    +0.000 A 
ATOM     18  C   UNL     1       1.029   9.404  19.682  0.00  0.00    +0.000 A 
ENDBRANCH   8  11
ENDBRANCH   5   7
BRANCH   1  20
ATOM     19  C   UNL     1       5.583   4.054  14.275  0.00  0.00    +0.000 C 
ATOM     20  C   UNL     1       5.858   4.264  15.774  0.00  0.00    +0.000 C 
BRANCH  20  21
ATOM     21  C   UNL     1       6.890   5.384  16.025  0.00  0.00    +0.000 C 
BRANCH  21  22
ATOM     22  C   UNL     1       7.358   5.554  17.432  0.00  0.00    +0.000 A 
ATOM     23  N   UNL     1       7.619   4.555  18.255  0.00  0.00    +0.000 NA
ATOM     24  N   UNL     1       8.116   5.071  19.423  0.00  0.00    +0.000 NA
ATOM     25  C   UNL     1       8.147   6.374  19.298  0.00  0.00    +0.000 A 
ATOM     26  N   UNL     1       7.676   6.727  18.069  0.00  0.00    +0.000 N 
ATOM     27  C   UNL     1       7.575   8.078  17.584  0.00  0.00    +0.000 C 
ENDBRANCH  21  22
ENDBRANCH  20  21
ENDBRANCH   1  20
TORSDOF 5
ENDMDL
MODEL 3
REMARK VINA RESULT:      -8.3      6.091      9.671
REMARK  Name = 
REMARK  7 active torsions:
REMARK  status: ('A' for Active; 'I' for Inactive)
REMARK    1  A    between atoms: C_1  and  C_2
REMARK    2  A    between atoms: C_2  and  C_3
REMARK    3  A    between atoms: C_2  and  C_10
REMARK    4  A    between atoms: C_3  and  C_4
REMARK    5  A    between atoms: N_8  and  C_9
REMARK    6  A    between atoms: C_14  and  N_15
REMARK    7  A    between atoms: C_16  and  C_18
REMARK                            x       y       z     vdW  Elec       q    Type
REMARK                         _______ _______ _______ _____ _____    ______ ____
ROOT
ATOM      1  C   UNL     1      -0.335  10.846  20.431  0.00  0.00    +0.000 A 
ATOM      2  C   UNL     1      -0.658  11.106  21.778  0.00  0.00    +0.000 A 
ATOM      3  C   UNL     1      -0.173  10.303  22.806  0.00  0.00    +0.000 A 
ATOM      4  C   UNL     1       0.581   9.176  22.502  0.00  0.00    +0.000 A 
ATOM      5  C   UNL     1       0.866   8.856  21.171  0.00  0.00    +0.000 A 
ATOM      6  C   UNL     1       0.481   9.728  20.153  0.00  0.00    +0.000 A 
ENDROOT
BRANCH   5   7
ATOM      7  N   UNL     1       1.509   7.648  20.832  0.00  0.00    +0.000 N 
ATOM      8  C   UNL     1       2.137   7.460  19.609  0.00  0.00    +0.000 C 
ATOM      9  O   UNL     1       2.355   8.380  18.812  0.00  0.00    +0.000 OA
ATOM     10  H   UNL     1       1.724   6.986  21.567  0.00  0.00    +0.000 HD
BRANCH   8  11
ATOM     11  C   UNL     1       2.443   6.065  19.304  0.00  0.00    +0.000 C 
ATOM     12  C   UNL     1       2.635   5.526  18.069  0.00  0.00    +0.000 C 
ATOM     13  C   UNL     1       2.160   4.268  18.592  0.00  0.00    +0.000 A 
ATOM     14  C   UNL     1       1.710   3.043  18.231  0.00  0.00    +0.000 A 
ATOM     15  C   UNL     1       1.179   2.305  19.294  0.00  0.00    +0.000 A 
ATOM     16  C   UNL     1       1.199   2.802  20.630  0.00  0.00    +0.000 A 
ATOM     17  C   UNL     1       1.680   4.086  20.933  0.00  0.00    +0.000 A 
ATOM     18  C   UNL     1       2.105   4.785  19.854  0.00  0.00    +0.000 A 
ENDBRANCH   8  11
ENDBRANCH   5   7
BRANCH   1  20
ATOM     19  C   UNL     1       0.080  12.739  18.814  0.00  0.00    +0.000 C 
ATOM     20  C   UNL     1      -0.954  11.727  19.335  0.00  0.00    +0.000 C 
BRANCH  20  21
ATOM     21  C   UNL     1      -1.612  10.925  18.192  0.00  0.00    +0.000 C 
BRANCH  21  22
ATOM     22  C   UNL     1      -3.031  11.263  17.875  0.00  0.00    +0.000 A 
ATOM     23  N   UNL     1      -3.899  11.727  18.754  0.00  0.00    +0.000 NA
ATOM     24  N   UNL     1      -5.069  12.018  18.100  0.00  0.00    +0.000 NA
ATOM     25  C   UNL     1      -4.898  11.723  16.835  0.00  0.00    +0.000 A 
ATOM     26  N   UNL     1      -3.637  11.241  16.645  0.00  0.00    +0.000 N 
ATOM     27  C   UNL     1      -3.100  10.824  15.377  0.00  0.00    +0.000 C 
ENDBRANCH  21  22
ENDBRANCH  20  21
ENDBRANCH   1  20
TORSDOF 5
ENDMDL
MODEL 4
REMARK VINA RESULT:      -8.2      4.927      7.863
REMARK  Name = 
REMARK  7 active torsions:
REMARK  status: ('A' for Active; 'I' for Inactive)
REMARK    1  A    between atoms: C_1  and  C_2
REMARK    2  A    between atoms: C_2  and  C_3
REMARK    3  A    between atoms: C_2  and  C_10
REMARK    4  A    between atoms: C_3  and  C_4
REMARK    5  A    between atoms: N_8  and  C_9
REMARK    6  A    between atoms: C_14  and  N_15
REMARK    7  A    between atoms: C_16  and  C_18
REMARK                            x       y       z     vdW  Elec       q    Type
REMARK                         _______ _______ _______ _____ _____    ______ ____
ROOT
ATOM      1  C   UNL     1       4.598   5.070  17.058  0.00  0.00    +0.000 A 
ATOM      2  C   UNL     1       3.715   3.971  17.065  0.00  0.00    +0.000 A 
ATOM      3  C   UNL     1       2.449   4.064  17.636  0.00  0.00    +0.000 A 
ATOM      4  C   UNL     1       2.069   5.235  18.281  0.00  0.00    +0.000 A 
ATOM      5  C   UNL     1       2.946   6.322  18.345  0.00  0.00    +0.000 A 
ATOM      6  C   UNL     1       4.165   6.267  17.668  0.00  0.00    +0.000 A 
ENDROOT
BRANCH   5   7
ATOM      7  N   UNL     1       2.637   7.466  19.109  0.00  0.00    +0.000 N 
ATOM      8  C   UNL     1       1.849   7.405  20.249  0.00  0.00    +0.000 C 
ATOM      9  O   UNL     1       1.524   6.342  20.790  0.00  0.00    +0.000 OA
ATOM     10  H   UNL     1       3.180   8.308  18.969  0.00  0.00    +0.000 HD
BRANCH   8  11
ATOM     11  C   UNL     1       1.360   8.703  20.706  0.00  0.00    +0.000 C 
ATOM     12  C   UNL     1       0.806   8.984  21.917  0.00  0.00    +0.000 C 
ATOM     13  C   UNL     1       0.061  10.044  21.282  0.00  0.00    +0.000 A 
ATOM     14  C   UNL     1      -0.985  10.886  21.450  0.00  0.00    +0.000 A 
ATOM     15  C   UNL     1      -1.338  11.581  20.288  0.00  0.00    +0.000 A 
ATOM     16  C   UNL     1      -0.592  11.442  19.081  0.00  0.00    +0.000 A 
ATOM     17  C   UNL     1       0.484  10.546  18.977  0.00  0.00    +0.000 A 
ATOM     18  C   UNL     1       0.728   9.842  20.108  0.00  0.00    +0.000 A 
ENDBRANCH   8  11
ENDBRANCH   5   7
BRANCH   1  20
ATOM     19  C   UNL     1       6.984   4.424  17.567  0.00  0.00    +0.000 C 
ATOM     20  C   UNL     1       6.006   4.887  16.474  0.00  0.00    +0.000 C 
BRANCH  20  21
ATOM     21  C   UNL     1       6.048   3.972  15.231  0.00  0.00    +0.000 C 
BRANCH  21  22
ATOM     22  C   UNL     1       6.740   4.519  14.026  0.00  0.00    +0.000 A 
ATOM     23  N   UNL     1       7.652   5.472  14.061  0.00  0.00    +0.000 NA
ATOM     24  N   UNL     1       8.140   5.655  12.794  0.00  0.00    +0.000 NA
ATOM     25  C   UNL     1       7.516   4.816  12.005  0.00  0.00    +0.000 A 
ATOM     26  N   UNL     1       6.623   4.085  12.730  0.00  0.00    +0.000 N 
ATOM     27  C   UNL     1       5.769   3.062  12.190  0.00  0.00    +0.000 C 
ENDBRANCH  21  22
ENDBRANCH  20  21
ENDBRANCH   1  20
TORSDOF 5
ENDMDL
MODEL 5
REMARK VINA RESULT:      -8.2      2.230      3.002
REMARK  Name = 
REMARK  7 active torsions:
REMARK  status: ('A' for Active; 'I' for Inactive)
REMARK    1  A    between atoms: C_1  and  C_2
REMARK    2  A    between atoms: C_2  and  C_3
REMARK    3  A    between atoms: C_2  and  C_10
REMARK    4  A    between atoms: C_3  and  C_4
REMARK    5  A    between atoms: N_8  and  C_9
REMARK    6  A    between atoms: C_14  and  N_15
REMARK    7  A    between atoms: C_16  and  C_18
REMARK                            x       y       z     vdW  Elec       q    Type
REMARK                         _______ _______ _______ _____ _____    ______ ____
ROOT
ATOM      1  C   UNL     1       4.513   5.713  17.341  0.00  0.00    +0.000 A 
ATOM      2  C   UNL     1       5.113   4.651  16.636  0.00  0.00    +0.000 A 
ATOM      3  C   UNL     1       6.439   4.719  16.217  0.00  0.00    +0.000 A 
ATOM      4  C   UNL     1       7.168   5.884  16.426  0.00  0.00    +0.000 A 
ATOM      5  C   UNL     1       6.581   6.978  17.068  0.00  0.00    +0.000 A 
ATOM      6  C   UNL     1       5.293   6.862  17.592  0.00  0.00    +0.000 A 
ENDROOT
BRANCH   5   7
ATOM      7  N   UNL     1       7.253   8.213  17.169  0.00  0.00    +0.000 N 
ATOM      8  C   UNL     1       8.161   8.482  18.183  0.00  0.00    +0.000 C 
ATOM      9  O   UNL     1       8.596   7.614  18.949  0.00  0.00    +0.000 OA
ATOM     10  H   UNL     1       7.259   8.833  16.369  0.00  0.00    +0.000 HD
BRANCH   8  11
ATOM     11  C   UNL     1       8.492   9.897  18.326  0.00  0.00    +0.000 C 
ATOM     12  C   UNL     1       8.351  10.866  17.381  0.00  0.00    +0.000 C 
ATOM     13  C   UNL     1       9.446  11.571  18.001  0.00  0.00    +0.000 A 
ATOM     14  C   UNL     1      10.341  12.569  17.812  0.00  0.00    +0.000 A 
ATOM     15  C   UNL     1      11.340  12.620  18.789  0.00  0.00    +0.000 A 
ATOM     16  C   UNL     1      11.336  11.733  19.906  0.00  0.00    +0.000 A 
ATOM     17  C   UNL     1      10.376  10.718  20.039  0.00  0.00    +0.000 A 
ATOM     18  C   UNL     1       9.483  10.665  19.021  0.00  0.00    +0.000 A 
ENDBRANCH   8  11
ENDBRANCH   5   7
BRANCH   1  20
ATOM     19  C   UNL     1       2.588   4.134  17.758  0.00  0.00    +0.000 C 
ATOM     20  C   UNL     1       3.027   5.607  17.718  0.00  0.00    +0.000 C 
BRANCH  20  21
ATOM     21  C   UNL     1       2.662   6.359  19.016  0.00  0.00    +0.000 C 
BRANCH  21  22
ATOM     22  C   UNL     1       2.119   7.740  18.853  0.00  0.00    +0.000 A 
ATOM     23  N   UNL     1       2.083   8.395  17.708  0.00  0.00    +0.000 NA
ATOM     24  N   UNL     1       1.434   9.586  17.907  0.00  0.00    +0.000 NA
ATOM     25  C   UNL     1       1.087   9.641  19.168  0.00  0.00    +0.000 A 
ATOM     26  N   UNL     1       1.500   8.509  19.806  0.00  0.00    +0.000 N 
ATOM     27  C   UNL     1       1.282   8.225  21.199  0.00  0.00    +0.000 C 
ENDBRANCH  21  22
ENDBRANCH  20  21
ENDBRANCH   1  20
TORSDOF 5
ENDMDL
MODEL 6
REMARK VINA RESULT:      -8.2      2.115      3.036
REMARK  Name = 
REMARK  7 active torsions:
REMARK  status: ('A' for Active; 'I' for Inactive)
REMARK    1  A    between atoms: C_1  and  C_2
REMARK    2  A    between atoms: C_2  and  C_3
REMARK    3  A    between atoms: C_2  and  C_10
REMARK    4  A    between atoms: C_3  and  C_4
REMARK    5  A    between atoms: N_8  and  C_9
REMARK    6  A    between atoms: C_14  and  N_15
REMARK    7  A    between atoms: C_16  and  C_18
REMARK                            x       y       z     vdW  Elec       q    Type
REMARK                         _______ _______ _______ _____ _____    ______ ____
ROOT
ATOM      1  C   UNL     1       6.172   6.117  17.443  0.00  0.00    +0.000 A 
ATOM      2  C   UNL     1       6.780   5.338  18.447  0.00  0.00    +0.000 A 
ATOM      3  C   UNL     1       7.841   5.829  19.202  0.00  0.00    +0.000 A 
ATOM      4  C   UNL     1       8.368   7.083  18.914  0.00  0.00    +0.000 A 
ATOM      5  C   UNL     1       7.826   7.855  17.882  0.00  0.00    +0.000 A 
ATOM      6  C   UNL     1       6.687   7.410  17.210  0.00  0.00    +0.000 A 
ENDROOT
BRANCH   5   7
ATOM      7  N   UNL     1       8.428   9.066  17.483  0.00  0.00    +0.000 N 
ATOM      8  C   UNL     1       8.912   9.990  18.398  0.00  0.00    +0.000 C 
ATOM      9  O   UNL     1       9.035   9.747  19.604  0.00  0.00    +0.000 OA
ATOM     10  H   UNL     1       8.727   9.169  16.522  0.00  0.00    +0.000 HD
BRANCH   8  11
ATOM     11  C   UNL     1       9.183  11.307  17.828  0.00  0.00    +0.000 C 
ATOM     12  C   UNL     1      10.358  11.991  17.881  0.00  0.00    +0.000 C 
ATOM     13  C   UNL     1       9.600  13.216  17.808  0.00  0.00    +0.000 A 
ATOM     14  C   UNL     1       9.680  14.555  17.990  0.00  0.00    +0.000 A 
ATOM     15  C   UNL     1       8.442  15.203  17.946  0.00  0.00    +0.000 A 
ATOM     16  C   UNL     1       7.239  14.492  17.656  0.00  0.00    +0.000 A 
ATOM     17  C   UNL     1       7.228  13.100  17.479  0.00  0.00    +0.000 A 
ATOM     18  C   UNL     1       8.444  12.517  17.614  0.00  0.00    +0.000 A 
ENDBRANCH   8  11
ENDBRANCH   5   7
BRANCH   1  20
ATOM     19  C   UNL     1       5.433   5.501  15.109  0.00  0.00    +0.000 C 
ATOM     20  C   UNL     1       5.049   5.496  16.599  0.00  0.00    +0.000 C 
BRANCH  20  21
ATOM     21  C   UNL     1       4.611   4.097  17.083  0.00  0.00    +0.000 C 
BRANCH  21  22
ATOM     22  C   UNL     1       3.218   3.982  17.608  0.00  0.00    +0.000 A 
ATOM     23  N   UNL     1       2.245   3.330  17.000  0.00  0.00    +0.000 NA
ATOM     24  N   UNL     1       1.137   3.347  17.806  0.00  0.00    +0.000 NA
ATOM     25  C   UNL     1       1.448   4.012  18.891  0.00  0.00    +0.000 A 
ATOM     26  N   UNL     1       2.741   4.436  18.812  0.00  0.00    +0.000 N 
ATOM     27  C   UNL     1       3.422   5.191  19.829  0.00  0.00    +0.000 C 
ENDBRANCH  21  22
ENDBRANCH  20  21
ENDBRANCH   1  20
TORSDOF 5
ENDMDL
MODEL 7
REMARK VINA RESULT:      -8.1      7.012      9.647
REMARK  Name = 
REMARK  7 active torsions:
REMARK  status: ('A' for Active; 'I' for Inactive)
REMARK    1  A    between atoms: C_1  and  C_2
REMARK    2  A    between atoms: C_2  and  C_3
REMARK    3  A    between atoms: C_2  and  C_10
REMARK    4  A    between atoms: C_3  and  C_4
REMARK    5  A    between atoms: N_8  and  C_9
REMARK    6  A    between atoms: C_14  and  N_15
REMARK    7  A    between atoms: C_16  and  C_18
REMARK                            x       y       z     vdW  Elec       q    Type
REMARK                         _______ _______ _______ _____ _____    ______ ____
ROOT
ATOM      1  C   UNL     1      -1.573  10.801  17.986  0.00  0.00    +0.000 A 
ATOM      2  C   UNL     1      -1.518  11.856  18.919  0.00  0.00    +0.000 A 
ATOM      3  C   UNL     1      -0.453  11.982  19.806  0.00  0.00    +0.000 A 
ATOM      4  C   UNL     1       0.539  11.009  19.834  0.00  0.00    +0.000 A 
ATOM      5  C   UNL     1       0.480   9.917  18.963  0.00  0.00    +0.000 A 
ATOM      6  C   UNL     1      -0.523   9.858  17.995  0.00  0.00    +0.000 A 
ENDROOT
BRANCH   5   7
ATOM      7  N   UNL     1       1.397   8.851  19.065  0.00  0.00    +0.000 N 
ATOM      8  C   UNL     1       2.317   8.567  18.067  0.00  0.00    +0.000 C 
ATOM      9  O   UNL     1       2.540   9.326  17.117  0.00  0.00    +0.000 OA
ATOM     10  H   UNL     1       1.553   8.426  19.971  0.00  0.00    +0.000 HD
BRANCH   8  11
ATOM     11  C   UNL     1       2.939   7.251  18.187  0.00  0.00    +0.000 C 
ATOM     12  C   UNL     1       4.131   6.862  17.656  0.00  0.00    +0.000 C 
ATOM     13  C   UNL     1       3.620   5.514  17.604  0.00  0.00    +0.000 A 
ATOM     14  C   UNL     1       3.837   4.291  17.068  0.00  0.00    +0.000 A 
ATOM     15  C   UNL     1       2.780   3.396  17.263  0.00  0.00    +0.000 A 
ATOM     16  C   UNL     1       1.631   3.756  18.027  0.00  0.00    +0.000 A 
ATOM     17  C   UNL     1       1.469   5.046  18.555  0.00  0.00    +0.000 A 
ATOM     18  C   UNL     1       2.487   5.893  18.264  0.00  0.00    +0.000 A 
ENDBRANCH   8  11
ENDBRANCH   5   7
BRANCH   1  20
ATOM     19  C   UNL     1      -2.494   9.773  15.873  0.00  0.00    +0.000 C 
ATOM     20  C   UNL     1      -2.806  10.677  17.078  0.00  0.00    +0.000 C 
BRANCH  20  21
ATOM     21  C   UNL     1      -4.083  10.234  17.823  0.00  0.00    +0.000 C 
BRANCH  21  22
ATOM     22  C   UNL     1      -5.241  11.175  17.772  0.00  0.00    +0.000 A 
ATOM     23  N   UNL     1      -5.272  12.278  17.050  0.00  0.00    +0.000 NA
ATOM     24  N   UNL     1      -6.516  12.841  17.166  0.00  0.00    +0.000 NA
ATOM     25  C   UNL     1      -7.224  12.076  17.959  0.00  0.00    +0.000 A 
ATOM     26  N   UNL     1      -6.466  11.020  18.371  0.00  0.00    +0.000 N 
ATOM     27  C   UNL     1      -6.923   9.973  19.245  0.00  0.00    +0.000 C 
ENDBRANCH  21  22
ENDBRANCH  20  21
ENDBRANCH   1  20
TORSDOF 5
ENDMDL
MODEL 8
REMARK VINA RESULT:      -8.1      6.394      8.523
REMARK  Name = 
REMARK  7 active torsions:
REMARK  status: ('A' for Active; 'I' for Inactive)
REMARK    1  A    between atoms: C_1  and  C_2
REMARK    2  A    between atoms: C_2  and  C_3
REMARK    3  A    between atoms: C_2  and  C_10
REMARK    4  A    between atoms: C_3  and  C_4
REMARK    5  A    between atoms: N_8  and  C_9
REMARK    6  A    between atoms: C_14  and  N_15
REMARK    7  A    between atoms: C_16  and  C_18
REMARK                            x       y       z     vdW  Elec       q    Type
REMARK                         _______ _______ _______ _____ _____    ______ ____
ROOT
ATOM      1  C   UNL     1       2.135   7.643  19.455  0.00  0.00    +0.000 A 
ATOM      2  C   UNL     1       2.308   8.107  18.135  0.00  0.00    +0.000 A 
ATOM      3  C   UNL     1       1.790   9.332  17.725  0.00  0.00    +0.000 A 
ATOM      4  C   UNL     1       1.020  10.083  18.604  0.00  0.00    +0.000 A 
ATOM      5  C   UNL     1       0.778   9.620  19.901  0.00  0.00    +0.000 A 
ATOM      6  C   UNL     1       1.398   8.452  20.346  0.00  0.00    +0.000 A 
ENDROOT
BRANCH   5   7
ATOM      7  N   UNL     1      -0.110  10.295  20.763  0.00  0.00    +0.000 N 
ATOM      8  C   UNL     1       0.251  11.448  21.446  0.00  0.00    +0.000 C 
ATOM      9  O   UNL     1       1.289  12.077  21.209  0.00  0.00    +0.000 OA
ATOM     10  H   UNL     1      -1.098  10.081  20.713  0.00  0.00    +0.000 HD
BRANCH   8  11
ATOM     11  C   UNL     1      -0.656  11.807  22.532  0.00  0.00    +0.000 C 
ATOM     12  C   UNL     1      -1.601  11.009  23.101  0.00  0.00    +0.000 C 
ATOM     13  C   UNL     1      -2.357  12.198  23.411  0.00  0.00    +0.000 A 
ATOM     14  C   UNL     1      -3.578  12.640  23.792  0.00  0.00    +0.000 A 
ATOM     15  C   UNL     1      -3.725  14.028  23.711  0.00  0.00    +0.000 A 
ATOM     16  C   UNL     1      -2.639  14.870  23.331  0.00  0.00    +0.000 A 
ATOM     17  C   UNL     1      -1.396  14.344  22.945  0.00  0.00    +0.000 A 
ATOM     18  C   UNL     1      -1.339  12.991  22.965  0.00  0.00    +0.000 A 
ENDBRANCH   8  11
ENDBRANCH   5   7
BRANCH   1  20
ATOM     19  C   UNL     1       1.662   5.513  20.723  0.00  0.00    +0.000 C 
ATOM     20  C   UNL     1       2.672   6.254  19.830  0.00  0.00    +0.000 C 
BRANCH  20  21
ATOM     21  C   UNL     1       3.104   5.407  18.613  0.00  0.00    +0.000 C 
BRANCH  21  22
ATOM     22  C   UNL     1       3.679   4.062  18.912  0.00  0.00    +0.000 A 
ATOM     23  N   UNL     1       4.874   3.863  19.433  0.00  0.00    +0.000 NA
ATOM     24  N   UNL     1       5.033   2.521  19.661  0.00  0.00    +0.000 NA
ATOM     25  C   UNL     1       3.936   1.921  19.271  0.00  0.00    +0.000 A 
ATOM     26  N   UNL     1       3.058   2.845  18.788  0.00  0.00    +0.000 N 
ATOM     27  C   UNL     1       1.746   2.544  18.280  0.00  0.00    +0.000 C 
ENDBRANCH  21  22
ENDBRANCH  20  21
ENDBRANCH   1  20
TORSDOF 5
ENDMDL
MODEL 9
REMARK VINA RESULT:      -8.0      3.487      7.109
REMARK  Name = 
REMARK  7 active torsions:
REMARK  status: ('A' for Active; 'I' for Inactive)
REMARK    1  A    between atoms: C_1  and  C_2
REMARK    2  A    between atoms: C_2  and  C_3
REMARK    3  A    between atoms: C_2  and  C_10
REMARK    4  A    between atoms: C_3  and  C_4
REMARK    5  A    between atoms: N_8  and  C_9
REMARK    6  A    between atoms: C_14  and  N_15
REMARK    7  A    between atoms: C_16  and  C_18
REMARK                            x       y       z     vdW  Elec       q    Type
REMARK                         _______ _______ _______ _____ _____    ______ ____
ROOT
ATOM      1  C   UNL     1       4.252   4.247  16.812  0.00  0.00    +0.000 A 
ATOM      2  C   UNL     1       3.359   3.177  17.015  0.00  0.00    +0.000 A 
ATOM      3  C   UNL     1       2.153   3.358  17.687  0.00  0.00    +0.000 A 
ATOM      4  C   UNL     1       1.852   4.598  18.239  0.00  0.00    +0.000 A 
ATOM      5  C   UNL     1       2.747   5.664  18.108  0.00  0.00    +0.000 A 
ATOM      6  C   UNL     1       3.896   5.511  17.331  0.00  0.00    +0.000 A 
ENDROOT
BRANCH   5   7
ATOM      7  N   UNL     1       2.528   6.887  18.773  0.00  0.00    +0.000 N 
ATOM      8  C   UNL     1       2.081   6.948  20.085  0.00  0.00    +0.000 C 
ATOM      9  O   UNL     1       2.029   5.961  20.828  0.00  0.00    +0.000 OA
ATOM     10  H   UNL     1       2.919   7.734  18.380  0.00  0.00    +0.000 HD
BRANCH   8  11
ATOM     11  C   UNL     1       1.592   8.263  20.488  0.00  0.00    +0.000 C 
ATOM     12  C   UNL     1       0.835   8.550  21.583  0.00  0.00    +0.000 C 
ATOM     13  C   UNL     1       0.288   9.671  20.858  0.00  0.00    +0.000 A 
ATOM     14  C   UNL     1      -0.720  10.575  20.856  0.00  0.00    +0.000 A 
ATOM     15  C   UNL     1      -0.805  11.318  19.674  0.00  0.00    +0.000 A 
ATOM     16  C   UNL     1       0.148  11.161  18.625  0.00  0.00    +0.000 A 
ATOM     17  C   UNL     1       1.169  10.200  18.693  0.00  0.00    +0.000 A 
ATOM     18  C   UNL     1       1.152   9.455  19.824  0.00  0.00    +0.000 A 
ENDBRANCH   8  11
ENDBRANCH   5   7
BRANCH   1  20
ATOM     19  C   UNL     1       5.712   4.790  14.825  0.00  0.00    +0.000 C 
ATOM     20  C   UNL     1       5.597   3.971  16.122  0.00  0.00    +0.000 C 
BRANCH  20  21
ATOM     21  C   UNL     1       6.819   4.168  17.045  0.00  0.00    +0.000 C 
BRANCH  21  22
ATOM     22  C   UNL     1       7.273   5.575  17.254  0.00  0.00    +0.000 A 
ATOM     23  N   UNL     1       7.288   6.499  16.313  0.00  0.00    +0.000 NA
ATOM     24  N   UNL     1       7.668   7.690  16.877  0.00  0.00    +0.000 NA
ATOM     25  C   UNL     1       7.883   7.473  18.150  0.00  0.00    +0.000 A 
ATOM     26  N   UNL     1       7.655   6.160  18.435  0.00  0.00    +0.000 N 
ATOM     27  C   UNL     1       7.786   5.567  19.739  0.00  0.00    +0.000 C 
ENDBRANCH  21  22
ENDBRANCH  20  21
ENDBRANCH   1  20
TORSDOF 5
ENDMDL
