MODEL 1
REMARK VINA RESULT:      -8.8      0.000      0.000
REMARK  Name = 
REMARK  4 active torsions:
REMARK  status: ('A' for Active; 'I' for Inactive)
REMARK    1  A    between atoms: C_2  and  C_19
REMARK    2  A    between atoms: N_3  and  C_4
REMARK    3  A    between atoms: C_7  and  N_8
REMARK    4  A    between atoms: C_24  and  C_25
REMARK                            x       y       z     vdW  Elec       q    Type
REMARK                         _______ _______ _______ _____ _____    ______ ____
ROOT
ATOM      1  C   UNL     1       1.584   8.212  19.899  0.00  0.00    +0.000 A 
ATOM      2  C   UNL     1       1.625   8.970  18.731  0.00  0.00    +0.000 A 
ATOM      3  C   UNL     1       0.774  10.042  18.545  0.00  0.00    +0.000 A 
ATOM      4  C   UNL     1      -0.150  10.389  19.532  0.00  0.00    +0.000 A 
ATOM      5  C   UNL     1      -0.182   9.699  20.741  0.00  0.00    +0.000 A 
ATOM      6  C   UNL     1       0.681   8.593  20.911  0.00  0.00    +0.000 A 
ENDROOT
BRANCH   4   7
ATOM      7  N   UNL     1      -1.041  11.433  19.184  0.00  0.00    +0.000 N 
ATOM      8  C   UNL     1      -1.442  12.377  20.113  0.00  0.00    +0.000 A 
ATOM      9  N   UNL     1      -2.707  12.698  19.992  0.00  0.00    +0.000 NA
ATOM     10  C   UNL     1      -3.132  11.992  18.900  0.00  0.00    +0.000 A 
ATOM     11  C   UNL     1      -4.437  11.850  18.409  0.00  0.00    +0.000 A 
ATOM     12  C   UNL     1      -4.638  11.094  17.252  0.00  0.00    +0.000 A 
ATOM     13  C   UNL     1      -3.557  10.524  16.576  0.00  0.00    +0.000 A 
ATOM     14  C   UNL     1      -2.250  10.613  17.078  0.00  0.00    +0.000 A 
ATOM     15  C   UNL     1      -2.078  11.323  18.272  0.00  0.00    +0.000 A 
ENDBRANCH   4   7
BRANCH   1  18
ATOM     16  O   UNL     1       1.902   5.965  18.055  0.00  0.00    +0.000 OA
ATOM     17  C   UNL     1       2.396   5.990  19.176  0.00  0.00    +0.000 C 
ATOM     18  N   UNL     1       2.386   7.054  20.063  0.00  0.00    +0.000 N 
ATOM     19  H   UNL     1       2.931   6.994  20.911  0.00  0.00    +0.000 HD
BRANCH  17  20
ATOM     20  C   UNL     1       3.143   4.759  19.534  0.00  0.00    +0.000 A 
ATOM     21  C   UNL     1       4.480   4.739  19.078  0.00  0.00    +0.000 A 
ATOM     22  C   UNL     1       5.283   3.613  19.228  0.00  0.00    +0.000 A 
ATOM     23  C   UNL     1       4.765   2.490  19.855  0.00  0.00    +0.000 A 
ATOM     24  C   UNL     1       3.440   2.488  20.295  0.00  0.00    +0.000 A 
ATOM     25  C   UNL     1       2.593   3.607  20.113  0.00  0.00    +0.000 A 
BRANCH  25  26
ATOM     26  C   UNL     1       1.147   3.425  20.491  0.00  0.00    +0.000 C 
ATOM     27  F   UNL     1       0.903   2.645  21.570  0.00  0.00    +0.000 F 
ATOM     28  F   UNL     1       0.533   4.613  20.758  0.00  0.00    +0.000 F 
ATOM     29  F   UNL     1       0.436   2.866  19.471  0.00  0.00    +0.000 F 
ENDBRANCH  25  26
ENDBRANCH  17  20
ENDBRANCH   1  18
TORSDOF 4
ENDMDL
MODEL 2
REMARK VINA RESULT:      -8.8      1.334      1.668
REMARK  Name = 
REMARK  4 active torsions:
REMARK  status: ('A' for Active; 'I' for Inactive)
REMARK    1  A    between atoms: C_2  and  C_19
REMARK    2  A    between atoms: N_3  and  C_4
REMARK    3  A    between atoms: C_7  and  N_8
REMARK    4  A    between atoms: C_24  and  C_25
REMARK                            x       y       z     vdW  Elec       q    Type
REMARK                         _______ _______ _______ _____ _____    ______ ____
ROOT
ATOM      1  C   UNL     1       2.236   7.603  19.079  0.00  0.00    +0.000 A 
ATOM      2  C   UNL     1       2.238   8.428  17.957  0.00  0.00    +0.000 A 
ATOM      3  C   UNL     1       1.595   9.651  17.969  0.00  0.00    +0.000 A 
ATOM      4  C   UNL     1       0.926  10.085  19.114  0.00  0.00    +0.000 A 
ATOM      5  C   UNL     1       0.953   9.321  20.279  0.00  0.00    +0.000 A 
ATOM      6  C   UNL     1       1.599   8.064  20.248  0.00  0.00    +0.000 A 
ENDROOT
BRANCH   4   7
ATOM      7  N   UNL     1       0.214  11.300  18.973  0.00  0.00    +0.000 N 
ATOM      8  C   UNL     1       0.473  12.387  19.789  0.00  0.00    +0.000 A 
ATOM      9  N   UNL     1      -0.616  13.027  20.139  0.00  0.00    +0.000 NA
ATOM     10  C   UNL     1      -1.619  12.378  19.471  0.00  0.00    +0.000 A 
ATOM     11  C   UNL     1      -3.003  12.556  19.594  0.00  0.00    +0.000 A 
ATOM     12  C   UNL     1      -3.850  11.794  18.785  0.00  0.00    +0.000 A 
ATOM     13  C   UNL     1      -3.326  10.902  17.846  0.00  0.00    +0.000 A 
ATOM     14  C   UNL     1      -1.946  10.674  17.742  0.00  0.00    +0.000 A 
ATOM     15  C   UNL     1      -1.118  11.403  18.605  0.00  0.00    +0.000 A 
ENDBRANCH   4   7
BRANCH   1  18
ATOM     16  O   UNL     1       1.256   5.228  17.682  0.00  0.00    +0.000 OA
ATOM     17  C   UNL     1       2.219   5.213  18.440  0.00  0.00    +0.000 C 
ATOM     18  N   UNL     1       2.811   6.306  19.050  0.00  0.00    +0.000 N 
ATOM     19  H   UNL     1       3.675   6.181  19.558  0.00  0.00    +0.000 HD
BRANCH  17  20
ATOM     20  C   UNL     1       2.827   3.871  18.618  0.00  0.00    +0.000 A 
ATOM     21  C   UNL     1       3.463   3.365  17.462  0.00  0.00    +0.000 A 
ATOM     22  C   UNL     1       3.982   2.075  17.424  0.00  0.00    +0.000 A 
ATOM     23  C   UNL     1       3.888   1.272  18.550  0.00  0.00    +0.000 A 
ATOM     24  C   UNL     1       3.246   1.752  19.694  0.00  0.00    +0.000 A 
ATOM     25  C   UNL     1       2.672   3.045  19.740  0.00  0.00    +0.000 A 
BRANCH  25  26
ATOM     26  C   UNL     1       1.877   3.385  20.971  0.00  0.00    +0.000 C 
ATOM     27  F   UNL     1       0.589   3.754  20.772  0.00  0.00    +0.000 F 
ATOM     28  F   UNL     1       1.821   2.344  21.850  0.00  0.00    +0.000 F 
ATOM     29  F   UNL     1       2.447   4.415  21.660  0.00  0.00    +0.000 F 
ENDBRANCH  25  26
ENDBRANCH  17  20
ENDBRANCH   1  18
TORSDOF 4
ENDMDL
MODEL 3
REMARK VINA RESULT:      -8.7      4.448      9.095
REMARK  Name = 
REMARK  4 active torsions:
REMARK  status: ('A' for Active; 'I' for Inactive)
REMARK    1  A    between atoms: C_2  and  C_19
REMARK    2  A    between atoms: N_3  and  C_4
REMARK    3  A    between atoms: C_7  and  N_8
REMARK    4  A    between atoms: C_24  and  C_25
REMARK                            x       y       z     vdW  Elec       q    Type
REMARK                         _______ _______ _______ _____ _____    ______ ____
ROOT
ATOM      1  C   UNL     1       0.892   9.587  19.661  0.00  0.00    +0.000 A 
ATOM      2  C   UNL     1       1.188   8.675  20.671  0.00  0.00    +0.000 A 
ATOM      3  C   UNL     1       1.904   7.523  20.405  0.00  0.00    +0.000 A 
ATOM      4  C   UNL     1       2.348   7.251  19.110  0.00  0.00    +0.000 A 
ATOM      5  C   UNL     1       2.130   8.167  18.083  0.00  0.00    +0.000 A 
ATOM      6  C   UNL     1       1.380   9.332  18.365  0.00  0.00    +0.000 A 
ENDROOT
BRANCH   4   7
ATOM      7  N   UNL     1       2.973   5.993  18.938  0.00  0.00    +0.000 N 
ATOM      8  C   UNL     1       3.899   5.780  17.932  0.00  0.00    +0.000 A 
ATOM      9  N   UNL     1       3.777   4.600  17.375  0.00  0.00    +0.000 NA
ATOM     10  C   UNL     1       2.781   3.991  18.089  0.00  0.00    +0.000 A 
ATOM     11  C   UNL     1       2.146   2.769  17.829  0.00  0.00    +0.000 A 
ATOM     12  C   UNL     1       1.163   2.324  18.715  0.00  0.00    +0.000 A 
ATOM     13  C   UNL     1       0.846   3.063  19.858  0.00  0.00    +0.000 A 
ATOM     14  C   UNL     1       1.434   4.311  20.110  0.00  0.00    +0.000 A 
ATOM     15  C   UNL     1       2.373   4.768  19.177  0.00  0.00    +0.000 A 
ENDBRANCH   4   7
BRANCH   1  18
ATOM     16  O   UNL     1       1.577  12.011  21.147  0.00  0.00    +0.000 OA
ATOM     17  C   UNL     1       0.456  11.787  20.705  0.00  0.00    +0.000 C 
ATOM     18  N   UNL     1       0.078  10.725  19.902  0.00  0.00    +0.000 N 
ATOM     19  H   UNL     1      -0.849  10.713  19.501  0.00  0.00    +0.000 HD
BRANCH  17  20
ATOM     20  C   UNL     1      -0.539  12.841  21.022  0.00  0.00    +0.000 A 
ATOM     21  C   UNL     1      -1.345  12.557  22.148  0.00  0.00    +0.000 A 
ATOM     22  C   UNL     1      -2.403  13.384  22.511  0.00  0.00    +0.000 A 
ATOM     23  C   UNL     1      -2.662  14.523  21.763  0.00  0.00    +0.000 A 
ATOM     24  C   UNL     1      -1.885  14.807  20.639  0.00  0.00    +0.000 A 
ATOM     25  C   UNL     1      -0.832  13.956  20.225  0.00  0.00    +0.000 A 
BRANCH  25  26
ATOM     26  C   UNL     1      -0.173  14.290  18.914  0.00  0.00    +0.000 C 
ATOM     27  F   UNL     1       1.180  14.350  18.920  0.00  0.00    +0.000 F 
ATOM     28  F   UNL     1      -0.490  13.393  17.937  0.00  0.00    +0.000 F 
ATOM     29  F   UNL     1      -0.588  15.502  18.447  0.00  0.00    +0.000 F 
ENDBRANCH  25  26
ENDBRANCH  17  20
ENDBRANCH   1  18
TORSDOF 4
ENDMDL
MODEL 4
REMARK VINA RESULT:      -8.6      2.492      3.514
REMARK  Name = 
REMARK  4 active torsions:
REMARK  status: ('A' for Active; 'I' for Inactive)
REMARK    1  A    between atoms: C_2  and  C_19
REMARK    2  A    between atoms: N_3  and  C_4
REMARK    3  A    between atoms: C_7  and  N_8
REMARK    4  A    between atoms: C_24  and  C_25
REMARK                            x       y       z     vdW  Elec       q    Type
REMARK                         _______ _______ _______ _____ _____    ______ ____
ROOT
ATOM      1  C   UNL     1       1.514   9.374  17.869  0.00  0.00    +0.000 A 
ATOM      2  C   UNL     1       0.125   9.407  17.952  0.00  0.00    +0.000 A 
ATOM      3  C   UNL     1      -0.536  10.529  18.416  0.00  0.00    +0.000 A 
ATOM      4  C   UNL     1       0.183  11.657  18.813  0.00  0.00    +0.000 A 
ATOM      5  C   UNL     1       1.570  11.690  18.687  0.00  0.00    +0.000 A 
ATOM      6  C   UNL     1       2.235  10.530  18.228  0.00  0.00    +0.000 A 
ENDROOT
BRANCH   4   7
ATOM      7  N   UNL     1      -0.593  12.701  19.373  0.00  0.00    +0.000 N 
ATOM      8  C   UNL     1      -0.461  14.009  18.940  0.00  0.00    +0.000 A 
ATOM      9  N   UNL     1      -0.527  14.874  19.921  0.00  0.00    +0.000 NA
ATOM     10  C   UNL     1      -0.782  14.112  21.029  0.00  0.00    +0.000 A 
ATOM     11  C   UNL     1      -0.806  14.508  22.372  0.00  0.00    +0.000 A 
ATOM     12  C   UNL     1      -1.117  13.556  23.345  0.00  0.00    +0.000 A 
ATOM     13  C   UNL     1      -1.436  12.245  22.984  0.00  0.00    +0.000 A 
ATOM     14  C   UNL     1      -1.369  11.816  21.650  0.00  0.00    +0.000 A 
ATOM     15  C   UNL     1      -0.995  12.771  20.696  0.00  0.00    +0.000 A 
ENDBRANCH   4   7
BRANCH   1  18
ATOM     16  O   UNL     1       2.463   7.200  19.579  0.00  0.00    +0.000 OA
ATOM     17  C   UNL     1       2.708   7.268  18.381  0.00  0.00    +0.000 C 
ATOM     18  N   UNL     1       2.209   8.198  17.484  0.00  0.00    +0.000 N 
ATOM     19  H   UNL     1       2.389   8.079  16.498  0.00  0.00    +0.000 HD
BRANCH  17  20
ATOM     20  C   UNL     1       3.564   6.166  17.876  0.00  0.00    +0.000 A 
ATOM     21  C   UNL     1       4.836   6.582  17.421  0.00  0.00    +0.000 A 
ATOM     22  C   UNL     1       5.715   5.694  16.810  0.00  0.00    +0.000 A 
ATOM     23  C   UNL     1       5.344   4.367  16.659  0.00  0.00    +0.000 A 
ATOM     24  C   UNL     1       4.083   3.945  17.087  0.00  0.00    +0.000 A 
ATOM     25  C   UNL     1       3.156   4.841  17.671  0.00  0.00    +0.000 A 
BRANCH  25  26
ATOM     26  C   UNL     1       1.780   4.299  17.947  0.00  0.00    +0.000 C 
ATOM     27  F   UNL     1       1.327   4.428  19.217  0.00  0.00    +0.000 F 
ATOM     28  F   UNL     1       0.830   4.885  17.165  0.00  0.00    +0.000 F 
ATOM     29  F   UNL     1       1.709   2.965  17.671  0.00  0.00    +0.000 F 
ENDBRANCH  25  26
ENDBRANCH  17  20
ENDBRANCH   1  18
TORSDOF 4
ENDMDL
MODEL 5
REMARK VINA RESULT:      -8.5      2.001      2.454
REMARK  Name = 
REMARK  4 active torsions:
REMARK  status: ('A' for Active; 'I' for Inactive)
REMARK    1  A    between atoms: C_2  and  C_19
REMARK    2  A    between atoms: N_3  and  C_4
REMARK    3  A    between atoms: C_7  and  N_8
REMARK    4  A    between atoms: C_24  and  C_25
REMARK                            x       y       z     vdW  Elec       q    Type
REMARK                         _______ _______ _______ _____ _____    ______ ____
ROOT
ATOM      1  C   UNL     1       1.833   7.922  19.755  0.00  0.00    +0.000 A 
ATOM      2  C   UNL     1       1.831   8.612  18.545  0.00  0.00    +0.000 A 
ATOM      3  C   UNL     1       1.030   9.723  18.358  0.00  0.00    +0.000 A 
ATOM      4  C   UNL     1       0.204  10.177  19.387  0.00  0.00    +0.000 A 
ATOM      5  C   UNL     1       0.222   9.557  20.633  0.00  0.00    +0.000 A 
ATOM      6  C   UNL     1       1.032   8.410  20.806  0.00  0.00    +0.000 A 
ENDROOT
BRANCH   4   7
ATOM      7  N   UNL     1      -0.649  11.254  19.044  0.00  0.00    +0.000 N 
ATOM      8  C   UNL     1      -0.896  12.289  19.928  0.00  0.00    +0.000 A 
ATOM      9  N   UNL     1      -2.143  12.689  19.903  0.00  0.00    +0.000 NA
ATOM     10  C   UNL     1      -2.719  11.937  18.915  0.00  0.00    +0.000 A 
ATOM     11  C   UNL     1      -4.073  11.853  18.563  0.00  0.00    +0.000 A 
ATOM     12  C   UNL     1      -4.436  11.031  17.494  0.00  0.00    +0.000 A 
ATOM     13  C   UNL     1      -3.466  10.338  16.766  0.00  0.00    +0.000 A 
ATOM     14  C   UNL     1      -2.113  10.370  17.133  0.00  0.00    +0.000 A 
ATOM     15  C   UNL     1      -1.777  11.151  18.246  0.00  0.00    +0.000 A 
ENDBRANCH   4   7
BRANCH   1  18
ATOM     16  O   UNL     1       1.864   5.553  18.041  0.00  0.00    +0.000 OA
ATOM     17  C   UNL     1       2.451   5.614  19.114  0.00  0.00    +0.000 C 
ATOM     18  N   UNL     1       2.578   6.727  19.929  0.00  0.00    +0.000 N 
ATOM     19  H   UNL     1       3.188   6.684  20.732  0.00  0.00    +0.000 HD
BRANCH  17  20
ATOM     20  C   UNL     1       3.153   4.362  19.490  0.00  0.00    +0.000 A 
ATOM     21  C   UNL     1       2.519   3.628  20.518  0.00  0.00    +0.000 A 
ATOM     22  C   UNL     1       3.105   2.492  21.068  0.00  0.00    +0.000 A 
ATOM     23  C   UNL     1       4.331   2.060  20.586  0.00  0.00    +0.000 A 
ATOM     24  C   UNL     1       4.978   2.785  19.583  0.00  0.00    +0.000 A 
ATOM     25  C   UNL     1       4.421   3.968  19.040  0.00  0.00    +0.000 A 
BRANCH  25  26
ATOM     26  C   UNL     1       5.285   4.738  18.079  0.00  0.00    +0.000 C 
ATOM     27  F   UNL     1       4.803   4.885  16.823  0.00  0.00    +0.000 F 
ATOM     28  F   UNL     1       5.538   6.004  18.518  0.00  0.00    +0.000 F 
ATOM     29  F   UNL     1       6.507   4.151  17.932  0.00  0.00    +0.000 F 
ENDBRANCH  25  26
ENDBRANCH  17  20
ENDBRANCH   1  18
TORSDOF 4
ENDMDL
MODEL 6
REMARK VINA RESULT:      -8.5      6.990      9.901
REMARK  Name = 
REMARK  4 active torsions:
REMARK  status: ('A' for Active; 'I' for Inactive)
REMARK    1  A    between atoms: C_2  and  C_19
REMARK    2  A    between atoms: N_3  and  C_4
REMARK    3  A    between atoms: C_7  and  N_8
REMARK    4  A    between atoms: C_24  and  C_25
REMARK                            x       y       z     vdW  Elec       q    Type
REMARK                         _______ _______ _______ _____ _____    ______ ____
ROOT
ATOM      1  C   UNL     1       8.299   7.913  18.516  0.00  0.00    +0.000 A 
ATOM      2  C   UNL     1       8.335   6.715  19.223  0.00  0.00    +0.000 A 
ATOM      3  C   UNL     1       7.460   5.686  18.929  0.00  0.00    +0.000 A 
ATOM      4  C   UNL     1       6.518   5.831  17.910  0.00  0.00    +0.000 A 
ATOM      5  C   UNL     1       6.490   6.987  17.135  0.00  0.00    +0.000 A 
ATOM      6  C   UNL     1       7.378   8.039  17.457  0.00  0.00    +0.000 A 
ENDROOT
BRANCH   4   7
ATOM      7  N   UNL     1       5.606   4.756  17.774  0.00  0.00    +0.000 N 
ATOM      8  C   UNL     1       5.441   4.098  16.568  0.00  0.00    +0.000 A 
ATOM      9  N   UNL     1       4.190   3.791  16.327  0.00  0.00    +0.000 NA
ATOM     10  C   UNL     1       3.520   4.198  17.449  0.00  0.00    +0.000 A 
ATOM     11  C   UNL     1       2.137   4.242  17.668  0.00  0.00    +0.000 A 
ATOM     12  C   UNL     1       1.671   4.674  18.912  0.00  0.00    +0.000 A 
ATOM     13  C   UNL     1       2.565   5.018  19.928  0.00  0.00    +0.000 A 
ATOM     14  C   UNL     1       3.951   5.029  19.713  0.00  0.00    +0.000 A 
ATOM     15  C   UNL     1       4.396   4.652  18.439  0.00  0.00    +0.000 A 
ENDBRANCH   4   7
BRANCH   1  18
ATOM     16  O   UNL     1       7.921  10.738  17.864  0.00  0.00    +0.000 OA
ATOM     17  C   UNL     1       8.919  10.307  18.427  0.00  0.00    +0.000 C 
ATOM     18  N   UNL     1       9.127   9.010  18.868  0.00  0.00    +0.000 N 
ATOM     19  H   UNL     1       9.943   8.804  19.426  0.00  0.00    +0.000 HD
BRANCH  17  20
ATOM     20  C   UNL     1       9.943  11.340  18.719  0.00  0.00    +0.000 A 
ATOM     21  C   UNL     1      10.881  11.536  17.680  0.00  0.00    +0.000 A 
ATOM     22  C   UNL     1      11.973  12.384  17.837  0.00  0.00    +0.000 A 
ATOM     23  C   UNL     1      12.136  13.066  19.033  0.00  0.00    +0.000 A 
ATOM     24  C   UNL     1      11.227  12.869  20.075  0.00  0.00    +0.000 A 
ATOM     25  C   UNL     1      10.134  11.977  19.952  0.00  0.00    +0.000 A 
BRANCH  25  26
ATOM     26  C   UNL     1       9.320  11.737  21.195  0.00  0.00    +0.000 C 
ATOM     27  F   UNL     1       9.190  10.448  21.588  0.00  0.00    +0.000 F 
ATOM     28  F   UNL     1       9.827  12.394  22.276  0.00  0.00    +0.000 F 
ATOM     29  F   UNL     1       8.046  12.202  21.048  0.00  0.00    +0.000 F 
ENDBRANCH  25  26
ENDBRANCH  17  20
ENDBRANCH   1  18
TORSDOF 4
ENDMDL
MODEL 7
REMARK VINA RESULT:      -8.5      2.926      3.790
REMARK  Name = 
REMARK  4 active torsions:
REMARK  status: ('A' for Active; 'I' for Inactive)
REMARK    1  A    between atoms: C_2  and  C_19
REMARK    2  A    between atoms: N_3  and  C_4
REMARK    3  A    between atoms: C_7  and  N_8
REMARK    4  A    between atoms: C_24  and  C_25
REMARK                            x       y       z     vdW  Elec       q    Type
REMARK                         _______ _______ _______ _____ _____    ______ ____
ROOT
ATOM      1  C   UNL     1       2.179   7.458  18.851  0.00  0.00    +0.000 A 
ATOM      2  C   UNL     1       1.887   7.093  20.163  0.00  0.00    +0.000 A 
ATOM      3  C   UNL     1       1.338   7.999  21.051  0.00  0.00    +0.000 A 
ATOM      4  C   UNL     1       1.064   9.305  20.646  0.00  0.00    +0.000 A 
ATOM      5  C   UNL     1       1.279   9.695  19.326  0.00  0.00    +0.000 A 
ATOM      6  C   UNL     1       1.858   8.765  18.433  0.00  0.00    +0.000 A 
ENDROOT
BRANCH   4   7
ATOM      7  N   UNL     1       0.607  10.170  21.669  0.00  0.00    +0.000 N 
ATOM      8  C   UNL     1       0.260   9.689  22.919  0.00  0.00    +0.000 A 
ATOM      9  N   UNL     1      -0.798  10.283  23.414  0.00  0.00    +0.000 NA
ATOM     10  C   UNL     1      -1.114  11.238  22.486  0.00  0.00    +0.000 A 
ATOM     11  C   UNL     1      -2.243  12.067  22.439  0.00  0.00    +0.000 A 
ATOM     12  C   UNL     1      -2.347  12.997  21.403  0.00  0.00    +0.000 A 
ATOM     13  C   UNL     1      -1.330  13.126  20.455  0.00  0.00    +0.000 A 
ATOM     14  C   UNL     1      -0.216  12.274  20.456  0.00  0.00    +0.000 A 
ATOM     15  C   UNL     1      -0.160  11.306  21.467  0.00  0.00    +0.000 A 
ENDBRANCH   4   7
BRANCH   1  18
ATOM     16  O   UNL     1       4.695   6.022  19.249  0.00  0.00    +0.000 OA
ATOM     17  C   UNL     1       4.073   6.010  18.193  0.00  0.00    +0.000 C 
ATOM     18  N   UNL     1       2.828   6.567  17.957  0.00  0.00    +0.000 N 
ATOM     19  H   UNL     1       2.364   6.388  17.078  0.00  0.00    +0.000 HD
BRANCH  17  20
ATOM     20  C   UNL     1       4.729   5.229  17.116  0.00  0.00    +0.000 A 
ATOM     21  C   UNL     1       5.364   6.020  16.131  0.00  0.00    +0.000 A 
ATOM     22  C   UNL     1       5.926   5.451  14.992  0.00  0.00    +0.000 A 
ATOM     23  C   UNL     1       5.877   4.075  14.827  0.00  0.00    +0.000 A 
ATOM     24  C   UNL     1       5.238   3.283  15.783  0.00  0.00    +0.000 A 
ATOM     25  C   UNL     1       4.621   3.845  16.926  0.00  0.00    +0.000 A 
BRANCH  25  26
ATOM     26  C   UNL     1       3.835   2.903  17.797  0.00  0.00    +0.000 C 
ATOM     27  F   UNL     1       3.895   1.590  17.470  0.00  0.00    +0.000 F 
ATOM     28  F   UNL     1       4.222   2.967  19.103  0.00  0.00    +0.000 F 
ATOM     29  F   UNL     1       2.508   3.217  17.793  0.00  0.00    +0.000 F 
ENDBRANCH  25  26
ENDBRANCH  17  20
ENDBRANCH   1  18
TORSDOF 4
ENDMDL
MODEL 8
REMARK VINA RESULT:      -8.5      4.433      9.228
REMARK  Name = 
REMARK  4 active torsions:
REMARK  status: ('A' for Active; 'I' for Inactive)
REMARK    1  A    between atoms: C_2  and  C_19
REMARK    2  A    between atoms: N_3  and  C_4
REMARK    3  A    between atoms: C_7  and  N_8
REMARK    4  A    between atoms: C_24  and  C_25
REMARK                            x       y       z     vdW  Elec       q    Type
REMARK                         _______ _______ _______ _____ _____    ______ ____
ROOT
ATOM      1  C   UNL     1       1.007   9.278  19.551  0.00  0.00    +0.000 A 
ATOM      2  C   UNL     1       1.442   8.189  20.301  0.00  0.00    +0.000 A 
ATOM      3  C   UNL     1       2.267   7.226  19.751  0.00  0.00    +0.000 A 
ATOM      4  C   UNL     1       2.682   7.328  18.423  0.00  0.00    +0.000 A 
ATOM      5  C   UNL     1       2.323   8.434  17.655  0.00  0.00    +0.000 A 
ATOM      6  C   UNL     1       1.464   9.402  18.224  0.00  0.00    +0.000 A 
ENDROOT
BRANCH   4   7
ATOM      7  N   UNL     1       3.432   6.230  17.938  0.00  0.00    +0.000 N 
ATOM      8  C   UNL     1       3.111   4.929  18.285  0.00  0.00    +0.000 A 
ATOM      9  N   UNL     1       4.170   4.188  18.501  0.00  0.00    +0.000 NA
ATOM     10  C   UNL     1       5.224   5.014  18.217  0.00  0.00    +0.000 A 
ATOM     11  C   UNL     1       6.591   4.780  18.418  0.00  0.00    +0.000 A 
ATOM     12  C   UNL     1       7.502   5.764  18.027  0.00  0.00    +0.000 A 
ATOM     13  C   UNL     1       7.062   6.939  17.413  0.00  0.00    +0.000 A 
ATOM     14  C   UNL     1       5.697   7.213  17.248  0.00  0.00    +0.000 A 
ATOM     15  C   UNL     1       4.797   6.241  17.703  0.00  0.00    +0.000 A 
ENDBRANCH   4   7
BRANCH   1  18
ATOM     16  O   UNL     1       1.552  11.523  21.343  0.00  0.00    +0.000 OA
ATOM     17  C   UNL     1       0.422  11.196  21.000  0.00  0.00    +0.000 C 
ATOM     18  N   UNL     1       0.086  10.222  20.074  0.00  0.00    +0.000 N 
ATOM     19  H   UNL     1      -0.877  10.126  19.786  0.00  0.00    +0.000 HD
BRANCH  17  20
ATOM     20  C   UNL     1      -0.655  12.017  21.605  0.00  0.00    +0.000 A 
ATOM     21  C   UNL     1      -1.312  11.401  22.694  0.00  0.00    +0.000 A 
ATOM     22  C   UNL     1      -2.420  11.986  23.300  0.00  0.00    +0.000 A 
ATOM     23  C   UNL     1      -2.880  13.209  22.836  0.00  0.00    +0.000 A 
ATOM     24  C   UNL     1      -2.252  13.821  21.750  0.00  0.00    +0.000 A 
ATOM     25  C   UNL     1      -1.151  13.223  21.091  0.00  0.00    +0.000 A 
BRANCH  25  26
ATOM     26  C   UNL     1      -0.663  13.906  19.842  0.00  0.00    +0.000 C 
ATOM     27  F   UNL     1      -0.848  13.236  18.679  0.00  0.00    +0.000 F 
ATOM     28  F   UNL     1      -1.255  15.120  19.656  0.00  0.00    +0.000 F 
ATOM     29  F   UNL     1       0.676  14.157  19.906  0.00  0.00    +0.000 F 
ENDBRANCH  25  26
ENDBRANCH  17  20
ENDBRANCH   1  18
TORSDOF 4
ENDMDL
MODEL 9
REMARK VINA RESULT:      -8.4      4.594      9.157
REMARK  Name = 
REMARK  4 active torsions:
REMARK  status: ('A' for Active; 'I' for Inactive)
REMARK    1  A    between atoms: C_2  and  C_19
REMARK    2  A    between atoms: N_3  and  C_4
REMARK    3  A    between atoms: C_7  and  N_8
REMARK    4  A    between atoms: C_24  and  C_25
REMARK                            x       y       z     vdW  Elec       q    Type
REMARK                         _______ _______ _______ _____ _____    ______ ____
ROOT
ATOM      1  C   UNL     1       0.681  10.076  19.900  0.00  0.00    +0.000 A 
ATOM      2  C   UNL     1       1.138   9.727  18.632  0.00  0.00    +0.000 A 
ATOM      3  C   UNL     1       1.794   8.530  18.413  0.00  0.00    +0.000 A 
ATOM      4  C   UNL     1       2.010   7.642  19.467  0.00  0.00    +0.000 A 
ATOM      5  C   UNL     1       1.514   7.921  20.739  0.00  0.00    +0.000 A 
ATOM      6  C   UNL     1       0.862   9.157  20.953  0.00  0.00    +0.000 A 
ENDROOT
BRANCH   4   7
ATOM      7  N   UNL     1       2.786   6.503  19.146  0.00  0.00    +0.000 N 
ATOM      8  C   UNL     1       3.718   6.529  18.123  0.00  0.00    +0.000 A 
ATOM      9  N   UNL     1       3.737   5.419  17.428  0.00  0.00    +0.000 NA
ATOM     10  C   UNL     1       2.835   4.608  18.062  0.00  0.00    +0.000 A 
ATOM     11  C   UNL     1       2.355   3.356  17.655  0.00  0.00    +0.000 A 
ATOM     12  C   UNL     1       1.447   2.688  18.481  0.00  0.00    +0.000 A 
ATOM     13  C   UNL     1       1.056   3.238  19.703  0.00  0.00    +0.000 A 
ATOM     14  C   UNL     1       1.487   4.511  20.105  0.00  0.00    +0.000 A 
ATOM     15  C   UNL     1       2.348   5.192  19.235  0.00  0.00    +0.000 A 
ENDBRANCH   4   7
BRANCH   1  18
ATOM     16  O   UNL     1       1.955  12.468  20.997  0.00  0.00    +0.000 OA
ATOM     17  C   UNL     1       0.753  12.389  20.774  0.00  0.00    +0.000 C 
ATOM     18  N   UNL     1       0.091  11.341  20.157  0.00  0.00    +0.000 N 
ATOM     19  H   UNL     1      -0.885  11.443  19.921  0.00  0.00    +0.000 HD
BRANCH  17  20
ATOM     20  C   UNL     1      -0.012  13.605  21.145  0.00  0.00    +0.000 A 
ATOM     21  C   UNL     1      -0.530  13.585  22.460  0.00  0.00    +0.000 A 
ATOM     22  C   UNL     1      -1.367  14.594  22.927  0.00  0.00    +0.000 A 
ATOM     23  C   UNL     1      -1.686  15.652  22.090  0.00  0.00    +0.000 A 
ATOM     24  C   UNL     1      -1.196  15.676  20.782  0.00  0.00    +0.000 A 
ATOM     25  C   UNL     1      -0.380  14.639  20.273  0.00  0.00    +0.000 A 
BRANCH  25  26
ATOM     26  C   UNL     1      -0.045  14.704  18.807  0.00  0.00    +0.000 C 
ATOM     27  F   UNL     1      -0.561  13.724  18.029  0.00  0.00    +0.000 F 
ATOM     28  F   UNL     1      -0.460  15.872  18.238  0.00  0.00    +0.000 F 
ATOM     29  F   UNL     1       1.302  14.657  18.605  0.00  0.00    +0.000 F 
ENDBRANCH  25  26
ENDBRANCH  17  20
ENDBRANCH   1  18
TORSDOF 4
ENDMDL
