MODEL 1
REMARK VINA RESULT:      -8.7      0.000      0.000
REMARK  Name = 
REMARK  6 active torsions:
REMARK  status: ('A' for Active; 'I' for Inactive)
REMARK    1  A    between atoms: C_1  and  C_2
REMARK    2  A    between atoms: C_2  and  C_3
REMARK    3  A    between atoms: C_2  and  C_4
REMARK    4  A    between atoms: C_7  and  C_8
REMARK    5  A    between atoms: C_13  and  N_14
REMARK    6  A    between atoms: C_15  and  C_17
REMARK                            x       y       z     vdW  Elec       q    Type
REMARK                         _______ _______ _______ _____ _____    ______ ____
ROOT
ATOM      1  C   UNL     1       3.586   4.105  17.551  0.00  0.00    +0.000 A 
ATOM      2  C   UNL     1       3.746   2.699  17.527  0.00  0.00    +0.000 A 
ATOM      3  C   UNL     1       2.738   1.840  17.962  0.00  0.00    +0.000 A 
ATOM      4  C   UNL     1       1.539   2.371  18.403  0.00  0.00    +0.000 A 
ATOM      5  C   UNL     1       1.342   3.751  18.382  0.00  0.00    +0.000 A 
ATOM      6  C   UNL     1       2.350   4.646  17.974  0.00  0.00    +0.000 A 
ENDROOT
BRANCH   1  10
ATOM      7  C   UNL     1       6.512   6.104  17.170  0.00  0.00    +0.000 A 
ATOM      8  N   UNL     1       6.262   5.918  15.870  0.00  0.00    +0.000 NA
ATOM      9  N   UNL     1       5.150   5.177  15.919  0.00  0.00    +0.000 N 
ATOM     10  C   UNL     1       4.735   4.947  17.208  0.00  0.00    +0.000 A 
ATOM     11  N   UNL     1       5.598   5.528  18.023  0.00  0.00    +0.000 NA
ATOM     12  H   UNL     1       4.754   4.825  15.056  0.00  0.00    +0.000 HD
BRANCH   7  14
ATOM     13  C   UNL     1       7.605   8.311  17.576  0.00  0.00    +0.000 C 
ATOM     14  C   UNL     1       7.743   6.792  17.653  0.00  0.00    +0.000 C 
ATOM     15  C   UNL     1       8.072   6.344  19.076  0.00  0.00    +0.000 C 
ENDBRANCH   7  14
ENDBRANCH   1  10
BRANCH   6  16
ATOM     16  N   UNL     1       2.126   6.061  17.980  0.00  0.00    +0.000 N 
ATOM     17  C   UNL     1       2.259   6.869  19.107  0.00  0.00    +0.000 C 
ATOM     18  O   UNL     1       2.734   6.482  20.172  0.00  0.00    +0.000 OA
ATOM     19  H   UNL     1       1.950   6.475  17.069  0.00  0.00    +0.000 HD
BRANCH  17  20
ATOM     20  C   UNL     1       1.864   8.310  19.058  0.00  0.00    +0.000 A 
ATOM     21  C   UNL     1       2.094   9.191  17.986  0.00  0.00    +0.000 A 
ATOM     22  C   UNL     1       1.743  10.552  18.095  0.00  0.00    +0.000 A 
ATOM     23  C   UNL     1       1.139  11.003  19.261  0.00  0.00    +0.000 A 
ATOM     24  C   UNL     1       0.849  10.125  20.293  0.00  0.00    +0.000 A 
ATOM     25  C   UNL     1       1.209   8.795  20.211  0.00  0.00    +0.000 A 
ATOM     26  C   UNL     1       0.161  10.836  21.404  0.00  0.00    +0.000 C 
ATOM     27  N   UNL     1      -0.054  12.215  20.920  0.00  0.00    +0.000 NA
ATOM     28  C   UNL     1       0.738  12.380  19.679  0.00  0.00    +0.000 C 
ATOM     29  H   UNL     1       0.270  12.873  21.625  0.00  0.00    +0.000 HD
ENDBRANCH  17  20
ENDBRANCH   6  16
TORSDOF 4
ENDMDL
MODEL 2
REMARK VINA RESULT:      -8.5      1.978      4.287
REMARK  Name = 
REMARK  6 active torsions:
REMARK  status: ('A' for Active; 'I' for Inactive)
REMARK    1  A    between atoms: C_1  and  C_2
REMARK    2  A    between atoms: C_2  and  C_3
REMARK    3  A    between atoms: C_2  and  C_4
REMARK    4  A    between atoms: C_7  and  C_8
REMARK    5  A    between atoms: C_13  and  N_14
REMARK    6  A    between atoms: C_15  and  C_17
REMARK                            x       y       z     vdW  Elec       q    Type
REMARK                         _______ _______ _______ _____ _____    ______ ____
ROOT
ATOM      1  C   UNL     1       4.954   4.385  17.259  0.00  0.00    +0.000 A 
ATOM      2  C   UNL     1       5.648   3.631  16.282  0.00  0.00    +0.000 A 
ATOM      3  C   UNL     1       6.088   4.206  15.091  0.00  0.00    +0.000 A 
ATOM      4  C   UNL     1       5.869   5.553  14.868  0.00  0.00    +0.000 A 
ATOM      5  C   UNL     1       5.237   6.324  15.842  0.00  0.00    +0.000 A 
ATOM      6  C   UNL     1       4.757   5.768  17.043  0.00  0.00    +0.000 A 
ENDROOT
BRANCH   1  10
ATOM      7  C   UNL     1       3.190   2.736  19.881  0.00  0.00    +0.000 A 
ATOM      8  N   UNL     1       4.419   2.340  20.228  0.00  0.00    +0.000 NA
ATOM      9  N   UNL     1       5.162   2.938  19.289  0.00  0.00    +0.000 N 
ATOM     10  C   UNL     1       4.402   3.685  18.423  0.00  0.00    +0.000 A 
ATOM     11  N   UNL     1       3.137   3.563  18.781  0.00  0.00    +0.000 NA
ATOM     12  H   UNL     1       6.159   2.762  19.266  0.00  0.00    +0.000 HD
BRANCH   7  14
ATOM     13  C   UNL     1       1.855   2.781  21.989  0.00  0.00    +0.000 C 
ATOM     14  C   UNL     1       1.968   2.230  20.569  0.00  0.00    +0.000 C 
ATOM     15  C   UNL     1       0.724   2.572  19.750  0.00  0.00    +0.000 C 
ENDBRANCH   7  14
ENDBRANCH   1  10
BRANCH   6  16
ATOM     16  N   UNL     1       4.095   6.581  18.020  0.00  0.00    +0.000 N 
ATOM     17  C   UNL     1       2.713   6.734  18.102  0.00  0.00    +0.000 C 
ATOM     18  O   UNL     1       1.912   6.067  17.452  0.00  0.00    +0.000 OA
ATOM     19  H   UNL     1       4.699   6.980  18.732  0.00  0.00    +0.000 HD
BRANCH  17  20
ATOM     20  C   UNL     1       2.114   7.716  19.058  0.00  0.00    +0.000 A 
ATOM     21  C   UNL     1       1.888   7.497  20.428  0.00  0.00    +0.000 A 
ATOM     22  C   UNL     1       1.241   8.477  21.208  0.00  0.00    +0.000 A 
ATOM     23  C   UNL     1       0.860   9.673  20.613  0.00  0.00    +0.000 A 
ATOM     24  C   UNL     1       1.142   9.919  19.279  0.00  0.00    +0.000 A 
ATOM     25  C   UNL     1       1.752   8.960  18.496  0.00  0.00    +0.000 A 
ATOM     26  C   UNL     1       0.681  11.280  18.892  0.00  0.00    +0.000 C 
ATOM     27  N   UNL     1       0.190  11.902  20.139  0.00  0.00    +0.000 NA
ATOM     28  C   UNL     1       0.102  10.836  21.164  0.00  0.00    +0.000 C 
ATOM     29  H   UNL     1      -0.732  12.299  19.976  0.00  0.00    +0.000 HD
ENDBRANCH  17  20
ENDBRANCH   6  16
TORSDOF 4
ENDMDL
MODEL 3
REMARK VINA RESULT:      -8.2      0.865      1.507
REMARK  Name = 
REMARK  6 active torsions:
REMARK  status: ('A' for Active; 'I' for Inactive)
REMARK    1  A    between atoms: C_1  and  C_2
REMARK    2  A    between atoms: C_2  and  C_3
REMARK    3  A    between atoms: C_2  and  C_4
REMARK    4  A    between atoms: C_7  and  C_8
REMARK    5  A    between atoms: C_13  and  N_14
REMARK    6  A    between atoms: C_15  and  C_17
REMARK                            x       y       z     vdW  Elec       q    Type
REMARK                         _______ _______ _______ _____ _____    ______ ____
ROOT
ATOM      1  C   UNL     1       3.500   4.371  17.705  0.00  0.00    +0.000 A 
ATOM      2  C   UNL     1       3.640   3.024  17.293  0.00  0.00    +0.000 A 
ATOM      3  C   UNL     1       2.702   2.052  17.637  0.00  0.00    +0.000 A 
ATOM      4  C   UNL     1       1.591   2.415  18.375  0.00  0.00    +0.000 A 
ATOM      5  C   UNL     1       1.406   3.747  18.743  0.00  0.00    +0.000 A 
ATOM      6  C   UNL     1       2.349   4.747  18.435  0.00  0.00    +0.000 A 
ENDROOT
BRANCH   1  10
ATOM      7  C   UNL     1       6.384   6.440  17.380  0.00  0.00    +0.000 A 
ATOM      8  N   UNL     1       5.828   6.736  16.201  0.00  0.00    +0.000 NA
ATOM      9  N   UNL     1       4.711   6.002  16.246  0.00  0.00    +0.000 N 
ATOM     10  C   UNL     1       4.592   5.307  17.424  0.00  0.00    +0.000 A 
ATOM     11  N   UNL     1       5.657   5.569  18.161  0.00  0.00    +0.000 NA
ATOM     12  H   UNL     1       4.103   5.982  15.436  0.00  0.00    +0.000 HD
BRANCH   7  14
ATOM     13  C   UNL     1       7.808   8.457  17.743  0.00  0.00    +0.000 C 
ATOM     14  C   UNL     1       7.737   6.931  17.767  0.00  0.00    +0.000 C 
ATOM     15  C   UNL     1       8.121   6.388  19.144  0.00  0.00    +0.000 C 
ENDBRANCH   7  14
ENDBRANCH   1  10
BRANCH   6  16
ATOM     16  N   UNL     1       2.143   6.105  18.841  0.00  0.00    +0.000 N 
ATOM     17  C   UNL     1       1.879   6.498  20.152  0.00  0.00    +0.000 C 
ATOM     18  O   UNL     1       1.952   5.743  21.118  0.00  0.00    +0.000 OA
ATOM     19  H   UNL     1       2.297   6.801  18.118  0.00  0.00    +0.000 HD
BRANCH  17  20
ATOM     20  C   UNL     1       1.532   7.918  20.463  0.00  0.00    +0.000 A 
ATOM     21  C   UNL     1       1.209   8.427  21.733  0.00  0.00    +0.000 A 
ATOM     22  C   UNL     1       0.822   9.774  21.883  0.00  0.00    +0.000 A 
ATOM     23  C   UNL     1       0.795  10.599  20.766  0.00  0.00    +0.000 A 
ATOM     24  C   UNL     1       1.177  10.118  19.524  0.00  0.00    +0.000 A 
ATOM     25  C   UNL     1       1.535   8.796  19.357  0.00  0.00    +0.000 A 
ATOM     26  C   UNL     1       1.111  11.200  18.504  0.00  0.00    +0.000 C 
ATOM     27  N   UNL     1       0.761  12.427  19.250  0.00  0.00    +0.000 NA
ATOM     28  C   UNL     1       0.357  12.019  20.615  0.00  0.00    +0.000 C 
ATOM     29  H   UNL     1      -0.015  12.893  18.785  0.00  0.00    +0.000 HD
ENDBRANCH  17  20
ENDBRANCH   6  16
TORSDOF 4
ENDMDL
MODEL 4
REMARK VINA RESULT:      -8.1      0.905      1.188
REMARK  Name = 
REMARK  6 active torsions:
REMARK  status: ('A' for Active; 'I' for Inactive)
REMARK    1  A    between atoms: C_1  and  C_2
REMARK    2  A    between atoms: C_2  and  C_3
REMARK    3  A    between atoms: C_2  and  C_4
REMARK    4  A    between atoms: C_7  and  C_8
REMARK    5  A    between atoms: C_13  and  N_14
REMARK    6  A    between atoms: C_15  and  C_17
REMARK                            x       y       z     vdW  Elec       q    Type
REMARK                         _______ _______ _______ _____ _____    ______ ____
ROOT
ATOM      1  C   UNL     1       3.560   3.581  18.348  0.00  0.00    +0.000 A 
ATOM      2  C   UNL     1       3.560   2.170  18.458  0.00  0.00    +0.000 A 
ATOM      3  C   UNL     1       2.381   1.452  18.654  0.00  0.00    +0.000 A 
ATOM      4  C   UNL     1       1.178   2.130  18.716  0.00  0.00    +0.000 A 
ATOM      5  C   UNL     1       1.151   3.514  18.554  0.00  0.00    +0.000 A 
ATOM      6  C   UNL     1       2.327   4.270  18.381  0.00  0.00    +0.000 A 
ENDROOT
BRANCH   1  10
ATOM      7  C   UNL     1       6.456   5.624  17.967  0.00  0.00    +0.000 A 
ATOM      8  N   UNL     1       6.968   4.767  18.855  0.00  0.00    +0.000 NA
ATOM      9  N   UNL     1       5.936   3.938  19.047  0.00  0.00    +0.000 N 
ATOM     10  C   UNL     1       4.848   4.278  18.280  0.00  0.00    +0.000 A 
ATOM     11  N   UNL     1       5.160   5.358  17.586  0.00  0.00    +0.000 NA
ATOM     12  H   UNL     1       6.017   3.202  19.737  0.00  0.00    +0.000 HD
BRANCH   7  14
ATOM     13  C   UNL     1       6.246   7.977  17.161  0.00  0.00    +0.000 C 
ATOM     14  C   UNL     1       7.198   6.834  17.510  0.00  0.00    +0.000 C 
ATOM     15  C   UNL     1       8.205   7.267  18.575  0.00  0.00    +0.000 C 
ENDBRANCH   7  14
ENDBRANCH   1  10
BRANCH   6  16
ATOM     16  N   UNL     1       2.273   5.695  18.235  0.00  0.00    +0.000 N 
ATOM     17  C   UNL     1       2.099   6.583  19.294  0.00  0.00    +0.000 C 
ATOM     18  O   UNL     1       2.135   6.251  20.476  0.00  0.00    +0.000 OA
ATOM     19  H   UNL     1       2.467   6.042  17.300  0.00  0.00    +0.000 HD
BRANCH  17  20
ATOM     20  C   UNL     1       1.908   8.043  19.036  0.00  0.00    +0.000 A 
ATOM     21  C   UNL     1       2.334   8.740  17.891  0.00  0.00    +0.000 A 
ATOM     22  C   UNL     1       2.162  10.136  17.802  0.00  0.00    +0.000 A 
ATOM     23  C   UNL     1       1.538  10.808  18.845  0.00  0.00    +0.000 A 
ATOM     24  C   UNL     1       1.055  10.116  19.944  0.00  0.00    +0.000 A 
ATOM     25  C   UNL     1       1.238   8.753  20.057  0.00  0.00    +0.000 A 
ATOM     26  C   UNL     1       0.388  11.047  20.893  0.00  0.00    +0.000 C 
ATOM     27  N   UNL     1       0.398  12.366  20.229  0.00  0.00    +0.000 NA
ATOM     28  C   UNL     1       1.296  12.267  19.056  0.00  0.00    +0.000 C 
ATOM     29  H   UNL     1       0.753  13.066  20.877  0.00  0.00    +0.000 HD
ENDBRANCH  17  20
ENDBRANCH   6  16
TORSDOF 4
ENDMDL
MODEL 5
REMARK VINA RESULT:      -8.0      2.194      4.048
REMARK  Name = 
REMARK  6 active torsions:
REMARK  status: ('A' for Active; 'I' for Inactive)
REMARK    1  A    between atoms: C_1  and  C_2
REMARK    2  A    between atoms: C_2  and  C_3
REMARK    3  A    between atoms: C_2  and  C_4
REMARK    4  A    between atoms: C_7  and  C_8
REMARK    5  A    between atoms: C_13  and  N_14
REMARK    6  A    between atoms: C_15  and  C_17
REMARK                            x       y       z     vdW  Elec       q    Type
REMARK                         _______ _______ _______ _____ _____    ______ ____
ROOT
ATOM      1  C   UNL     1       5.030   4.580  17.328  0.00  0.00    +0.000 A 
ATOM      2  C   UNL     1       5.763   3.687  16.511  0.00  0.00    +0.000 A 
ATOM      3  C   UNL     1       6.215   4.055  15.245  0.00  0.00    +0.000 A 
ATOM      4  C   UNL     1       5.966   5.335  14.784  0.00  0.00    +0.000 A 
ATOM      5  C   UNL     1       5.294   6.247  15.596  0.00  0.00    +0.000 A 
ATOM      6  C   UNL     1       4.802   5.897  16.867  0.00  0.00    +0.000 A 
ENDROOT
BRANCH   1  10
ATOM      7  C   UNL     1       3.295   3.637  20.295  0.00  0.00    +0.000 A 
ATOM      8  N   UNL     1       4.214   2.666  20.320  0.00  0.00    +0.000 NA
ATOM      9  N   UNL     1       4.932   2.958  19.230  0.00  0.00    +0.000 N 
ATOM     10  C   UNL     1       4.470   4.080  18.587  0.00  0.00    +0.000 A 
ATOM     11  N   UNL     1       3.419   4.526  19.251  0.00  0.00    +0.000 NA
ATOM     12  H   UNL     1       5.683   2.336  18.955  0.00  0.00    +0.000 HD
BRANCH   7  14
ATOM     13  C   UNL     1       0.908   4.286  20.632  0.00  0.00    +0.000 C 
ATOM     14  C   UNL     1       2.162   3.685  21.264  0.00  0.00    +0.000 C 
ATOM     15  C   UNL     1       1.881   2.287  21.814  0.00  0.00    +0.000 C 
ENDBRANCH   7  14
ENDBRANCH   1  10
BRANCH   6  16
ATOM     16  N   UNL     1       4.098   6.850  17.674  0.00  0.00    +0.000 N 
ATOM     17  C   UNL     1       2.710   6.927  17.761  0.00  0.00    +0.000 C 
ATOM     18  O   UNL     1       1.949   6.090  17.283  0.00  0.00    +0.000 OA
ATOM     19  H   UNL     1       4.683   7.426  18.273  0.00  0.00    +0.000 HD
BRANCH  17  20
ATOM     20  C   UNL     1       2.057   8.044  18.510  0.00  0.00    +0.000 A 
ATOM     21  C   UNL     1       1.585   9.245  17.951  0.00  0.00    +0.000 A 
ATOM     22  C   UNL     1       1.059  10.257  18.779  0.00  0.00    +0.000 A 
ATOM     23  C   UNL     1       0.983  10.039  20.149  0.00  0.00    +0.000 A 
ATOM     24  C   UNL     1       1.384   8.831  20.695  0.00  0.00    +0.000 A 
ATOM     25  C   UNL     1       1.924   7.840  19.901  0.00  0.00    +0.000 A 
ATOM     26  C   UNL     1       1.158   8.824  22.166  0.00  0.00    +0.000 C 
ATOM     27  N   UNL     1       0.473  10.098  22.468  0.00  0.00    +0.000 NA
ATOM     28  C   UNL     1       0.553  10.945  21.256  0.00  0.00    +0.000 C 
ATOM     29  H   UNL     1       0.946  10.559  23.242  0.00  0.00    +0.000 HD
ENDBRANCH  17  20
ENDBRANCH   6  16
TORSDOF 4
ENDMDL
MODEL 6
REMARK VINA RESULT:      -8.0      2.071      4.448
REMARK  Name = 
REMARK  6 active torsions:
REMARK  status: ('A' for Active; 'I' for Inactive)
REMARK    1  A    between atoms: C_1  and  C_2
REMARK    2  A    between atoms: C_2  and  C_3
REMARK    3  A    between atoms: C_2  and  C_4
REMARK    4  A    between atoms: C_7  and  C_8
REMARK    5  A    between atoms: C_13  and  N_14
REMARK    6  A    between atoms: C_15  and  C_17
REMARK                            x       y       z     vdW  Elec       q    Type
REMARK                         _______ _______ _______ _____ _____    ______ ____
ROOT
ATOM      1  C   UNL     1       5.463   4.706  18.025  0.00  0.00    +0.000 A 
ATOM      2  C   UNL     1       6.607   4.127  17.426  0.00  0.00    +0.000 A 
ATOM      3  C   UNL     1       7.391   4.832  16.514  0.00  0.00    +0.000 A 
ATOM      4  C   UNL     1       7.061   6.139  16.206  0.00  0.00    +0.000 A 
ATOM      5  C   UNL     1       5.970   6.745  16.828  0.00  0.00    +0.000 A 
ATOM      6  C   UNL     1       5.144   6.051  17.732  0.00  0.00    +0.000 A 
ENDROOT
BRANCH   1  10
ATOM      7  C   UNL     1       3.029   2.818  19.818  0.00  0.00    +0.000 A 
ATOM      8  N   UNL     1       4.108   2.162  20.255  0.00  0.00    +0.000 NA
ATOM      9  N   UNL     1       5.089   2.827  19.633  0.00  0.00    +0.000 N 
ATOM     10  C   UNL     1       4.611   3.861  18.867  0.00  0.00    +0.000 A 
ATOM     11  N   UNL     1       3.294   3.868  18.967  0.00  0.00    +0.000 NA
ATOM     12  H   UNL     1       6.043   2.502  19.733  0.00  0.00    +0.000 HD
BRANCH   7  14
ATOM     13  C   UNL     1       1.177   2.931  21.488  0.00  0.00    +0.000 C 
ATOM     14  C   UNL     1       1.643   2.375  20.144  0.00  0.00    +0.000 C 
ATOM     15  C   UNL     1       0.684   2.779  19.024  0.00  0.00    +0.000 C 
ENDBRANCH   7  14
ENDBRANCH   1  10
BRANCH   6  16
ATOM     16  N   UNL     1       4.018   6.693  18.343  0.00  0.00    +0.000 N 
ATOM     17  C   UNL     1       3.207   7.627  17.702  0.00  0.00    +0.000 C 
ATOM     18  O   UNL     1       3.274   7.878  16.501  0.00  0.00    +0.000 OA
ATOM     19  H   UNL     1       3.775   6.352  19.269  0.00  0.00    +0.000 HD
BRANCH  17  20
ATOM     20  C   UNL     1       2.144   8.355  18.458  0.00  0.00    +0.000 A 
ATOM     21  C   UNL     1       1.276   9.328  17.930  0.00  0.00    +0.000 A 
ATOM     22  C   UNL     1       0.366  10.002  18.768  0.00  0.00    +0.000 A 
ATOM     23  C   UNL     1       0.314   9.669  20.116  0.00  0.00    +0.000 A 
ATOM     24  C   UNL     1       1.119   8.664  20.627  0.00  0.00    +0.000 A 
ATOM     25  C   UNL     1       2.033   8.013  19.824  0.00  0.00    +0.000 A 
ATOM     26  C   UNL     1       0.844   8.463  22.076  0.00  0.00    +0.000 C 
ATOM     27  N   UNL     1      -0.288   9.358  22.392  0.00  0.00    +0.000 NA
ATOM     28  C   UNL     1      -0.480  10.261  21.234  0.00  0.00    +0.000 C 
ATOM     29  H   UNL     1      -0.064   9.903  23.222  0.00  0.00    +0.000 HD
ENDBRANCH  17  20
ENDBRANCH   6  16
TORSDOF 4
ENDMDL
MODEL 7
REMARK VINA RESULT:      -7.8      1.408      1.506
REMARK  Name = 
REMARK  6 active torsions:
REMARK  status: ('A' for Active; 'I' for Inactive)
REMARK    1  A    between atoms: C_1  and  C_2
REMARK    2  A    between atoms: C_2  and  C_3
REMARK    3  A    between atoms: C_2  and  C_4
REMARK    4  A    between atoms: C_7  and  C_8
REMARK    5  A    between atoms: C_13  and  N_14
REMARK    6  A    between atoms: C_15  and  C_17
REMARK                            x       y       z     vdW  Elec       q    Type
REMARK                         _______ _______ _______ _____ _____    ______ ____
ROOT
ATOM      1  C   UNL     1       3.230   3.880  19.296  0.00  0.00    +0.000 A 
ATOM      2  C   UNL     1       3.157   2.527  19.705  0.00  0.00    +0.000 A 
ATOM      3  C   UNL     1       2.108   2.056  20.493  0.00  0.00    +0.000 A 
ATOM      4  C   UNL     1       1.097   2.924  20.863  0.00  0.00    +0.000 A 
ATOM      5  C   UNL     1       1.122   4.247  20.423  0.00  0.00    +0.000 A 
ATOM      6  C   UNL     1       2.181   4.759  19.650  0.00  0.00    +0.000 A 
ENDROOT
BRANCH   1  10
ATOM      7  C   UNL     1       6.279   5.174  17.980  0.00  0.00    +0.000 A 
ATOM      8  N   UNL     1       5.999   4.342  16.972  0.00  0.00    +0.000 NA
ATOM      9  N   UNL     1       4.839   3.815  17.381  0.00  0.00    +0.000 N 
ATOM     10  C   UNL     1       4.429   4.334  18.585  0.00  0.00    +0.000 A 
ATOM     11  N   UNL     1       5.341   5.201  18.988  0.00  0.00    +0.000 NA
ATOM     12  H   UNL     1       4.408   3.085  16.828  0.00  0.00    +0.000 HD
BRANCH   7  14
ATOM     13  C   UNL     1       7.390   7.374  17.583  0.00  0.00    +0.000 C 
ATOM     14  C   UNL     1       7.562   5.931  18.053  0.00  0.00    +0.000 C 
ATOM     15  C   UNL     1       8.121   5.882  19.474  0.00  0.00    +0.000 C 
ENDBRANCH   7  14
ENDBRANCH   1  10
BRANCH   6  16
ATOM     16  N   UNL     1       2.190   6.128  19.227  0.00  0.00    +0.000 N 
ATOM     17  C   UNL     1       1.758   7.193  20.015  0.00  0.00    +0.000 C 
ATOM     18  O   UNL     1       1.474   7.089  21.205  0.00  0.00    +0.000 OA
ATOM     19  H   UNL     1       2.630   6.300  18.327  0.00  0.00    +0.000 HD
BRANCH  17  20
ATOM     20  C   UNL     1       1.664   8.571  19.443  0.00  0.00    +0.000 A 
ATOM     21  C   UNL     1       2.128   8.970  18.177  0.00  0.00    +0.000 A 
ATOM     22  C   UNL     1       2.052  10.322  17.785  0.00  0.00    +0.000 A 
ATOM     23  C   UNL     1       1.483  11.247  18.651  0.00  0.00    +0.000 A 
ATOM     24  C   UNL     1       0.963  10.845  19.871  0.00  0.00    +0.000 A 
ATOM     25  C   UNL     1       1.053   9.530  20.280  0.00  0.00    +0.000 A 
ATOM     26  C   UNL     1       0.368  12.004  20.590  0.00  0.00    +0.000 C 
ATOM     27  N   UNL     1       0.463  13.143  19.653  0.00  0.00    +0.000 NA
ATOM     28  C   UNL     1       1.343  12.729  18.537  0.00  0.00    +0.000 C 
ATOM     29  H   UNL     1       0.871  13.942  20.136  0.00  0.00    +0.000 HD
ENDBRANCH  17  20
ENDBRANCH   6  16
TORSDOF 4
ENDMDL
MODEL 8
REMARK VINA RESULT:      -7.8      2.279      4.265
REMARK  Name = 
REMARK  6 active torsions:
REMARK  status: ('A' for Active; 'I' for Inactive)
REMARK    1  A    between atoms: C_1  and  C_2
REMARK    2  A    between atoms: C_2  and  C_3
REMARK    3  A    between atoms: C_2  and  C_4
REMARK    4  A    between atoms: C_7  and  C_8
REMARK    5  A    between atoms: C_13  and  N_14
REMARK    6  A    between atoms: C_15  and  C_17
REMARK                            x       y       z     vdW  Elec       q    Type
REMARK                         _______ _______ _______ _____ _____    ______ ____
ROOT
ATOM      1  C   UNL     1       5.074   4.277  17.077  0.00  0.00    +0.000 A 
ATOM      2  C   UNL     1       6.146   3.534  16.529  0.00  0.00    +0.000 A 
ATOM      3  C   UNL     1       6.758   3.907  15.333  0.00  0.00    +0.000 A 
ATOM      4  C   UNL     1       6.327   5.045  14.678  0.00  0.00    +0.000 A 
ATOM      5  C   UNL     1       5.309   5.821  15.231  0.00  0.00    +0.000 A 
ATOM      6  C   UNL     1       4.653   5.457  16.423  0.00  0.00    +0.000 A 
ENDROOT
BRANCH   1  10
ATOM      7  C   UNL     1       3.013   3.139  19.754  0.00  0.00    +0.000 A 
ATOM      8  N   UNL     1       4.124   2.483  20.104  0.00  0.00    +0.000 NA
ATOM      9  N   UNL     1       4.971   2.872  19.145  0.00  0.00    +0.000 N 
ATOM     10  C   UNL     1       4.391   3.750  18.263  0.00  0.00    +0.000 A 
ATOM     11  N   UNL     1       3.135   3.929  18.632  0.00  0.00    +0.000 NA
ATOM     12  H   UNL     1       5.902   2.473  19.120  0.00  0.00    +0.000 HD
BRANCH   7  14
ATOM     13  C   UNL     1       1.929   2.553  21.924  0.00  0.00    +0.000 C 
ATOM     14  C   UNL     1       1.716   2.942  20.463  0.00  0.00    +0.000 C 
ATOM     15  C   UNL     1       0.859   4.203  20.353  0.00  0.00    +0.000 C 
ENDBRANCH   7  14
ENDBRANCH   1  10
BRANCH   6  16
ATOM     16  N   UNL     1       3.597   6.263  16.960  0.00  0.00    +0.000 N 
ATOM     17  C   UNL     1       3.798   7.466  17.634  0.00  0.00    +0.000 C 
ATOM     18  O   UNL     1       4.883   8.039  17.700  0.00  0.00    +0.000 OA
ATOM     19  H   UNL     1       2.657   5.951  16.735  0.00  0.00    +0.000 HD
BRANCH  17  20
ATOM     20  C   UNL     1       2.653   8.168  18.289  0.00  0.00    +0.000 A 
ATOM     21  C   UNL     1       1.915   9.231  17.738  0.00  0.00    +0.000 A 
ATOM     22  C   UNL     1       0.905   9.863  18.491  0.00  0.00    +0.000 A 
ATOM     23  C   UNL     1       0.627   9.402  19.771  0.00  0.00    +0.000 A 
ATOM     24  C   UNL     1       1.306   8.312  20.293  0.00  0.00    +0.000 A 
ATOM     25  C   UNL     1       2.314   7.698  19.577  0.00  0.00    +0.000 A 
ATOM     26  C   UNL     1       0.796   7.982  21.651  0.00  0.00    +0.000 C 
ATOM     27  N   UNL     1      -0.341   8.897  21.881  0.00  0.00    +0.000 NA
ATOM     28  C   UNL     1      -0.315   9.919  20.809  0.00  0.00    +0.000 C 
ATOM     29  H   UNL     1      -0.234   9.346  22.788  0.00  0.00    +0.000 HD
ENDBRANCH  17  20
ENDBRANCH   6  16
TORSDOF 4
ENDMDL
MODEL 9
REMARK VINA RESULT:      -7.8      1.763      2.205
REMARK  Name = 
REMARK  6 active torsions:
REMARK  status: ('A' for Active; 'I' for Inactive)
REMARK    1  A    between atoms: C_1  and  C_2
REMARK    2  A    between atoms: C_2  and  C_3
REMARK    3  A    between atoms: C_2  and  C_4
REMARK    4  A    between atoms: C_7  and  C_8
REMARK    5  A    between atoms: C_13  and  N_14
REMARK    6  A    between atoms: C_15  and  C_17
REMARK                            x       y       z     vdW  Elec       q    Type
REMARK                         _______ _______ _______ _____ _____    ______ ____
ROOT
ATOM      1  C   UNL     1       3.342   3.719  19.571  0.00  0.00    +0.000 A 
ATOM      2  C   UNL     1       3.285   2.385  20.042  0.00  0.00    +0.000 A 
ATOM      3  C   UNL     1       2.281   1.958  20.910  0.00  0.00    +0.000 A 
ATOM      4  C   UNL     1       1.299   2.850  21.301  0.00  0.00    +0.000 A 
ATOM      5  C   UNL     1       1.307   4.152  20.803  0.00  0.00    +0.000 A 
ATOM      6  C   UNL     1       2.322   4.621  19.947  0.00  0.00    +0.000 A 
ENDROOT
BRANCH   1  10
ATOM      7  C   UNL     1       5.851   4.967  17.368  0.00  0.00    +0.000 A 
ATOM      8  N   UNL     1       6.671   4.528  18.328  0.00  0.00    +0.000 NA
ATOM      9  N   UNL     1       5.799   4.019  19.206  0.00  0.00    +0.000 N 
ATOM     10  C   UNL     1       4.500   4.130  18.773  0.00  0.00    +0.000 A 
ATOM     11  N   UNL     1       4.513   4.740  17.601  0.00  0.00    +0.000 NA
ATOM     12  H   UNL     1       6.142   3.658  20.088  0.00  0.00    +0.000 HD
BRANCH   7  14
ATOM     13  C   UNL     1       6.963   4.819  15.139  0.00  0.00    +0.000 C 
ATOM     14  C   UNL     1       6.345   5.737  16.191  0.00  0.00    +0.000 C 
ATOM     15  C   UNL     1       5.211   6.569  15.593  0.00  0.00    +0.000 C 
ENDBRANCH   7  14
ENDBRANCH   1  10
BRANCH   6  16
ATOM     16  N   UNL     1       2.315   5.971  19.465  0.00  0.00    +0.000 N 
ATOM     17  C   UNL     1       1.775   7.048  20.164  0.00  0.00    +0.000 C 
ATOM     18  O   UNL     1       1.394   6.982  21.330  0.00  0.00    +0.000 OA
ATOM     19  H   UNL     1       2.823   6.124  18.599  0.00  0.00    +0.000 HD
BRANCH  17  20
ATOM     20  C   UNL     1       1.678   8.396  19.525  0.00  0.00    +0.000 A 
ATOM     21  C   UNL     1       2.181   8.745  18.259  0.00  0.00    +0.000 A 
ATOM     22  C   UNL     1       2.096  10.075  17.801  0.00  0.00    +0.000 A 
ATOM     23  C   UNL     1       1.479  11.028  18.601  0.00  0.00    +0.000 A 
ATOM     24  C   UNL     1       0.922  10.674  19.820  0.00  0.00    +0.000 A 
ATOM     25  C   UNL     1       1.020   9.381  20.293  0.00  0.00    +0.000 A 
ATOM     26  C   UNL     1       0.280  11.853  20.461  0.00  0.00    +0.000 C 
ATOM     27  N   UNL     1       0.390  12.949  19.476  0.00  0.00    +0.000 NA
ATOM     28  C   UNL     1       1.318  12.501  18.412  0.00  0.00    +0.000 C 
ATOM     29  H   UNL     1       0.765  13.777  19.934  0.00  0.00    +0.000 HD
ENDBRANCH  17  20
ENDBRANCH   6  16
TORSDOF 4
ENDMDL
