MODEL 1
REMARK VINA RESULT:      -9.1      0.000      0.000
REMARK  Name = 
REMARK  4 active torsions:
REMARK  status: ('A' for Active; 'I' for Inactive)
REMARK    1  A    between atoms: C_2  and  C_3
REMARK    2  A    between atoms: C_3  and  C_4
REMARK    3  A    between atoms: N_15  and  C_16
REMARK    4  A    between atoms: C_16  and  C_17
REMARK                            x       y       z     vdW  Elec       q    Type
REMARK                         _______ _______ _______ _____ _____    ______ ____
ROOT
ATOM      1  O   UNL     1       8.142   6.945  18.804  0.00  0.00    +0.000 OA
ATOM      2  C   UNL     1       7.903   7.689  17.855  0.00  0.00    +0.000 C 
ATOM      3  N   UNL     1       8.260   9.018  17.827  0.00  0.00    +0.000 N 
ATOM      4  H   UNL     1       8.130   9.541  16.968  0.00  0.00    +0.000 HD
ENDROOT
BRANCH   2   5
ATOM      5  C   UNL     1       7.164   7.197  16.619  0.00  0.00    +0.000 C 
BRANCH   5   6
ATOM      6  C   UNL     1       6.181   6.118  16.965  0.00  0.00    +0.000 A 
ATOM      7  C   UNL     1       4.896   6.352  17.298  0.00  0.00    +0.000 A 
ATOM      8  C   UNL     1       3.976   5.254  17.577  0.00  0.00    +0.000 A 
ATOM      9  C   UNL     1       2.641   5.485  17.921  0.00  0.00    +0.000 A 
ATOM     10  C   UNL     1       1.786   4.408  18.171  0.00  0.00    +0.000 A 
ATOM     11  C   UNL     1       2.259   3.099  18.075  0.00  0.00    +0.000 A 
ATOM     12  C   UNL     1       3.592   2.860  17.732  0.00  0.00    +0.000 A 
ATOM     13  C   UNL     1       4.442   3.936  17.481  0.00  0.00    +0.000 A 
ATOM     14  N   UNL     1       5.778   3.710  17.125  0.00  0.00    +0.000 N 
ATOM     15  C   UNL     1       6.675   4.711  16.861  0.00  0.00    +0.000 A 
ATOM     16  O   UNL     1       7.835   4.471  16.535  0.00  0.00    +0.000 OA
ATOM     17  H   UNL     1       6.128   2.766  17.047  0.00  0.00    +0.000 HD
ENDBRANCH   5   6
ENDBRANCH   2   5
BRANCH   3  18
ATOM     18  C   UNL     1       8.924   9.673  18.937  0.00  0.00    +0.000 C 
BRANCH  18  19
ATOM     19  C   UNL     1       9.408  11.044  18.556  0.00  0.00    +0.000 A 
ATOM     20  C   UNL     1      10.588  11.219  17.840  0.00  0.00    +0.000 A 
ATOM     21  C   UNL     1      10.937  12.504  17.462  0.00  0.00    +0.000 A 
ATOM     22  N   UNL     1      10.201  13.608  17.735  0.00  0.00    +0.000 NA
ATOM     23  C   UNL     1       9.068  13.455  18.452  0.00  0.00    +0.000 A 
ATOM     24  N   UNL     1       8.282  14.559  18.735  0.00  0.00    +0.000 N 
ATOM     25  C   UNL     1       8.246  15.674  17.794  0.00  0.00    +0.000 C 
ATOM     26  C   UNL     1       8.872  16.935  18.384  0.00  0.00    +0.000 C 
ATOM     27  C   UNL     1       8.312  17.244  19.771  0.00  0.00    +0.000 C 
ATOM     28  C   UNL     1       8.469  16.039  20.690  0.00  0.00    +0.000 C 
ATOM     29  C   UNL     1       7.815  14.791  20.096  0.00  0.00    +0.000 C 
ATOM     30  C   UNL     1       8.657  12.185  18.870  0.00  0.00    +0.000 A 
ENDBRANCH  18  19
ENDBRANCH   3  18
TORSDOF 4
ENDMDL
MODEL 2
REMARK VINA RESULT:      -8.9      1.750      2.097
REMARK  Name = 
REMARK  4 active torsions:
REMARK  status: ('A' for Active; 'I' for Inactive)
REMARK    1  A    between atoms: C_2  and  C_3
REMARK    2  A    between atoms: C_3  and  C_4
REMARK    3  A    between atoms: N_15  and  C_16
REMARK    4  A    between atoms: C_16  and  C_17
REMARK                            x       y       z     vdW  Elec       q    Type
REMARK                         _______ _______ _______ _____ _____    ______ ____
ROOT
ATOM      1  O   UNL     1       7.469   7.984  16.847  0.00  0.00    +0.000 OA
ATOM      2  C   UNL     1       7.982   7.896  17.960  0.00  0.00    +0.000 C 
ATOM      3  N   UNL     1       8.619   8.943  18.585  0.00  0.00    +0.000 N 
ATOM      4  H   UNL     1       8.920   8.828  19.547  0.00  0.00    +0.000 HD
ENDROOT
BRANCH   2   5
ATOM      5  C   UNL     1       7.968   6.592  18.745  0.00  0.00    +0.000 C 
BRANCH   5   6
ATOM      6  C   UNL     1       6.767   5.762  18.403  0.00  0.00    +0.000 A 
ATOM      7  C   UNL     1       5.509   6.074  18.773  0.00  0.00    +0.000 A 
ATOM      8  C   UNL     1       4.376   5.250  18.366  0.00  0.00    +0.000 A 
ATOM      9  C   UNL     1       3.066   5.566  18.742  0.00  0.00    +0.000 A 
ATOM     10  C   UNL     1       2.004   4.758  18.325  0.00  0.00    +0.000 A 
ATOM     11  C   UNL     1       2.244   3.638  17.529  0.00  0.00    +0.000 A 
ATOM     12  C   UNL     1       3.550   3.316  17.149  0.00  0.00    +0.000 A 
ATOM     13  C   UNL     1       4.607   4.124  17.565  0.00  0.00    +0.000 A 
ATOM     14  N   UNL     1       5.920   3.819  17.182  0.00  0.00    +0.000 N 
ATOM     15  C   UNL     1       7.011   4.561  17.546  0.00  0.00    +0.000 A 
ATOM     16  O   UNL     1       8.146   4.270  17.175  0.00  0.00    +0.000 OA
ATOM     17  H   UNL     1       6.102   3.012  16.601  0.00  0.00    +0.000 HD
ENDBRANCH   5   6
ENDBRANCH   2   5
BRANCH   3  18
ATOM     18  C   UNL     1       8.776  10.244  17.966  0.00  0.00    +0.000 C 
BRANCH  18  19
ATOM     19  C   UNL     1       9.608  11.161  18.819  0.00  0.00    +0.000 A 
ATOM     20  C   UNL     1      10.998  11.103  18.796  0.00  0.00    +0.000 A 
ATOM     21  C   UNL     1      11.701  12.024  19.553  0.00  0.00    +0.000 A 
ATOM     22  N   UNL     1      11.127  12.989  20.311  0.00  0.00    +0.000 NA
ATOM     23  C   UNL     1       9.780  13.039  20.363  0.00  0.00    +0.000 A 
ATOM     24  N   UNL     1       9.158  14.022  21.114  0.00  0.00    +0.000 N 
ATOM     25  C   UNL     1       9.809  15.317  21.279  0.00  0.00    +0.000 C 
ATOM     26  C   UNL     1      10.228  15.563  22.726  0.00  0.00    +0.000 C 
ATOM     27  C   UNL     1       9.082  15.290  23.697  0.00  0.00    +0.000 C 
ATOM     28  C   UNL     1       8.528  13.885  23.488  0.00  0.00    +0.000 C 
ATOM     29  C   UNL     1       8.090  13.665  22.039  0.00  0.00    +0.000 C 
ATOM     30  C   UNL     1       9.006  12.136  19.625  0.00  0.00    +0.000 A 
ENDBRANCH  18  19
ENDBRANCH   3  18
TORSDOF 4
ENDMDL
MODEL 3
REMARK VINA RESULT:      -8.9      5.817      7.057
REMARK  Name = 
REMARK  4 active torsions:
REMARK  status: ('A' for Active; 'I' for Inactive)
REMARK    1  A    between atoms: C_2  and  C_3
REMARK    2  A    between atoms: C_3  and  C_4
REMARK    3  A    between atoms: N_15  and  C_16
REMARK    4  A    between atoms: C_16  and  C_17
REMARK                            x       y       z     vdW  Elec       q    Type
REMARK                         _______ _______ _______ _____ _____    ______ ____
ROOT
ATOM      1  O   UNL     1       0.734   3.710  20.570  0.00  0.00    +0.000 OA
ATOM      2  C   UNL     1       1.709   3.909  19.849  0.00  0.00    +0.000 C 
ATOM      3  N   UNL     1       2.370   5.114  19.784  0.00  0.00    +0.000 N 
ATOM      4  H   UNL     1       3.232   5.170  19.251  0.00  0.00    +0.000 HD
ENDROOT
BRANCH   2   5
ATOM      5  C   UNL     1       2.264   2.822  18.939  0.00  0.00    +0.000 C 
BRANCH   5   6
ATOM      6  C   UNL     1       3.545   3.254  18.292  0.00  0.00    +0.000 A 
ATOM      7  C   UNL     1       3.637   3.674  17.014  0.00  0.00    +0.000 A 
ATOM      8  C   UNL     1       4.907   4.129  16.458  0.00  0.00    +0.000 A 
ATOM      9  C   UNL     1       5.013   4.569  15.135  0.00  0.00    +0.000 A 
ATOM     10  C   UNL     1       6.245   5.006  14.639  0.00  0.00    +0.000 A 
ATOM     11  C   UNL     1       7.371   5.011  15.461  0.00  0.00    +0.000 A 
ATOM     12  C   UNL     1       7.273   4.573  16.785  0.00  0.00    +0.000 A 
ATOM     13  C   UNL     1       6.043   4.139  17.278  0.00  0.00    +0.000 A 
ATOM     14  N   UNL     1       5.929   3.708  18.606  0.00  0.00    +0.000 N 
ATOM     15  C   UNL     1       4.759   3.269  19.165  0.00  0.00    +0.000 A 
ATOM     16  O   UNL     1       4.696   2.915  20.340  0.00  0.00    +0.000 OA
ATOM     17  H   UNL     1       6.738   3.713  19.210  0.00  0.00    +0.000 HD
ENDBRANCH   5   6
ENDBRANCH   2   5
BRANCH   3  18
ATOM     18  C   UNL     1       1.951   6.277  20.540  0.00  0.00    +0.000 C 
BRANCH  18  19
ATOM     19  C   UNL     1       1.898   7.505  19.674  0.00  0.00    +0.000 A 
ATOM     20  C   UNL     1       2.483   7.524  18.413  0.00  0.00    +0.000 A 
ATOM     21  C   UNL     1       2.335   8.664  17.642  0.00  0.00    +0.000 A 
ATOM     22  N   UNL     1       1.648   9.765  18.029  0.00  0.00    +0.000 NA
ATOM     23  C   UNL     1       1.097   9.770  19.261  0.00  0.00    +0.000 A 
ATOM     24  N   UNL     1       0.373  10.872  19.684  0.00  0.00    +0.000 N 
ATOM     25  C   UNL     1      -0.353  11.671  18.703  0.00  0.00    +0.000 C 
ATOM     26  C   UNL     1       0.231  13.075  18.570  0.00  0.00    +0.000 C 
ATOM     27  C   UNL     1       0.415  13.738  19.934  0.00  0.00    +0.000 C 
ATOM     28  C   UNL     1       1.250  12.852  20.850  0.00  0.00    +0.000 C 
ATOM     29  C   UNL     1       0.637  11.458  20.992  0.00  0.00    +0.000 C 
ATOM     30  C   UNL     1       1.212   8.653  20.095  0.00  0.00    +0.000 A 
ENDBRANCH  18  19
ENDBRANCH   3  18
TORSDOF 4
ENDMDL
MODEL 4
REMARK VINA RESULT:      -8.8      7.278     10.970
REMARK  Name = 
REMARK  4 active torsions:
REMARK  status: ('A' for Active; 'I' for Inactive)
REMARK    1  A    between atoms: C_2  and  C_3
REMARK    2  A    between atoms: C_3  and  C_4
REMARK    3  A    between atoms: N_15  and  C_16
REMARK    4  A    between atoms: C_16  and  C_17
REMARK                            x       y       z     vdW  Elec       q    Type
REMARK                         _______ _______ _______ _____ _____    ______ ____
ROOT
ATOM      1  O   UNL     1      -0.229  10.368  23.311  0.00  0.00    +0.000 OA
ATOM      2  C   UNL     1      -0.072  10.702  22.139  0.00  0.00    +0.000 C 
ATOM      3  N   UNL     1       0.573   9.920  21.209  0.00  0.00    +0.000 N 
ATOM      4  H   UNL     1       0.566  10.211  20.237  0.00  0.00    +0.000 HD
ENDROOT
BRANCH   2   5
ATOM      5  C   UNL     1      -0.573  12.041  21.616  0.00  0.00    +0.000 C 
BRANCH   5   6
ATOM      6  C   UNL     1      -1.439  11.864  20.405  0.00  0.00    +0.000 A 
ATOM      7  C   UNL     1      -1.144  11.032  19.386  0.00  0.00    +0.000 A 
ATOM      8  C   UNL     1      -2.054  10.868  18.257  0.00  0.00    +0.000 A 
ATOM      9  C   UNL     1      -1.759  10.006  17.197  0.00  0.00    +0.000 A 
ATOM     10  C   UNL     1      -2.659   9.867  16.137  0.00  0.00    +0.000 A 
ATOM     11  C   UNL     1      -3.857  10.582  16.133  0.00  0.00    +0.000 A 
ATOM     12  C   UNL     1      -4.159  11.445  17.190  0.00  0.00    +0.000 A 
ATOM     13  C   UNL     1      -3.260  11.581  18.247  0.00  0.00    +0.000 A 
ATOM     14  N   UNL     1      -3.556  12.435  19.318  0.00  0.00    +0.000 N 
ATOM     15  C   UNL     1      -2.728  12.621  20.393  0.00  0.00    +0.000 A 
ATOM     16  O   UNL     1      -3.032  13.367  21.322  0.00  0.00    +0.000 OA
ATOM     17  H   UNL     1      -4.423  12.953  19.327  0.00  0.00    +0.000 HD
ENDBRANCH   5   6
ENDBRANCH   2   5
BRANCH   3  18
ATOM     18  C   UNL     1       1.161   8.637  21.539  0.00  0.00    +0.000 C 
BRANCH  18  19
ATOM     19  C   UNL     1       1.666   7.932  20.311  0.00  0.00    +0.000 A 
ATOM     20  C   UNL     1       1.901   8.623  19.128  0.00  0.00    +0.000 A 
ATOM     21  C   UNL     1       2.431   7.923  18.058  0.00  0.00    +0.000 A 
ATOM     22  N   UNL     1       2.747   6.606  18.087  0.00  0.00    +0.000 NA
ATOM     23  C   UNL     1       2.498   5.918  19.220  0.00  0.00    +0.000 A 
ATOM     24  N   UNL     1       2.823   4.574  19.291  0.00  0.00    +0.000 N 
ATOM     25  C   UNL     1       3.957   4.069  18.523  0.00  0.00    +0.000 C 
ATOM     26  C   UNL     1       3.515   3.109  17.422  0.00  0.00    +0.000 C 
ATOM     27  C   UNL     1       2.570   2.036  17.958  0.00  0.00    +0.000 C 
ATOM     28  C   UNL     1       1.386   2.675  18.673  0.00  0.00    +0.000 C 
ATOM     29  C   UNL     1       1.846   3.614  19.789  0.00  0.00    +0.000 C 
ATOM     30  C   UNL     1       1.959   6.562  20.339  0.00  0.00    +0.000 A 
ENDBRANCH  18  19
ENDBRANCH   3  18
TORSDOF 4
ENDMDL
MODEL 5
REMARK VINA RESULT:      -8.8      1.660      2.017
REMARK  Name = 
REMARK  4 active torsions:
REMARK  status: ('A' for Active; 'I' for Inactive)
REMARK    1  A    between atoms: C_2  and  C_3
REMARK    2  A    between atoms: C_3  and  C_4
REMARK    3  A    between atoms: N_15  and  C_16
REMARK    4  A    between atoms: C_16  and  C_17
REMARK                            x       y       z     vdW  Elec       q    Type
REMARK                         _______ _______ _______ _____ _____    ______ ____
ROOT
ATOM      1  O   UNL     1       6.496   7.365  16.577  0.00  0.00    +0.000 OA
ATOM      2  C   UNL     1       7.237   7.181  17.541  0.00  0.00    +0.000 C 
ATOM      3  N   UNL     1       8.064   8.152  18.056  0.00  0.00    +0.000 N 
ATOM      4  H   UNL     1       8.563   7.962  18.919  0.00  0.00    +0.000 HD
ENDROOT
BRANCH   2   5
ATOM      5  C   UNL     1       7.313   5.833  18.244  0.00  0.00    +0.000 C 
BRANCH   5   6
ATOM      6  C   UNL     1       5.968   5.172  18.303  0.00  0.00    +0.000 A 
ATOM      7  C   UNL     1       5.055   5.415  19.264  0.00  0.00    +0.000 A 
ATOM      8  C   UNL     1       3.743   4.775  19.239  0.00  0.00    +0.000 A 
ATOM      9  C   UNL     1       2.788   5.022  20.229  0.00  0.00    +0.000 A 
ATOM     10  C   UNL     1       1.538   4.398  20.166  0.00  0.00    +0.000 A 
ATOM     11  C   UNL     1       1.237   3.533  19.115  0.00  0.00    +0.000 A 
ATOM     12  C   UNL     1       2.187   3.282  18.121  0.00  0.00    +0.000 A 
ATOM     13  C   UNL     1       3.432   3.906  18.185  0.00  0.00    +0.000 A 
ATOM     14  N   UNL     1       4.389   3.672  17.190  0.00  0.00    +0.000 N 
ATOM     15  C   UNL     1       5.632   4.247  17.179  0.00  0.00    +0.000 A 
ATOM     16  O   UNL     1       6.439   4.028  16.277  0.00  0.00    +0.000 OA
ATOM     17  H   UNL     1       4.179   3.050  16.422  0.00  0.00    +0.000 HD
ENDBRANCH   5   6
ENDBRANCH   2   5
BRANCH   3  18
ATOM     18  C   UNL     1       8.164   9.480  17.482  0.00  0.00    +0.000 C 
BRANCH  18  19
ATOM     19  C   UNL     1       8.814  10.443  18.437  0.00  0.00    +0.000 A 
ATOM     20  C   UNL     1       9.225  10.038  19.702  0.00  0.00    +0.000 A 
ATOM     21  C   UNL     1       9.880  10.959  20.501  0.00  0.00    +0.000 A 
ATOM     22  N   UNL     1      10.157  12.232  20.130  0.00  0.00    +0.000 NA
ATOM     23  C   UNL     1       9.740  12.646  18.916  0.00  0.00    +0.000 A 
ATOM     24  N   UNL     1      10.021  13.936  18.496  0.00  0.00    +0.000 N 
ATOM     25  C   UNL     1      11.237  14.592  18.965  0.00  0.00    +0.000 C 
ATOM     26  C   UNL     1      10.927  15.782  19.870  0.00  0.00    +0.000 C 
ATOM     27  C   UNL     1       9.893  16.713  19.240  0.00  0.00    +0.000 C 
ATOM     28  C   UNL     1       8.638  15.937  18.859  0.00  0.00    +0.000 C 
ATOM     29  C   UNL     1       8.963  14.764  17.933  0.00  0.00    +0.000 C 
ATOM     30  C   UNL     1       9.069  11.768  18.058  0.00  0.00    +0.000 A 
ENDBRANCH  18  19
ENDBRANCH   3  18
TORSDOF 4
ENDMDL
MODEL 6
REMARK VINA RESULT:      -8.8      5.729      7.454
REMARK  Name = 
REMARK  4 active torsions:
REMARK  status: ('A' for Active; 'I' for Inactive)
REMARK    1  A    between atoms: C_2  and  C_3
REMARK    2  A    between atoms: C_3  and  C_4
REMARK    3  A    between atoms: N_15  and  C_16
REMARK    4  A    between atoms: C_16  and  C_17
REMARK                            x       y       z     vdW  Elec       q    Type
REMARK                         _______ _______ _______ _____ _____    ______ ____
ROOT
ATOM      1  O   UNL     1       2.481   5.154  17.867  0.00  0.00    +0.000 OA
ATOM      2  C   UNL     1       3.492   5.849  17.931  0.00  0.00    +0.000 C 
ATOM      3  N   UNL     1       3.476   7.221  17.830  0.00  0.00    +0.000 N 
ATOM      4  H   UNL     1       4.334   7.735  18.003  0.00  0.00    +0.000 HD
ENDROOT
BRANCH   2   5
ATOM      5  C   UNL     1       4.873   5.236  18.114  0.00  0.00    +0.000 C 
BRANCH   5   6
ATOM      6  C   UNL     1       5.578   5.078  16.801  0.00  0.00    +0.000 A 
ATOM      7  C   UNL     1       5.085   4.372  15.764  0.00  0.00    +0.000 A 
ATOM      8  C   UNL     1       5.798   4.297  14.493  0.00  0.00    +0.000 A 
ATOM      9  C   UNL     1       5.294   3.570  13.411  0.00  0.00    +0.000 A 
ATOM     10  C   UNL     1       6.001   3.530  12.205  0.00  0.00    +0.000 A 
ATOM     11  C   UNL     1       7.208   4.216  12.075  0.00  0.00    +0.000 A 
ATOM     12  C   UNL     1       7.718   4.945  13.152  0.00  0.00    +0.000 A 
ATOM     13  C   UNL     1       7.011   4.986  14.353  0.00  0.00    +0.000 A 
ATOM     14  N   UNL     1       7.505   5.722  15.437  0.00  0.00    +0.000 N 
ATOM     15  C   UNL     1       6.870   5.814  16.647  0.00  0.00    +0.000 A 
ATOM     16  O   UNL     1       7.329   6.485  17.570  0.00  0.00    +0.000 OA
ATOM     17  H   UNL     1       8.375   6.227  15.351  0.00  0.00    +0.000 HD
ENDBRANCH   5   6
ENDBRANCH   2   5
BRANCH   3  18
ATOM     18  C   UNL     1       2.258   7.974  17.600  0.00  0.00    +0.000 C 
BRANCH  18  19
ATOM     19  C   UNL     1       1.718   8.549  18.880  0.00  0.00    +0.000 A 
ATOM     20  C   UNL     1       1.831   7.862  20.083  0.00  0.00    +0.000 A 
ATOM     21  C   UNL     1       1.374   8.482  21.234  0.00  0.00    +0.000 A 
ATOM     22  N   UNL     1       0.831   9.722  21.269  0.00  0.00    +0.000 NA
ATOM     23  C   UNL     1       0.692  10.389  20.105  0.00  0.00    +0.000 A 
ATOM     24  N   UNL     1       0.157  11.666  20.106  0.00  0.00    +0.000 N 
ATOM     25  C   UNL     1       0.360  12.528  21.265  0.00  0.00    +0.000 C 
ATOM     26  C   UNL     1      -0.949  12.815  21.997  0.00  0.00    +0.000 C 
ATOM     27  C   UNL     1      -2.040  13.277  21.034  0.00  0.00    +0.000 C 
ATOM     28  C   UNL     1      -2.220  12.268  19.907  0.00  0.00    +0.000 C 
ATOM     29  C   UNL     1      -0.905  12.011  19.169  0.00  0.00    +0.000 C 
ATOM     30  C   UNL     1       1.128   9.820  18.904  0.00  0.00    +0.000 A 
ENDBRANCH  18  19
ENDBRANCH   3  18
TORSDOF 4
ENDMDL
MODEL 7
REMARK VINA RESULT:      -8.7      6.361      9.980
REMARK  Name = 
REMARK  4 active torsions:
REMARK  status: ('A' for Active; 'I' for Inactive)
REMARK    1  A    between atoms: C_2  and  C_3
REMARK    2  A    between atoms: C_3  and  C_4
REMARK    3  A    between atoms: N_15  and  C_16
REMARK    4  A    between atoms: C_16  and  C_17
REMARK                            x       y       z     vdW  Elec       q    Type
REMARK                         _______ _______ _______ _____ _____    ______ ____
ROOT
ATOM      1  O   UNL     1       0.435   8.889  21.886  0.00  0.00    +0.000 OA
ATOM      2  C   UNL     1       0.988   8.889  20.788  0.00  0.00    +0.000 C 
ATOM      3  N   UNL     1       1.527   7.761  20.213  0.00  0.00    +0.000 N 
ATOM      4  H   UNL     1       1.869   7.814  19.259  0.00  0.00    +0.000 HD
ENDROOT
BRANCH   2   5
ATOM      5  C   UNL     1       1.140  10.163  19.969  0.00  0.00    +0.000 C 
BRANCH   5   6
ATOM      6  C   UNL     1      -0.149  10.540  19.304  0.00  0.00    +0.000 A 
ATOM      7  C   UNL     1      -0.563  10.033  18.126  0.00  0.00    +0.000 A 
ATOM      8  C   UNL     1      -1.853  10.405  17.554  0.00  0.00    +0.000 A 
ATOM      9  C   UNL     1      -2.292   9.883  16.334  0.00  0.00    +0.000 A 
ATOM     10  C   UNL     1      -3.539  10.255  15.822  0.00  0.00    +0.000 A 
ATOM     11  C   UNL     1      -4.351  11.143  16.527  0.00  0.00    +0.000 A 
ATOM     12  C   UNL     1      -3.918  11.669  17.747  0.00  0.00    +0.000 A 
ATOM     13  C   UNL     1      -2.676  11.295  18.257  0.00  0.00    +0.000 A 
ATOM     14  N   UNL     1      -2.235  11.806  19.484  0.00  0.00    +0.000 N 
ATOM     15  C   UNL     1      -1.031  11.488  20.052  0.00  0.00    +0.000 A 
ATOM     16  O   UNL     1      -0.687  11.945  21.141  0.00  0.00    +0.000 OA
ATOM     17  H   UNL     1      -2.818  12.446  20.004  0.00  0.00    +0.000 HD
ENDBRANCH   5   6
ENDBRANCH   2   5
BRANCH   3  18
ATOM     18  C   UNL     1       1.523   6.469  20.871  0.00  0.00    +0.000 C 
BRANCH  18  19
ATOM     19  C   UNL     1       2.416   5.488  20.162  0.00  0.00    +0.000 A 
ATOM     20  C   UNL     1       2.525   4.171  20.593  0.00  0.00    +0.000 A 
ATOM     21  C   UNL     1       3.310   3.305  19.852  0.00  0.00    +0.000 A 
ATOM     22  N   UNL     1       3.977   3.653  18.725  0.00  0.00    +0.000 NA
ATOM     23  C   UNL     1       3.901   4.935  18.311  0.00  0.00    +0.000 A 
ATOM     24  N   UNL     1       4.555   5.322  17.154  0.00  0.00    +0.000 N 
ATOM     25  C   UNL     1       4.733   4.357  16.074  0.00  0.00    +0.000 C 
ATOM     26  C   UNL     1       6.203   4.003  15.864  0.00  0.00    +0.000 C 
ATOM     27  C   UNL     1       7.072   5.255  15.760  0.00  0.00    +0.000 C 
ATOM     28  C   UNL     1       6.863   6.152  16.974  0.00  0.00    +0.000 C 
ATOM     29  C   UNL     1       5.389   6.517  17.154  0.00  0.00    +0.000 C 
ATOM     30  C   UNL     1       3.128   5.864  19.015  0.00  0.00    +0.000 A 
ENDBRANCH  18  19
ENDBRANCH   3  18
TORSDOF 4
ENDMDL
MODEL 8
REMARK VINA RESULT:      -8.6      6.292      9.780
REMARK  Name = 
REMARK  4 active torsions:
REMARK  status: ('A' for Active; 'I' for Inactive)
REMARK    1  A    between atoms: C_2  and  C_3
REMARK    2  A    between atoms: C_3  and  C_4
REMARK    3  A    between atoms: N_15  and  C_16
REMARK    4  A    between atoms: C_16  and  C_17
REMARK                            x       y       z     vdW  Elec       q    Type
REMARK                         _______ _______ _______ _____ _____    ______ ____
ROOT
ATOM      1  O   UNL     1       0.613   8.987  22.463  0.00  0.00    +0.000 OA
ATOM      2  C   UNL     1       0.980   9.091  21.295  0.00  0.00    +0.000 C 
ATOM      3  N   UNL     1       1.459   8.034  20.555  0.00  0.00    +0.000 N 
ATOM      4  H   UNL     1       1.638   8.172  19.565  0.00  0.00    +0.000 HD
ENDROOT
BRANCH   2   5
ATOM      5  C   UNL     1       0.950  10.425  20.563  0.00  0.00    +0.000 C 
BRANCH   5   6
ATOM      6  C   UNL     1      -0.108  10.441  19.500  0.00  0.00    +0.000 A 
ATOM      7  C   UNL     1      -1.321  11.006  19.656  0.00  0.00    +0.000 A 
ATOM      8  C   UNL     1      -2.289  11.031  18.564  0.00  0.00    +0.000 A 
ATOM      9  C   UNL     1      -3.549  11.617  18.714  0.00  0.00    +0.000 A 
ATOM     10  C   UNL     1      -4.447  11.630  17.643  0.00  0.00    +0.000 A 
ATOM     11  C   UNL     1      -4.089  11.064  16.419  0.00  0.00    +0.000 A 
ATOM     12  C   UNL     1      -2.831  10.477  16.262  0.00  0.00    +0.000 A 
ATOM     13  C   UNL     1      -1.937  10.466  17.331  0.00  0.00    +0.000 A 
ATOM     14  N   UNL     1      -0.668   9.890  17.183  0.00  0.00    +0.000 N 
ATOM     15  C   UNL     1       0.267   9.842  18.182  0.00  0.00    +0.000 A 
ATOM     16  O   UNL     1       1.376   9.342  18.007  0.00  0.00    +0.000 OA
ATOM     17  H   UNL     1      -0.398   9.483  16.299  0.00  0.00    +0.000 HD
ENDBRANCH   5   6
ENDBRANCH   2   5
BRANCH   3  18
ATOM     18  C   UNL     1       1.609   6.700  21.103  0.00  0.00    +0.000 C 
BRANCH  18  19
ATOM     19  C   UNL     1       2.122   5.736  20.069  0.00  0.00    +0.000 A 
ATOM     20  C   UNL     1       1.448   4.553  19.788  0.00  0.00    +0.000 A 
ATOM     21  C   UNL     1       1.938   3.747  18.776  0.00  0.00    +0.000 A 
ATOM     22  N   UNL     1       3.031   4.037  18.030  0.00  0.00    +0.000 NA
ATOM     23  C   UNL     1       3.710   5.169  18.309  0.00  0.00    +0.000 A 
ATOM     24  N   UNL     1       4.821   5.506  17.555  0.00  0.00    +0.000 N 
ATOM     25  C   UNL     1       4.886   5.102  16.155  0.00  0.00    +0.000 C 
ATOM     26  C   UNL     1       5.991   4.078  15.909  0.00  0.00    +0.000 C 
ATOM     27  C   UNL     1       7.319   4.529  16.513  0.00  0.00    +0.000 C 
ATOM     28  C   UNL     1       7.152   4.851  17.993  0.00  0.00    +0.000 C 
ATOM     29  C   UNL     1       6.059   5.897  18.218  0.00  0.00    +0.000 C 
ATOM     30  C   UNL     1       3.272   6.028  19.322  0.00  0.00    +0.000 A 
ENDBRANCH  18  19
ENDBRANCH   3  18
TORSDOF 4
ENDMDL
MODEL 9
REMARK VINA RESULT:      -8.5      9.934     12.867
REMARK  Name = 
REMARK  4 active torsions:
REMARK  status: ('A' for Active; 'I' for Inactive)
REMARK    1  A    between atoms: C_2  and  C_3
REMARK    2  A    between atoms: C_3  and  C_4
REMARK    3  A    between atoms: N_15  and  C_16
REMARK    4  A    between atoms: C_16  and  C_17
REMARK                            x       y       z     vdW  Elec       q    Type
REMARK                         _______ _______ _______ _____ _____    ______ ____
ROOT
ATOM      1  O   UNL     1      -4.647  12.164  23.834  0.00  0.00    +0.000 OA
ATOM      2  C   UNL     1      -3.980  13.050  23.306  0.00  0.00    +0.000 C 
ATOM      3  N   UNL     1      -4.476  13.900  22.344  0.00  0.00    +0.000 N 
ATOM      4  H   UNL     1      -3.902  14.677  22.035  0.00  0.00    +0.000 HD
ENDROOT
BRANCH   2   5
ATOM      5  C   UNL     1      -2.517  13.273  23.666  0.00  0.00    +0.000 C 
BRANCH   5   6
ATOM      6  C   UNL     1      -1.611  12.453  22.797  0.00  0.00    +0.000 A 
ATOM      7  C   UNL     1      -1.332  11.153  23.019  0.00  0.00    +0.000 A 
ATOM      8  C   UNL     1      -0.479  10.398  22.107  0.00  0.00    +0.000 A 
ATOM      9  C   UNL     1      -0.185   9.049  22.326  0.00  0.00    +0.000 A 
ATOM     10  C   UNL     1       0.627   8.354  21.425  0.00  0.00    +0.000 A 
ATOM     11  C   UNL     1       1.143   9.000  20.302  0.00  0.00    +0.000 A 
ATOM     12  C   UNL     1       0.853  10.349  20.076  0.00  0.00    +0.000 A 
ATOM     13  C   UNL     1       0.042  11.039  20.975  0.00  0.00    +0.000 A 
ATOM     14  N   UNL     1      -0.266  12.387  20.754  0.00  0.00    +0.000 N 
ATOM     15  C   UNL     1      -1.056  13.134  21.587  0.00  0.00    +0.000 A 
ATOM     16  O   UNL     1      -1.317  14.311  21.349  0.00  0.00    +0.000 OA
ATOM     17  H   UNL     1       0.099  12.863  19.941  0.00  0.00    +0.000 HD
ENDBRANCH   5   6
ENDBRANCH   2   5
BRANCH   3  18
ATOM     18  C   UNL     1      -5.832  13.802  21.839  0.00  0.00    +0.000 C 
BRANCH  18  19
ATOM     19  C   UNL     1      -5.925  12.819  20.706  0.00  0.00    +0.000 A 
ATOM     20  C   UNL     1      -7.083  12.081  20.485  0.00  0.00    +0.000 A 
ATOM     21  C   UNL     1      -7.125  11.246  19.382  0.00  0.00    +0.000 A 
ATOM     22  N   UNL     1      -6.112  11.104  18.493  0.00  0.00    +0.000 NA
ATOM     23  C   UNL     1      -4.973  11.793  18.710  0.00  0.00    +0.000 A 
ATOM     24  N   UNL     1      -3.924  11.685  17.813  0.00  0.00    +0.000 N 
ATOM     25  C   UNL     1      -4.209  11.434  16.404  0.00  0.00    +0.000 C 
ATOM     26  C   UNL     1      -3.713  10.061  15.960  0.00  0.00    +0.000 C 
ATOM     27  C   UNL     1      -2.262   9.826  16.376  0.00  0.00    +0.000 C 
ATOM     28  C   UNL     1      -2.095  10.042  17.875  0.00  0.00    +0.000 C 
ATOM     29  C   UNL     1      -2.574  11.431  18.299  0.00  0.00    +0.000 C 
ATOM     30  C   UNL     1      -4.862  12.653  19.808  0.00  0.00    +0.000 A 
ENDBRANCH  18  19
ENDBRANCH   3  18
TORSDOF 4
ENDMDL
