MODEL 1
REMARK VINA RESULT:      -8.1      0.000      0.000
REMARK  Name = 
REMARK  5 active torsions:
REMARK  status: ('A' for Active; 'I' for Inactive)
REMARK    1  A    between atoms: C_1  and  C_2
REMARK    2  A    between atoms: C_2  and  C_3
REMARK    3  A    between atoms: C_5  and  N_6
REMARK    4  A    between atoms: C_7  and  C_9
REMARK    5  A    between atoms: C_9  and  N_10
REMARK                            x       y       z     vdW  Elec       q    Type
REMARK                         _______ _______ _______ _____ _____    ______ ____
ROOT
ATOM      1  N   UNL     1       2.587   8.042  18.862  0.00  0.00    +0.000 N 
ATOM      2  C   UNL     1       1.627   8.860  18.281  0.00  0.00    +0.000 C 
ATOM      3  O   UNL     1       0.802   8.526  17.434  0.00  0.00    +0.000 OA
ATOM      4  H   UNL     1       3.362   8.522  19.316  0.00  0.00    +0.000 HD
ENDROOT
BRANCH   1   7
ATOM      5  C   UNL     1       2.031   4.407  19.351  0.00  0.00    +0.000 A 
ATOM      6  C   UNL     1       1.931   5.778  19.519  0.00  0.00    +0.000 A 
ATOM      7  C   UNL     1       2.687   6.629  18.711  0.00  0.00    +0.000 A 
ATOM      8  C   UNL     1       3.578   6.059  17.757  0.00  0.00    +0.000 A 
ATOM      9  C   UNL     1       4.420   6.785  16.869  0.00  0.00    +0.000 A 
ATOM     10  C   UNL     1       5.264   6.130  15.966  0.00  0.00    +0.000 A 
ATOM     11  C   UNL     1       5.286   4.745  15.923  0.00  0.00    +0.000 A 
ATOM     12  C   UNL     1       4.459   4.023  16.781  0.00  0.00    +0.000 A 
ATOM     13  C   UNL     1       3.613   4.645  17.686  0.00  0.00    +0.000 A 
ATOM     14  N   UNL     1       2.864   3.847  18.454  0.00  0.00    +0.000 NA
BRANCH   5  16
ATOM     15  C   UNL     1       1.943   3.206  21.535  0.00  0.00    +0.000 C 
ATOM     16  C   UNL     1       1.233   3.470  20.218  0.00  0.00    +0.000 C 
ENDBRANCH   5  16
ENDBRANCH   1   7
BRANCH   2  17
ATOM     17  C   UNL     1       1.714  10.319  18.712  0.00  0.00    +0.000 C 
BRANCH  17  18
ATOM     18  N   UNL     1       0.768  10.569  19.780  0.00  0.00    +0.000 N 
ATOM     19  C   UNL     1       1.045  10.173  21.066  0.00  0.00    +0.000 A 
ATOM     20  N   UNL     1       0.304  10.435  22.090  0.00  0.00    +0.000 NA
ATOM     21  C   UNL     1      -0.839  11.221  21.879  0.00  0.00    +0.000 A 
ATOM     22  C   UNL     1      -1.565  11.673  22.982  0.00  0.00    +0.000 A 
ATOM     23  C   UNL     1      -2.665  12.520  22.811  0.00  0.00    +0.000 A 
ATOM     24  C   UNL     1      -3.059  12.906  21.529  0.00  0.00    +0.000 A 
ATOM     25  C   UNL     1      -2.361  12.439  20.417  0.00  0.00    +0.000 A 
ATOM     26  C   UNL     1      -1.255  11.606  20.602  0.00  0.00    +0.000 A 
ATOM     27  C   UNL     1      -0.439  11.163  19.457  0.00  0.00    +0.000 A 
ATOM     28  O   UNL     1      -0.824  11.314  18.300  0.00  0.00    +0.000 OA
ENDBRANCH  17  18
ENDBRANCH   2  17
TORSDOF 4
ENDMDL
MODEL 2
REMARK VINA RESULT:      -8.0      2.427      8.088
REMARK  Name = 
REMARK  5 active torsions:
REMARK  status: ('A' for Active; 'I' for Inactive)
REMARK    1  A    between atoms: C_1  and  C_2
REMARK    2  A    between atoms: C_2  and  C_3
REMARK    3  A    between atoms: C_5  and  N_6
REMARK    4  A    between atoms: C_7  and  C_9
REMARK    5  A    between atoms: C_9  and  N_10
REMARK                            x       y       z     vdW  Elec       q    Type
REMARK                         _______ _______ _______ _____ _____    ______ ____
ROOT
ATOM      1  N   UNL     1       2.331   6.151  20.757  0.00  0.00    +0.000 N 
ATOM      2  C   UNL     1       1.764   4.909  20.503  0.00  0.00    +0.000 C 
ATOM      3  O   UNL     1       0.564   4.663  20.403  0.00  0.00    +0.000 OA
ATOM      4  H   UNL     1       3.293   6.138  21.093  0.00  0.00    +0.000 HD
ENDROOT
BRANCH   1   7
ATOM      5  C   UNL     1       0.214   8.973  21.904  0.00  0.00    +0.000 A 
ATOM      6  C   UNL     1       0.869   7.753  21.890  0.00  0.00    +0.000 A 
ATOM      7  C   UNL     1       1.642   7.398  20.783  0.00  0.00    +0.000 A 
ATOM      8  C   UNL     1       1.703   8.288  19.674  0.00  0.00    +0.000 A 
ATOM      9  C   UNL     1       2.435   8.070  18.473  0.00  0.00    +0.000 A 
ATOM     10  C   UNL     1       2.431   9.009  17.436  0.00  0.00    +0.000 A 
ATOM     11  C   UNL     1       1.705  10.181  17.571  0.00  0.00    +0.000 A 
ATOM     12  C   UNL     1       0.992  10.411  18.746  0.00  0.00    +0.000 A 
ATOM     13  C   UNL     1       0.978   9.499  19.789  0.00  0.00    +0.000 A 
ATOM     14  N   UNL     1       0.261   9.831  20.868  0.00  0.00    +0.000 NA
BRANCH   5  16
ATOM     15  C   UNL     1      -1.020  10.840  23.003  0.00  0.00    +0.000 C 
ATOM     16  C   UNL     1      -0.633   9.373  23.083  0.00  0.00    +0.000 C 
ENDBRANCH   5  16
ENDBRANCH   1   7
BRANCH   2  17
ATOM     17  C   UNL     1       2.773   3.769  20.440  0.00  0.00    +0.000 C 
BRANCH  17  18
ATOM     18  N   UNL     1       3.451   3.790  19.160  0.00  0.00    +0.000 N 
ATOM     19  C   UNL     1       2.757   3.556  17.997  0.00  0.00    +0.000 A 
ATOM     20  N   UNL     1       3.261   3.645  16.812  0.00  0.00    +0.000 NA
ATOM     21  C   UNL     1       4.597   4.057  16.704  0.00  0.00    +0.000 A 
ATOM     22  C   UNL     1       5.122   4.336  15.441  0.00  0.00    +0.000 A 
ATOM     23  C   UNL     1       6.427   4.821  15.305  0.00  0.00    +0.000 A 
ATOM     24  C   UNL     1       7.225   5.014  16.434  0.00  0.00    +0.000 A 
ATOM     25  C   UNL     1       6.725   4.712  17.699  0.00  0.00    +0.000 A 
ATOM     26  C   UNL     1       5.415   4.241  17.823  0.00  0.00    +0.000 A 
ATOM     27  C   UNL     1       4.819   3.995  19.149  0.00  0.00    +0.000 A 
ATOM     28  O   UNL     1       5.509   3.971  20.166  0.00  0.00    +0.000 OA
ENDBRANCH  17  18
ENDBRANCH   2  17
TORSDOF 4
ENDMDL
MODEL 3
REMARK VINA RESULT:      -7.9      1.109      3.134
REMARK  Name = 
REMARK  5 active torsions:
REMARK  status: ('A' for Active; 'I' for Inactive)
REMARK    1  A    between atoms: C_1  and  C_2
REMARK    2  A    between atoms: C_2  and  C_3
REMARK    3  A    between atoms: C_5  and  N_6
REMARK    4  A    between atoms: C_7  and  C_9
REMARK    5  A    between atoms: C_9  and  N_10
REMARK                            x       y       z     vdW  Elec       q    Type
REMARK                         _______ _______ _______ _____ _____    ______ ____
ROOT
ATOM      1  N   UNL     1       3.265   7.348  18.312  0.00  0.00    +0.000 N 
ATOM      2  C   UNL     1       2.081   8.013  18.019  0.00  0.00    +0.000 C 
ATOM      3  O   UNL     1       1.125   7.558  17.395  0.00  0.00    +0.000 OA
ATOM      4  H   UNL     1       4.052   7.939  18.573  0.00  0.00    +0.000 HD
ENDROOT
BRANCH   1   7
ATOM      5  C   UNL     1       4.634   4.217  16.869  0.00  0.00    +0.000 A 
ATOM      6  C   UNL     1       4.382   5.564  17.064  0.00  0.00    +0.000 A 
ATOM      7  C   UNL     1       3.526   5.964  18.091  0.00  0.00    +0.000 A 
ATOM      8  C   UNL     1       2.897   4.967  18.889  0.00  0.00    +0.000 A 
ATOM      9  C   UNL     1       1.994   5.209  19.962  0.00  0.00    +0.000 A 
ATOM     10  C   UNL     1       1.427   4.157  20.688  0.00  0.00    +0.000 A 
ATOM     11  C   UNL     1       1.745   2.847  20.367  0.00  0.00    +0.000 A 
ATOM     12  C   UNL     1       2.634   2.597  19.324  0.00  0.00    +0.000 A 
ATOM     13  C   UNL     1       3.212   3.620  18.588  0.00  0.00    +0.000 A 
ATOM     14  N   UNL     1       4.053   3.257  17.614  0.00  0.00    +0.000 NA
BRANCH   5  16
ATOM     15  C   UNL     1       5.799   4.880  14.766  0.00  0.00    +0.000 C 
ATOM     16  C   UNL     1       5.547   3.761  15.762  0.00  0.00    +0.000 C 
ENDBRANCH   5  16
ENDBRANCH   1   7
BRANCH   2  17
ATOM     17  C   UNL     1       2.064   9.469  18.465  0.00  0.00    +0.000 C 
BRANCH  17  18
ATOM     18  N   UNL     1       1.178   9.620  19.602  0.00  0.00    +0.000 N 
ATOM     19  C   UNL     1       1.287   8.787  20.689  0.00  0.00    +0.000 A 
ATOM     20  N   UNL     1       0.604   8.907  21.777  0.00  0.00    +0.000 NA
ATOM     21  C   UNL     1      -0.277   9.995  21.873  0.00  0.00    +0.000 A 
ATOM     22  C   UNL     1      -0.898  10.260  23.094  0.00  0.00    +0.000 A 
ATOM     23  C   UNL     1      -1.722  11.381  23.244  0.00  0.00    +0.000 A 
ATOM     24  C   UNL     1      -1.946  12.236  22.164  0.00  0.00    +0.000 A 
ATOM     25  C   UNL     1      -1.357  11.967  20.931  0.00  0.00    +0.000 A 
ATOM     26  C   UNL     1      -0.524  10.853  20.798  0.00  0.00    +0.000 A 
ATOM     27  C   UNL     1       0.189  10.585  19.535  0.00  0.00    +0.000 A 
ATOM     28  O   UNL     1      -0.095  11.184  18.501  0.00  0.00    +0.000 OA
ENDBRANCH  17  18
ENDBRANCH   2  17
TORSDOF 4
ENDMDL
MODEL 4
REMARK VINA RESULT:      -7.9      1.616      3.489
REMARK  Name = 
REMARK  5 active torsions:
REMARK  status: ('A' for Active; 'I' for Inactive)
REMARK    1  A    between atoms: C_1  and  C_2
REMARK    2  A    between atoms: C_2  and  C_3
REMARK    3  A    between atoms: C_5  and  N_6
REMARK    4  A    between atoms: C_7  and  C_9
REMARK    5  A    between atoms: C_9  and  N_10
REMARK                            x       y       z     vdW  Elec       q    Type
REMARK                         _______ _______ _______ _____ _____    ______ ____
ROOT
ATOM      1  N   UNL     1       2.426   6.965  20.471  0.00  0.00    +0.000 N 
ATOM      2  C   UNL     1       1.698   8.144  20.379  0.00  0.00    +0.000 C 
ATOM      3  O   UNL     1       1.376   8.722  19.343  0.00  0.00    +0.000 OA
ATOM      4  H   UNL     1       2.850   6.777  21.377  0.00  0.00    +0.000 HD
ENDROOT
BRANCH   1   7
ATOM      5  C   UNL     1       4.060   5.716  17.385  0.00  0.00    +0.000 A 
ATOM      6  C   UNL     1       3.708   6.555  18.428  0.00  0.00    +0.000 A 
ATOM      7  C   UNL     1       2.791   6.118  19.385  0.00  0.00    +0.000 A 
ATOM      8  C   UNL     1       2.207   4.828  19.239  0.00  0.00    +0.000 A 
ATOM      9  C   UNL     1       1.254   4.242  20.118  0.00  0.00    +0.000 A 
ATOM     10  C   UNL     1       0.738   2.963  19.886  0.00  0.00    +0.000 A 
ATOM     11  C   UNL     1       1.158   2.240  18.782  0.00  0.00    +0.000 A 
ATOM     12  C   UNL     1       2.098   2.798  17.917  0.00  0.00    +0.000 A 
ATOM     13  C   UNL     1       2.626   4.063  18.123  0.00  0.00    +0.000 A 
ATOM     14  N   UNL     1       3.524   4.491  17.229  0.00  0.00    +0.000 NA
BRANCH   5  16
ATOM     15  C   UNL     1       5.404   5.029  15.399  0.00  0.00    +0.000 C 
ATOM     16  C   UNL     1       5.040   6.169  16.335  0.00  0.00    +0.000 C 
ENDBRANCH   5  16
ENDBRANCH   1   7
BRANCH   2  17
ATOM     17  C   UNL     1       1.372   8.778  21.725  0.00  0.00    +0.000 C 
BRANCH  17  18
ATOM     18  N   UNL     1       0.519   9.932  21.527  0.00  0.00    +0.000 N 
ATOM     19  C   UNL     1       0.503  10.590  20.321  0.00  0.00    +0.000 A 
ATOM     20  N   UNL     1      -0.290  11.566  20.029  0.00  0.00    +0.000 NA
ATOM     21  C   UNL     1      -1.233  11.947  20.995  0.00  0.00    +0.000 A 
ATOM     22  C   UNL     1      -2.219  12.874  20.653  0.00  0.00    +0.000 A 
ATOM     23  C   UNL     1      -3.219  13.218  21.568  0.00  0.00    +0.000 A 
ATOM     24  C   UNL     1      -3.228  12.651  22.843  0.00  0.00    +0.000 A 
ATOM     25  C   UNL     1      -2.233  11.747  23.209  0.00  0.00    +0.000 A 
ATOM     26  C   UNL     1      -1.248  11.400  22.281  0.00  0.00    +0.000 A 
ATOM     27  C   UNL     1      -0.231  10.381  22.599  0.00  0.00    +0.000 A 
ATOM     28  O   UNL     1      -0.069   9.975  23.748  0.00  0.00    +0.000 OA
ENDBRANCH  17  18
ENDBRANCH   2  17
TORSDOF 4
ENDMDL
MODEL 5
REMARK VINA RESULT:      -7.8      2.423      7.958
REMARK  Name = 
REMARK  5 active torsions:
REMARK  status: ('A' for Active; 'I' for Inactive)
REMARK    1  A    between atoms: C_1  and  C_2
REMARK    2  A    between atoms: C_2  and  C_3
REMARK    3  A    between atoms: C_5  and  N_6
REMARK    4  A    between atoms: C_7  and  C_9
REMARK    5  A    between atoms: C_9  and  N_10
REMARK                            x       y       z     vdW  Elec       q    Type
REMARK                         _______ _______ _______ _____ _____    ______ ____
ROOT
ATOM      1  N   UNL     1       2.376   6.100  20.603  0.00  0.00    +0.000 N 
ATOM      2  C   UNL     1       1.796   4.868  20.329  0.00  0.00    +0.000 C 
ATOM      3  O   UNL     1       0.592   4.629  20.261  0.00  0.00    +0.000 OA
ATOM      4  H   UNL     1       3.348   6.074  20.906  0.00  0.00    +0.000 HD
ENDROOT
BRANCH   1   7
ATOM      5  C   UNL     1       0.291   8.881  21.899  0.00  0.00    +0.000 A 
ATOM      6  C   UNL     1       0.940   7.661  21.824  0.00  0.00    +0.000 A 
ATOM      7  C   UNL     1       1.692   7.347  20.691  0.00  0.00    +0.000 A 
ATOM      8  C   UNL     1       1.738   8.280  19.617  0.00  0.00    +0.000 A 
ATOM      9  C   UNL     1       2.447   8.108  18.396  0.00  0.00    +0.000 A 
ATOM     10  C   UNL     1       2.429   9.088  17.397  0.00  0.00    +0.000 A 
ATOM     11  C   UNL     1       1.711  10.256  17.592  0.00  0.00    +0.000 A 
ATOM     12  C   UNL     1       1.019  10.441  18.788  0.00  0.00    +0.000 A 
ATOM     13  C   UNL     1       1.020   9.489  19.793  0.00  0.00    +0.000 A 
ATOM     14  N   UNL     1       0.323   9.780  20.897  0.00  0.00    +0.000 NA
BRANCH   5  16
ATOM     15  C   UNL     1      -1.012  10.678  23.037  0.00  0.00    +0.000 C 
ATOM     16  C   UNL     1      -0.534   9.237  23.107  0.00  0.00    +0.000 C 
ENDBRANCH   5  16
ENDBRANCH   1   7
BRANCH   2  17
ATOM     17  C   UNL     1       2.798   3.728  20.197  0.00  0.00    +0.000 C 
BRANCH  17  18
ATOM     18  N   UNL     1       3.870   4.123  19.306  0.00  0.00    +0.000 N 
ATOM     19  C   UNL     1       5.084   4.525  19.808  0.00  0.00    +0.000 A 
ATOM     20  N   UNL     1       6.119   4.805  19.090  0.00  0.00    +0.000 NA
ATOM     21  C   UNL     1       6.009   4.639  17.701  0.00  0.00    +0.000 A 
ATOM     22  C   UNL     1       7.152   4.759  16.910  0.00  0.00    +0.000 A 
ATOM     23  C   UNL     1       7.090   4.525  15.532  0.00  0.00    +0.000 A 
ATOM     24  C   UNL     1       5.877   4.188  14.931  0.00  0.00    +0.000 A 
ATOM     25  C   UNL     1       4.721   4.093  15.704  0.00  0.00    +0.000 A 
ATOM     26  C   UNL     1       4.798   4.314  17.082  0.00  0.00    +0.000 A 
ATOM     27  C   UNL     1       3.617   4.137  17.946  0.00  0.00    +0.000 A 
ATOM     28  O   UNL     1       2.490   4.018  17.472  0.00  0.00    +0.000 OA
ENDBRANCH  17  18
ENDBRANCH   2  17
TORSDOF 4
ENDMDL
MODEL 6
REMARK VINA RESULT:      -7.8      2.097      2.805
REMARK  Name = 
REMARK  5 active torsions:
REMARK  status: ('A' for Active; 'I' for Inactive)
REMARK    1  A    between atoms: C_1  and  C_2
REMARK    2  A    between atoms: C_2  and  C_3
REMARK    3  A    between atoms: C_5  and  N_6
REMARK    4  A    between atoms: C_7  and  C_9
REMARK    5  A    between atoms: C_9  and  N_10
REMARK                            x       y       z     vdW  Elec       q    Type
REMARK                         _______ _______ _______ _____ _____    ______ ____
ROOT
ATOM      1  N   UNL     1       2.060   8.255  18.925  0.00  0.00    +0.000 N 
ATOM      2  C   UNL     1       1.385   8.998  19.884  0.00  0.00    +0.000 C 
ATOM      3  O   UNL     1       0.909   8.572  20.934  0.00  0.00    +0.000 OA
ATOM      4  H   UNL     1       2.133   8.682  18.004  0.00  0.00    +0.000 HD
ENDROOT
BRANCH   1   7
ATOM      5  C   UNL     1       2.341   4.771  20.166  0.00  0.00    +0.000 A 
ATOM      6  C   UNL     1       1.938   6.090  20.061  0.00  0.00    +0.000 A 
ATOM      7  C   UNL     1       2.472   6.897  19.055  0.00  0.00    +0.000 A 
ATOM      8  C   UNL     1       3.455   6.348  18.184  0.00  0.00    +0.000 A 
ATOM      9  C   UNL     1       4.102   7.037  17.120  0.00  0.00    +0.000 A 
ATOM     10  C   UNL     1       5.059   6.407  16.318  0.00  0.00    +0.000 A 
ATOM     11  C   UNL     1       5.391   5.082  16.553  0.00  0.00    +0.000 A 
ATOM     12  C   UNL     1       4.759   4.393  17.586  0.00  0.00    +0.000 A 
ATOM     13  C   UNL     1       3.807   4.992  18.396  0.00  0.00    +0.000 A 
ATOM     14  N   UNL     1       3.266   4.229  19.352  0.00  0.00    +0.000 NA
BRANCH   5  16
ATOM     15  C   UNL     1       2.674   2.673  21.474  0.00  0.00    +0.000 C 
ATOM     16  C   UNL     1       1.785   3.885  21.250  0.00  0.00    +0.000 C 
ENDBRANCH   5  16
ENDBRANCH   1   7
BRANCH   2  17
ATOM     17  C   UNL     1       1.170  10.457  19.499  0.00  0.00    +0.000 C 
BRANCH  17  18
ATOM     18  N   UNL     1      -0.219  10.667  19.145  0.00  0.00    +0.000 N 
ATOM     19  C   UNL     1      -1.058  11.355  19.988  0.00  0.00    +0.000 A 
ATOM     20  N   UNL     1      -2.280  11.666  19.712  0.00  0.00    +0.000 NA
ATOM     21  C   UNL     1      -2.767  11.320  18.443  0.00  0.00    +0.000 A 
ATOM     22  C   UNL     1      -4.018  11.794  18.043  0.00  0.00    +0.000 A 
ATOM     23  C   UNL     1      -4.500  11.531  16.757  0.00  0.00    +0.000 A 
ATOM     24  C   UNL     1      -3.740  10.773  15.865  0.00  0.00    +0.000 A 
ATOM     25  C   UNL     1      -2.502  10.269  16.260  0.00  0.00    +0.000 A 
ATOM     26  C   UNL     1      -2.025  10.551  17.542  0.00  0.00    +0.000 A 
ATOM     27  C   UNL     1      -0.684  10.111  17.967  0.00  0.00    +0.000 A 
ATOM     28  O   UNL     1      -0.039   9.298  17.309  0.00  0.00    +0.000 OA
ENDBRANCH  17  18
ENDBRANCH   2  17
TORSDOF 4
ENDMDL
MODEL 7
REMARK VINA RESULT:      -7.8      2.234      3.459
REMARK  Name = 
REMARK  5 active torsions:
REMARK  status: ('A' for Active; 'I' for Inactive)
REMARK    1  A    between atoms: C_1  and  C_2
REMARK    2  A    between atoms: C_2  and  C_3
REMARK    3  A    between atoms: C_5  and  N_6
REMARK    4  A    between atoms: C_7  and  C_9
REMARK    5  A    between atoms: C_9  and  N_10
REMARK                            x       y       z     vdW  Elec       q    Type
REMARK                         _______ _______ _______ _____ _____    ______ ____
ROOT
ATOM      1  N   UNL     1       2.797   7.118  17.780  0.00  0.00    +0.000 N 
ATOM      2  C   UNL     1       2.151   8.084  18.541  0.00  0.00    +0.000 C 
ATOM      3  O   UNL     1       2.059   8.103  19.767  0.00  0.00    +0.000 OA
ATOM      4  H   UNL     1       2.541   7.087  16.795  0.00  0.00    +0.000 HD
ENDROOT
BRANCH   1   7
ATOM      5  C   UNL     1       5.735   5.260  19.072  0.00  0.00    +0.000 A 
ATOM      6  C   UNL     1       4.959   6.292  18.575  0.00  0.00    +0.000 A 
ATOM      7  C   UNL     1       3.613   6.063  18.282  0.00  0.00    +0.000 A 
ATOM      8  C   UNL     1       3.083   4.755  18.463  0.00  0.00    +0.000 A 
ATOM      9  C   UNL     1       1.742   4.357  18.202  0.00  0.00    +0.000 A 
ATOM     10  C   UNL     1       1.317   3.041  18.413  0.00  0.00    +0.000 A 
ATOM     11  C   UNL     1       2.212   2.096  18.889  0.00  0.00    +0.000 A 
ATOM     12  C   UNL     1       3.526   2.475  19.158  0.00  0.00    +0.000 A 
ATOM     13  C   UNL     1       3.974   3.771  18.958  0.00  0.00    +0.000 A 
ATOM     14  N   UNL     1       5.255   4.015  19.255  0.00  0.00    +0.000 NA
BRANCH   5  16
ATOM     15  C   UNL     1       7.794   6.533  18.472  0.00  0.00    +0.000 C 
ATOM     16  C   UNL     1       7.191   5.480  19.387  0.00  0.00    +0.000 C 
ENDBRANCH   5  16
ENDBRANCH   1   7
BRANCH   2  17
ATOM     17  C   UNL     1       1.434   9.145  17.716  0.00  0.00    +0.000 C 
BRANCH  17  18
ATOM     18  N   UNL     1       0.914  10.174  18.593  0.00  0.00    +0.000 N 
ATOM     19  C   UNL     1      -0.283   9.999  19.244  0.00  0.00    +0.000 A 
ATOM     20  N   UNL     1      -0.775  10.820  20.110  0.00  0.00    +0.000 NA
ATOM     21  C   UNL     1      -0.007  11.946  20.445  0.00  0.00    +0.000 A 
ATOM     22  C   UNL     1      -0.420  12.759  21.501  0.00  0.00    +0.000 A 
ATOM     23  C   UNL     1       0.362  13.845  21.909  0.00  0.00    +0.000 A 
ATOM     24  C   UNL     1       1.556  14.137  21.249  0.00  0.00    +0.000 A 
ATOM     25  C   UNL     1       1.966  13.351  20.174  0.00  0.00    +0.000 A 
ATOM     26  C   UNL     1       1.184  12.261  19.785  0.00  0.00    +0.000 A 
ATOM     27  C   UNL     1       1.628  11.354  18.711  0.00  0.00    +0.000 A 
ATOM     28  O   UNL     1       2.567  11.646  17.973  0.00  0.00    +0.000 OA
ENDBRANCH  17  18
ENDBRANCH   2  17
TORSDOF 4
ENDMDL
MODEL 8
REMARK VINA RESULT:      -7.8      1.810      3.745
REMARK  Name = 
REMARK  5 active torsions:
REMARK  status: ('A' for Active; 'I' for Inactive)
REMARK    1  A    between atoms: C_1  and  C_2
REMARK    2  A    between atoms: C_2  and  C_3
REMARK    3  A    between atoms: C_5  and  N_6
REMARK    4  A    between atoms: C_7  and  C_9
REMARK    5  A    between atoms: C_9  and  N_10
REMARK                            x       y       z     vdW  Elec       q    Type
REMARK                         _______ _______ _______ _____ _____    ______ ____
ROOT
ATOM      1  N   UNL     1       2.136   7.788  19.278  0.00  0.00    +0.000 N 
ATOM      2  C   UNL     1       1.807   8.946  18.585  0.00  0.00    +0.000 C 
ATOM      3  O   UNL     1       2.095   9.202  17.418  0.00  0.00    +0.000 OA
ATOM      4  H   UNL     1       2.082   7.850  20.293  0.00  0.00    +0.000 HD
ENDROOT
BRANCH   1   7
ATOM      5  C   UNL     1       4.220   5.565  17.164  0.00  0.00    +0.000 A 
ATOM      6  C   UNL     1       3.653   6.714  17.687  0.00  0.00    +0.000 A 
ATOM      7  C   UNL     1       2.720   6.615  18.721  0.00  0.00    +0.000 A 
ATOM      8  C   UNL     1       2.343   5.322  19.184  0.00  0.00    +0.000 A 
ATOM      9  C   UNL     1       1.403   5.051  20.217  0.00  0.00    +0.000 A 
ATOM     10  C   UNL     1       1.099   3.741  20.601  0.00  0.00    +0.000 A 
ATOM     11  C   UNL     1       1.722   2.676  19.970  0.00  0.00    +0.000 A 
ATOM     12  C   UNL     1       2.651   2.928  18.962  0.00  0.00    +0.000 A 
ATOM     13  C   UNL     1       2.972   4.215  18.562  0.00  0.00    +0.000 A 
ATOM     14  N   UNL     1       3.881   4.333  17.588  0.00  0.00    +0.000 NA
BRANCH   5  16
ATOM     15  C   UNL     1       5.993   4.346  15.903  0.00  0.00    +0.000 C 
ATOM     16  C   UNL     1       5.221   5.647  16.042  0.00  0.00    +0.000 C 
ENDBRANCH   5  16
ENDBRANCH   1   7
BRANCH   2  17
ATOM     17  C   UNL     1       1.099   9.995  19.432  0.00  0.00    +0.000 C 
BRANCH  17  18
ATOM     18  N   UNL     1      -0.184  10.315  18.840  0.00  0.00    +0.000 N 
ATOM     19  C   UNL     1      -0.611   9.667  17.707  0.00  0.00    +0.000 A 
ATOM     20  N   UNL     1      -1.774   9.822  17.166  0.00  0.00    +0.000 NA
ATOM     21  C   UNL     1      -2.679  10.677  17.812  0.00  0.00    +0.000 A 
ATOM     22  C   UNL     1      -3.999  10.734  17.361  0.00  0.00    +0.000 A 
ATOM     23  C   UNL     1      -4.945  11.517  18.030  0.00  0.00    +0.000 A 
ATOM     24  C   UNL     1      -4.573  12.268  19.146  0.00  0.00    +0.000 A 
ATOM     25  C   UNL     1      -3.252  12.244  19.590  0.00  0.00    +0.000 A 
ATOM     26  C   UNL     1      -2.319  11.446  18.923  0.00  0.00    +0.000 A 
ATOM     27  C   UNL     1      -0.935  11.325  19.414  0.00  0.00    +0.000 A 
ATOM     28  O   UNL     1      -0.492  12.084  20.273  0.00  0.00    +0.000 OA
ENDBRANCH  17  18
ENDBRANCH   2  17
TORSDOF 4
ENDMDL
MODEL 9
REMARK VINA RESULT:      -7.7      1.625      2.180
REMARK  Name = 
REMARK  5 active torsions:
REMARK  status: ('A' for Active; 'I' for Inactive)
REMARK    1  A    between atoms: C_1  and  C_2
REMARK    2  A    between atoms: C_2  and  C_3
REMARK    3  A    between atoms: C_5  and  N_6
REMARK    4  A    between atoms: C_7  and  C_9
REMARK    5  A    between atoms: C_9  and  N_10
REMARK                            x       y       z     vdW  Elec       q    Type
REMARK                         _______ _______ _______ _____ _____    ______ ____
ROOT
ATOM      1  N   UNL     1       2.141   7.820  20.306  0.00  0.00    +0.000 N 
ATOM      2  C   UNL     1       1.130   8.280  21.139  0.00  0.00    +0.000 C 
ATOM      3  O   UNL     1       0.104   7.675  21.443  0.00  0.00    +0.000 OA
ATOM      4  H   UNL     1       2.763   8.533  19.930  0.00  0.00    +0.000 HD
ENDROOT
BRANCH   1   7
ATOM      5  C   UNL     1       1.698   4.165  19.855  0.00  0.00    +0.000 A 
ATOM      6  C   UNL     1       1.581   5.439  20.383  0.00  0.00    +0.000 A 
ATOM      7  C   UNL     1       2.260   6.501  19.782  0.00  0.00    +0.000 A 
ATOM      8  C   UNL     1       3.093   6.235  18.659  0.00  0.00    +0.000 A 
ATOM      9  C   UNL     1       3.855   7.199  17.942  0.00  0.00    +0.000 A 
ATOM     10  C   UNL     1       4.647   6.837  16.847  0.00  0.00    +0.000 A 
ATOM     11  C   UNL     1       4.695   5.513  16.441  0.00  0.00    +0.000 A 
ATOM     12  C   UNL     1       3.947   4.560  17.129  0.00  0.00    +0.000 A 
ATOM     13  C   UNL     1       3.154   4.891  18.216  0.00  0.00    +0.000 A 
ATOM     14  N   UNL     1       2.478   3.891  18.792  0.00  0.00    +0.000 NA
BRANCH   5  16
ATOM     15  C   UNL     1       1.615   2.639  21.827  0.00  0.00    +0.000 C 
ATOM     16  C   UNL     1       0.984   3.004  20.493  0.00  0.00    +0.000 C 
ENDBRANCH   5  16
ENDBRANCH   1   7
BRANCH   2  17
ATOM     17  C   UNL     1       1.328   9.712  21.621  0.00  0.00    +0.000 C 
BRANCH  17  18
ATOM     18  N   UNL     1       0.261  10.549  21.110  0.00  0.00    +0.000 N 
ATOM     19  C   UNL     1       0.121  10.757  19.759  0.00  0.00    +0.000 A 
ATOM     20  N   UNL     1      -0.850  11.410  19.214  0.00  0.00    +0.000 NA
ATOM     21  C   UNL     1      -1.857  11.899  20.059  0.00  0.00    +0.000 A 
ATOM     22  C   UNL     1      -3.007  12.453  19.494  0.00  0.00    +0.000 A 
ATOM     23  C   UNL     1      -4.063  12.880  20.307  0.00  0.00    +0.000 A 
ATOM     24  C   UNL     1      -3.967  12.774  21.695  0.00  0.00    +0.000 A 
ATOM     25  C   UNL     1      -2.813  12.251  22.274  0.00  0.00    +0.000 A 
ATOM     26  C   UNL     1      -1.771  11.814  21.451  0.00  0.00    +0.000 A 
ATOM     27  C   UNL     1      -0.572  11.173  22.022  0.00  0.00    +0.000 A 
ATOM     28  O   UNL     1      -0.341  11.207  23.228  0.00  0.00    +0.000 OA
ENDBRANCH  17  18
ENDBRANCH   2  17
TORSDOF 4
ENDMDL
