MODEL 1
REMARK VINA RESULT:      -8.0      0.000      0.000
REMARK  Name = 
REMARK  8 active torsions:
REMARK  status: ('A' for Active; 'I' for Inactive)
REMARK    1  A    between atoms: C_1  and  N_2
REMARK    2  A    between atoms: C_6  and  S_7
REMARK    3  A    between atoms: S_7  and  C_8
REMARK    4  A    between atoms: C_8  and  C_9
REMARK    5  A    between atoms: C_13  and  N_14
REMARK    6  A    between atoms: C_19  and  C_20
REMARK    7  A    between atoms: C_20  and  N_21
REMARK    8  A    between atoms: C_23  and  C_24
REMARK                            x       y       z     vdW  Elec       q    Type
REMARK                         _______ _______ _______ _____ _____    ______ ____
ROOT
ATOM      1  N   UNL     1       6.092   5.437  15.591  0.00  0.00    +0.000 N 
ATOM      2  C   UNL     1       4.891   6.286  15.787  0.00  0.00    +0.000 C 
ATOM      3  C   UNL     1       4.116   5.513  16.811  0.00  0.00    +0.000 A 
ATOM      4  C   UNL     1       4.468   4.168  16.666  0.00  0.00    +0.000 A 
ATOM      5  C   UNL     1       4.055   3.180  17.544  0.00  0.00    +0.000 A 
ATOM      6  C   UNL     1       3.261   3.565  18.632  0.00  0.00    +0.000 A 
ATOM      7  C   UNL     1       2.909   4.932  18.786  0.00  0.00    +0.000 A 
ATOM      8  C   UNL     1       3.336   5.929  17.881  0.00  0.00    +0.000 A 
ATOM      9  C   UNL     1       5.637   4.099  15.754  0.00  0.00    +0.000 C 
ATOM     10  O   UNL     1       6.182   3.065  15.416  0.00  0.00    +0.000 OA
ENDROOT
BRANCH   1  15
ATOM     11  C   UNL     1       7.811   7.811  17.768  0.00  0.00    +0.000 A 
ATOM     12  C   UNL     1       7.837   7.015  18.923  0.00  0.00    +0.000 A 
ATOM     13  C   UNL     1       7.729   5.630  18.830  0.00  0.00    +0.000 A 
ATOM     14  C   UNL     1       7.464   5.038  17.604  0.00  0.00    +0.000 A 
ATOM     15  C   UNL     1       7.155   5.848  16.500  0.00  0.00    +0.000 A 
ATOM     16  C   UNL     1       7.492   7.209  16.542  0.00  0.00    +0.000 A 
BRANCH  11  17
ATOM     17  C   UNL     1       7.954   9.311  17.864  0.00  0.00    +0.000 C 
BRANCH  17  18
ATOM     18  S   UNL     1       9.228   9.826  19.058  0.00  0.00    +0.000 S 
BRANCH  18  24
ATOM     19  C   UNL     1      11.926  11.523  19.463  0.00  0.00    +0.000 C 
ATOM     20  N   UNL     1      10.768  12.059  18.785  0.00  0.00    +0.000 N 
ATOM     21  C   UNL     1      10.694  13.313  18.250  0.00  0.00    +0.000 A 
ATOM     22  N   UNL     1       9.524  13.546  17.703  0.00  0.00    +0.000 NA
ATOM     23  C   UNL     1       8.809  12.394  17.886  0.00  0.00    +0.000 A 
ATOM     24  C   UNL     1       9.564  11.442  18.554  0.00  0.00    +0.000 A 
ENDBRANCH  18  24
ENDBRANCH  17  18
ENDBRANCH  11  17
ENDBRANCH   1  15
BRANCH   8  25
ATOM     25  C   UNL     1       3.029   7.375  18.185  0.00  0.00    +0.000 C 
ATOM     26  F   UNL     1       2.021   7.899  17.434  0.00  0.00    +0.000 F 
ATOM     27  F   UNL     1       2.653   7.562  19.479  0.00  0.00    +0.000 F 
ATOM     28  F   UNL     1       4.099   8.190  17.982  0.00  0.00    +0.000 F 
ENDBRANCH   8  25
BRANCH   6  29
ATOM     29  C   UNL     1       2.836   2.550  19.665  0.00  0.00    +0.000 C 
BRANCH  29  30
ATOM     30  N   UNL     1       1.863   1.609  19.128  0.00  0.00    +0.000 NA
ATOM     31  H   UNL     1       1.687   0.878  19.815  0.00  0.00    +0.000 HD
ATOM     32  H   UNL     1       2.268   1.139  18.318  0.00  0.00    +0.000 HD
ENDBRANCH  29  30
ENDBRANCH   6  29
TORSDOF 7
ENDMDL
MODEL 2
REMARK VINA RESULT:      -7.9      4.483      6.905
REMARK  Name = 
REMARK  8 active torsions:
REMARK  status: ('A' for Active; 'I' for Inactive)
REMARK    1  A    between atoms: C_1  and  N_2
REMARK    2  A    between atoms: C_6  and  S_7
REMARK    3  A    between atoms: S_7  and  C_8
REMARK    4  A    between atoms: C_8  and  C_9
REMARK    5  A    between atoms: C_13  and  N_14
REMARK    6  A    between atoms: C_19  and  C_20
REMARK    7  A    between atoms: C_20  and  N_21
REMARK    8  A    between atoms: C_23  and  C_24
REMARK                            x       y       z     vdW  Elec       q    Type
REMARK                         _______ _______ _______ _____ _____    ______ ____
ROOT
ATOM      1  N   UNL     1       4.009   4.544  19.312  0.00  0.00    +0.000 N 
ATOM      2  C   UNL     1       5.360   5.154  19.370  0.00  0.00    +0.000 C 
ATOM      3  C   UNL     1       5.852   4.979  17.964  0.00  0.00    +0.000 A 
ATOM      4  C   UNL     1       5.201   3.861  17.435  0.00  0.00    +0.000 A 
ATOM      5  C   UNL     1       5.300   3.487  16.107  0.00  0.00    +0.000 A 
ATOM      6  C   UNL     1       6.082   4.286  15.261  0.00  0.00    +0.000 A 
ATOM      7  C   UNL     1       6.737   5.427  15.794  0.00  0.00    +0.000 A 
ATOM      8  C   UNL     1       6.628   5.795  17.153  0.00  0.00    +0.000 A 
ATOM      9  C   UNL     1       4.119   3.478  18.376  0.00  0.00    +0.000 C 
ATOM     10  O   UNL     1       3.369   2.534  18.210  0.00  0.00    +0.000 OA
ENDROOT
BRANCH   1  15
ATOM     11  C   UNL     1       2.015   7.525  19.998  0.00  0.00    +0.000 A 
ATOM     12  C   UNL     1       2.374   8.253  18.854  0.00  0.00    +0.000 A 
ATOM     13  C   UNL     1       2.851   7.600  17.721  0.00  0.00    +0.000 A 
ATOM     14  C   UNL     1       3.098   6.236  17.762  0.00  0.00    +0.000 A 
ATOM     15  C   UNL     1       3.011   5.556  18.986  0.00  0.00    +0.000 A 
ATOM     16  C   UNL     1       2.316   6.156  20.047  0.00  0.00    +0.000 A 
BRANCH  11  17
ATOM     17  C   UNL     1       1.474   8.228  21.219  0.00  0.00    +0.000 C 
BRANCH  17  18
ATOM     18  S   UNL     1      -0.314   8.557  21.112  0.00  0.00    +0.000 S 
BRANCH  18  24
ATOM     19  C   UNL     1       0.303  11.370  19.686  0.00  0.00    +0.000 C 
ATOM     20  N   UNL     1      -0.139  11.278  21.058  0.00  0.00    +0.000 N 
ATOM     21  C   UNL     1      -0.343  12.349  21.880  0.00  0.00    +0.000 A 
ATOM     22  N   UNL     1      -0.733  11.981  23.079  0.00  0.00    +0.000 NA
ATOM     23  C   UNL     1      -0.788  10.615  23.033  0.00  0.00    +0.000 A 
ATOM     24  C   UNL     1      -0.429  10.146  21.778  0.00  0.00    +0.000 A 
ENDBRANCH  18  24
ENDBRANCH  17  18
ENDBRANCH  11  17
ENDBRANCH   1  15
BRANCH   8  25
ATOM     25  C   UNL     1       7.248   7.092  17.613  0.00  0.00    +0.000 C 
ATOM     26  F   UNL     1       6.345   8.081  17.867  0.00  0.00    +0.000 F 
ATOM     27  F   UNL     1       7.959   6.945  18.763  0.00  0.00    +0.000 F 
ATOM     28  F   UNL     1       8.111   7.612  16.700  0.00  0.00    +0.000 F 
ENDBRANCH   8  25
BRANCH   6  29
ATOM     29  C   UNL     1       6.176   3.974  13.787  0.00  0.00    +0.000 C 
BRANCH  29  30
ATOM     30  N   UNL     1       7.200   4.775  13.131  0.00  0.00    +0.000 NA
ATOM     31  H   UNL     1       6.837   5.125  12.245  0.00  0.00    +0.000 HD
ATOM     32  H   UNL     1       7.988   4.173  12.890  0.00  0.00    +0.000 HD
ENDBRANCH  29  30
ENDBRANCH   6  29
TORSDOF 7
ENDMDL
MODEL 3
REMARK VINA RESULT:      -7.8      4.282      6.697
REMARK  Name = 
REMARK  8 active torsions:
REMARK  status: ('A' for Active; 'I' for Inactive)
REMARK    1  A    between atoms: C_1  and  N_2
REMARK    2  A    between atoms: C_6  and  S_7
REMARK    3  A    between atoms: S_7  and  C_8
REMARK    4  A    between atoms: C_8  and  C_9
REMARK    5  A    between atoms: C_13  and  N_14
REMARK    6  A    between atoms: C_19  and  C_20
REMARK    7  A    between atoms: C_20  and  N_21
REMARK    8  A    between atoms: C_23  and  C_24
REMARK                            x       y       z     vdW  Elec       q    Type
REMARK                         _______ _______ _______ _____ _____    ______ ____
ROOT
ATOM      1  N   UNL     1       4.167   4.526  19.086  0.00  0.00    +0.000 N 
ATOM      2  C   UNL     1       5.500   5.160  19.243  0.00  0.00    +0.000 C 
ATOM      3  C   UNL     1       6.056   5.087  17.853  0.00  0.00    +0.000 A 
ATOM      4  C   UNL     1       5.456   3.992  17.225  0.00  0.00    +0.000 A 
ATOM      5  C   UNL     1       5.622   3.708  15.881  0.00  0.00    +0.000 A 
ATOM      6  C   UNL     1       6.419   4.577  15.124  0.00  0.00    +0.000 A 
ATOM      7  C   UNL     1       7.023   5.695  15.758  0.00  0.00    +0.000 A 
ATOM      8  C   UNL     1       6.846   5.971  17.131  0.00  0.00    +0.000 A 
ATOM      9  C   UNL     1       4.344   3.525  18.090  0.00  0.00    +0.000 C 
ATOM     10  O   UNL     1       3.625   2.578  17.829  0.00  0.00    +0.000 OA
ENDROOT
BRANCH   1  15
ATOM     11  C   UNL     1       2.118   7.449  19.850  0.00  0.00    +0.000 A 
ATOM     12  C   UNL     1       2.485   8.225  18.741  0.00  0.00    +0.000 A 
ATOM     13  C   UNL     1       2.991   7.623  17.593  0.00  0.00    +0.000 A 
ATOM     14  C   UNL     1       3.258   6.262  17.586  0.00  0.00    +0.000 A 
ATOM     15  C   UNL     1       3.160   5.534  18.782  0.00  0.00    +0.000 A 
ATOM     16  C   UNL     1       2.438   6.083  19.853  0.00  0.00    +0.000 A 
BRANCH  11  17
ATOM     17  C   UNL     1       1.545   8.097  21.088  0.00  0.00    +0.000 C 
BRANCH  17  18
ATOM     18  S   UNL     1      -0.124   8.773  20.824  0.00  0.00    +0.000 S 
BRANCH  18  24
ATOM     19  C   UNL     1      -1.140  10.870  23.037  0.00  0.00    +0.000 C 
ATOM     20  N   UNL     1      -0.331  11.267  21.908  0.00  0.00    +0.000 N 
ATOM     21  C   UNL     1       0.087  12.544  21.665  0.00  0.00    +0.000 A 
ATOM     22  N   UNL     1       0.800  12.626  20.565  0.00  0.00    +0.000 NA
ATOM     23  C   UNL     1       0.851  11.350  20.077  0.00  0.00    +0.000 A 
ATOM     24  C   UNL     1       0.159  10.475  20.900  0.00  0.00    +0.000 A 
ENDBRANCH  18  24
ENDBRANCH  17  18
ENDBRANCH  11  17
ENDBRANCH   1  15
BRANCH   8  25
ATOM     25  C   UNL     1       7.413   7.249  17.701  0.00  0.00    +0.000 C 
ATOM     26  F   UNL     1       8.102   7.080  18.865  0.00  0.00    +0.000 F 
ATOM     27  F   UNL     1       8.284   7.853  16.848  0.00  0.00    +0.000 F 
ATOM     28  F   UNL     1       6.452   8.171  17.976  0.00  0.00    +0.000 F 
ENDBRANCH   8  25
BRANCH   6  29
ATOM     29  C   UNL     1       6.585   4.365  13.638  0.00  0.00    +0.000 C 
BRANCH  29  30
ATOM     30  N   UNL     1       5.897   3.164  13.186  0.00  0.00    +0.000 NA
ATOM     31  H   UNL     1       5.628   3.278  12.209  0.00  0.00    +0.000 HD
ATOM     32  H   UNL     1       5.024   3.066  13.705  0.00  0.00    +0.000 HD
ENDBRANCH  29  30
ENDBRANCH   6  29
TORSDOF 7
ENDMDL
MODEL 4
REMARK VINA RESULT:      -7.8      4.146      6.565
REMARK  Name = 
REMARK  8 active torsions:
REMARK  status: ('A' for Active; 'I' for Inactive)
REMARK    1  A    between atoms: C_1  and  N_2
REMARK    2  A    between atoms: C_6  and  S_7
REMARK    3  A    between atoms: S_7  and  C_8
REMARK    4  A    between atoms: C_8  and  C_9
REMARK    5  A    between atoms: C_13  and  N_14
REMARK    6  A    between atoms: C_19  and  C_20
REMARK    7  A    between atoms: C_20  and  N_21
REMARK    8  A    between atoms: C_23  and  C_24
REMARK                            x       y       z     vdW  Elec       q    Type
REMARK                         _______ _______ _______ _____ _____    ______ ____
ROOT
ATOM      1  N   UNL     1       4.137   4.586  19.103  0.00  0.00    +0.000 N 
ATOM      2  C   UNL     1       5.469   5.219  19.269  0.00  0.00    +0.000 C 
ATOM      3  C   UNL     1       6.036   5.141  17.883  0.00  0.00    +0.000 A 
ATOM      4  C   UNL     1       5.440   4.045  17.254  0.00  0.00    +0.000 A 
ATOM      5  C   UNL     1       5.617   3.755  15.912  0.00  0.00    +0.000 A 
ATOM      6  C   UNL     1       6.422   4.621  15.159  0.00  0.00    +0.000 A 
ATOM      7  C   UNL     1       7.022   5.740  15.794  0.00  0.00    +0.000 A 
ATOM      8  C   UNL     1       6.834   6.021  17.165  0.00  0.00    +0.000 A 
ATOM      9  C   UNL     1       4.320   3.582  18.112  0.00  0.00    +0.000 C 
ATOM     10  O   UNL     1       3.603   2.635  17.848  0.00  0.00    +0.000 OA
ENDROOT
BRANCH   1  15
ATOM     11  C   UNL     1       2.118   7.542  19.823  0.00  0.00    +0.000 A 
ATOM     12  C   UNL     1       2.478   8.289  18.692  0.00  0.00    +0.000 A 
ATOM     13  C   UNL     1       2.966   7.657  17.552  0.00  0.00    +0.000 A 
ATOM     14  C   UNL     1       3.223   6.294  17.574  0.00  0.00    +0.000 A 
ATOM     15  C   UNL     1       3.134   5.595  18.787  0.00  0.00    +0.000 A 
ATOM     16  C   UNL     1       2.429   6.174  19.853  0.00  0.00    +0.000 A 
BRANCH  11  17
ATOM     17  C   UNL     1       1.566   8.223  21.052  0.00  0.00    +0.000 C 
BRANCH  17  18
ATOM     18  S   UNL     1      -0.095   8.922  20.786  0.00  0.00    +0.000 S 
BRANCH  18  24
ATOM     19  C   UNL     1      -1.019  10.323  18.046  0.00  0.00    +0.000 C 
ATOM     20  N   UNL     1      -0.193  10.997  19.020  0.00  0.00    +0.000 N 
ATOM     21  C   UNL     1       0.272  12.275  18.891  0.00  0.00    +0.000 A 
ATOM     22  N   UNL     1       1.009  12.636  19.916  0.00  0.00    +0.000 NA
ATOM     23  C   UNL     1       1.020  11.549  20.747  0.00  0.00    +0.000 A 
ATOM     24  C   UNL     1       0.270  10.511  20.218  0.00  0.00    +0.000 A 
ENDBRANCH  18  24
ENDBRANCH  17  18
ENDBRANCH  11  17
ENDBRANCH   1  15
BRANCH   8  25
ATOM     25  C   UNL     1       7.398   7.300  17.735  0.00  0.00    +0.000 C 
ATOM     26  F   UNL     1       8.098   7.131  18.892  0.00  0.00    +0.000 F 
ATOM     27  F   UNL     1       8.257   7.913  16.877  0.00  0.00    +0.000 F 
ATOM     28  F   UNL     1       6.434   8.215  18.022  0.00  0.00    +0.000 F 
ENDBRANCH   8  25
BRANCH   6  29
ATOM     29  C   UNL     1       6.599   4.403  13.676  0.00  0.00    +0.000 C 
BRANCH  29  30
ATOM     30  N   UNL     1       6.066   3.116  13.252  0.00  0.00    +0.000 NA
ATOM     31  H   UNL     1       6.586   2.787  12.441  0.00  0.00    +0.000 HD
ATOM     32  H   UNL     1       5.104   3.243  12.934  0.00  0.00    +0.000 HD
ENDBRANCH  29  30
ENDBRANCH   6  29
TORSDOF 7
ENDMDL
MODEL 5
REMARK VINA RESULT:      -7.8      4.759      7.432
REMARK  Name = 
REMARK  8 active torsions:
REMARK  status: ('A' for Active; 'I' for Inactive)
REMARK    1  A    between atoms: C_1  and  N_2
REMARK    2  A    between atoms: C_6  and  S_7
REMARK    3  A    between atoms: S_7  and  C_8
REMARK    4  A    between atoms: C_8  and  C_9
REMARK    5  A    between atoms: C_13  and  N_14
REMARK    6  A    between atoms: C_19  and  C_20
REMARK    7  A    between atoms: C_20  and  N_21
REMARK    8  A    between atoms: C_23  and  C_24
REMARK                            x       y       z     vdW  Elec       q    Type
REMARK                         _______ _______ _______ _____ _____    ______ ____
ROOT
ATOM      1  N   UNL     1       2.548   7.600  19.386  0.00  0.00    +0.000 N 
ATOM      2  C   UNL     1       2.206   8.367  20.610  0.00  0.00    +0.000 C 
ATOM      3  C   UNL     1       1.057   9.212  20.148  0.00  0.00    +0.000 A 
ATOM      4  C   UNL     1       1.209   9.398  18.771  0.00  0.00    +0.000 A 
ATOM      5  C   UNL     1       0.251  10.009  17.981  0.00  0.00    +0.000 A 
ATOM      6  C   UNL     1      -0.929  10.439  18.602  0.00  0.00    +0.000 A 
ATOM      7  C   UNL     1      -1.090  10.243  19.999  0.00  0.00    +0.000 A 
ATOM      8  C   UNL     1      -0.102   9.620  20.793  0.00  0.00    +0.000 A 
ATOM      9  C   UNL     1       2.279   8.482  18.303  0.00  0.00    +0.000 C 
ATOM     10  O   UNL     1       2.660   8.407  17.149  0.00  0.00    +0.000 OA
ENDROOT
BRANCH   1  15
ATOM     11  C   UNL     1       2.070   4.103  18.448  0.00  0.00    +0.000 A 
ATOM     12  C   UNL     1       1.877   3.592  19.740  0.00  0.00    +0.000 A 
ATOM     13  C   UNL     1       1.456   4.424  20.774  0.00  0.00    +0.000 A 
ATOM     14  C   UNL     1       1.351   5.790  20.563  0.00  0.00    +0.000 A 
ATOM     15  C   UNL     1       1.816   6.340  19.359  0.00  0.00    +0.000 A 
ATOM     16  C   UNL     1       2.011   5.492  18.257  0.00  0.00    +0.000 A 
BRANCH  11  17
ATOM     17  C   UNL     1       2.502   3.199  17.319  0.00  0.00    +0.000 C 
BRANCH  17  18
ATOM     18  S   UNL     1       4.274   2.787  17.382  0.00  0.00    +0.000 S 
BRANCH  18  24
ATOM     19  C   UNL     1       5.580   5.144  19.133  0.00  0.00    +0.000 C 
ATOM     20  N   UNL     1       5.535   5.185  17.690  0.00  0.00    +0.000 N 
ATOM     21  C   UNL     1       6.033   6.203  16.928  0.00  0.00    +0.000 A 
ATOM     22  N   UNL     1       5.850   5.991  15.645  0.00  0.00    +0.000 NA
ATOM     23  C   UNL     1       5.210   4.784  15.570  0.00  0.00    +0.000 A 
ATOM     24  C   UNL     1       5.005   4.252  16.834  0.00  0.00    +0.000 A 
ENDBRANCH  18  24
ENDBRANCH  17  18
ENDBRANCH  11  17
ENDBRANCH   1  15
BRANCH   8  25
ATOM     25  C   UNL     1      -0.402   9.331  22.244  0.00  0.00    +0.000 C 
ATOM     26  F   UNL     1      -1.269  10.212  22.818  0.00  0.00    +0.000 F 
ATOM     27  F   UNL     1      -0.960   8.104  22.421  0.00  0.00    +0.000 F 
ATOM     28  F   UNL     1       0.713   9.355  23.023  0.00  0.00    +0.000 F 
ENDBRANCH   8  25
BRANCH   6  29
ATOM     29  C   UNL     1      -2.044  11.049  17.787  0.00  0.00    +0.000 C 
BRANCH  29  30
ATOM     30  N   UNL     1      -1.610  12.254  17.096  0.00  0.00    +0.000 NA
ATOM     31  H   UNL     1      -2.372  12.602  16.515  0.00  0.00    +0.000 HD
ATOM     32  H   UNL     1      -0.856  12.014  16.452  0.00  0.00    +0.000 HD
ENDBRANCH  29  30
ENDBRANCH   6  29
TORSDOF 7
ENDMDL
MODEL 6
REMARK VINA RESULT:      -7.7      0.506      1.312
REMARK  Name = 
REMARK  8 active torsions:
REMARK  status: ('A' for Active; 'I' for Inactive)
REMARK    1  A    between atoms: C_1  and  N_2
REMARK    2  A    between atoms: C_6  and  S_7
REMARK    3  A    between atoms: S_7  and  C_8
REMARK    4  A    between atoms: C_8  and  C_9
REMARK    5  A    between atoms: C_13  and  N_14
REMARK    6  A    between atoms: C_19  and  C_20
REMARK    7  A    between atoms: C_20  and  N_21
REMARK    8  A    between atoms: C_23  and  C_24
REMARK                            x       y       z     vdW  Elec       q    Type
REMARK                         _______ _______ _______ _____ _____    ______ ____
ROOT
ATOM      1  N   UNL     1       6.107   5.527  15.630  0.00  0.00    +0.000 N 
ATOM      2  C   UNL     1       4.896   6.360  15.841  0.00  0.00    +0.000 C 
ATOM      3  C   UNL     1       4.124   5.554  16.843  0.00  0.00    +0.000 A 
ATOM      4  C   UNL     1       4.490   4.217  16.668  0.00  0.00    +0.000 A 
ATOM      5  C   UNL     1       4.083   3.204  17.519  0.00  0.00    +0.000 A 
ATOM      6  C   UNL     1       3.281   3.556  18.613  0.00  0.00    +0.000 A 
ATOM      7  C   UNL     1       2.915   4.915  18.798  0.00  0.00    +0.000 A 
ATOM      8  C   UNL     1       3.336   5.937  17.920  0.00  0.00    +0.000 A 
ATOM      9  C   UNL     1       5.663   4.181  15.759  0.00  0.00    +0.000 C 
ATOM     10  O   UNL     1       6.219   3.160  15.399  0.00  0.00    +0.000 OA
ENDROOT
BRANCH   1  15
ATOM     11  C   UNL     1       7.890   7.914  17.741  0.00  0.00    +0.000 A 
ATOM     12  C   UNL     1       7.832   7.181  18.935  0.00  0.00    +0.000 A 
ATOM     13  C   UNL     1       7.647   5.802  18.910  0.00  0.00    +0.000 A 
ATOM     14  C   UNL     1       7.387   5.160  17.708  0.00  0.00    +0.000 A 
ATOM     15  C   UNL     1       7.161   5.925  16.554  0.00  0.00    +0.000 A 
ATOM     16  C   UNL     1       7.576   7.266  16.536  0.00  0.00    +0.000 A 
BRANCH  11  17
ATOM     17  C   UNL     1       8.115   9.407  17.764  0.00  0.00    +0.000 C 
BRANCH  17  18
ATOM     18  S   UNL     1       9.149   9.944  19.163  0.00  0.00    +0.000 S 
BRANCH  18  24
ATOM     19  C   UNL     1       8.175  12.564  17.577  0.00  0.00    +0.000 C 
ATOM     20  N   UNL     1       9.572  12.263  17.792  0.00  0.00    +0.000 N 
ATOM     21  C   UNL     1      10.607  13.041  17.360  0.00  0.00    +0.000 A 
ATOM     22  N   UNL     1      11.773  12.529  17.681  0.00  0.00    +0.000 NA
ATOM     23  C   UNL     1      11.483  11.373  18.352  0.00  0.00    +0.000 A 
ATOM     24  C   UNL     1      10.113  11.183  18.444  0.00  0.00    +0.000 A 
ENDBRANCH  18  24
ENDBRANCH  17  18
ENDBRANCH  11  17
ENDBRANCH   1  15
BRANCH   8  25
ATOM     25  C   UNL     1       3.014   7.373  18.257  0.00  0.00    +0.000 C 
ATOM     26  F   UNL     1       2.679   7.575  19.562  0.00  0.00    +0.000 F 
ATOM     27  F   UNL     1       4.062   8.207  18.017  0.00  0.00    +0.000 F 
ATOM     28  F   UNL     1       1.972   7.859  17.532  0.00  0.00    +0.000 F 
ENDBRANCH   8  25
BRANCH   6  29
ATOM     29  C   UNL     1       2.861   2.512  19.620  0.00  0.00    +0.000 C 
BRANCH  29  30
ATOM     30  N   UNL     1       1.994   1.505  19.023  0.00  0.00    +0.000 NA
ATOM     31  H   UNL     1       1.133   1.948  18.706  0.00  0.00    +0.000 HD
ATOM     32  H   UNL     1       1.715   0.838  19.743  0.00  0.00    +0.000 HD
ENDBRANCH  29  30
ENDBRANCH   6  29
TORSDOF 7
ENDMDL
MODEL 7
REMARK VINA RESULT:      -7.7      4.503      7.034
REMARK  Name = 
REMARK  8 active torsions:
REMARK  status: ('A' for Active; 'I' for Inactive)
REMARK    1  A    between atoms: C_1  and  N_2
REMARK    2  A    between atoms: C_6  and  S_7
REMARK    3  A    between atoms: S_7  and  C_8
REMARK    4  A    between atoms: C_8  and  C_9
REMARK    5  A    between atoms: C_13  and  N_14
REMARK    6  A    between atoms: C_19  and  C_20
REMARK    7  A    between atoms: C_20  and  N_21
REMARK    8  A    between atoms: C_23  and  C_24
REMARK                            x       y       z     vdW  Elec       q    Type
REMARK                         _______ _______ _______ _____ _____    ______ ____
ROOT
ATOM      1  N   UNL     1       3.973   4.757  19.121  0.00  0.00    +0.000 N 
ATOM      2  C   UNL     1       5.316   5.361  19.303  0.00  0.00    +0.000 C 
ATOM      3  C   UNL     1       5.943   5.163  17.955  0.00  0.00    +0.000 A 
ATOM      4  C   UNL     1       5.340   4.040  17.381  0.00  0.00    +0.000 A 
ATOM      5  C   UNL     1       5.568   3.645  16.075  0.00  0.00    +0.000 A 
ATOM      6  C   UNL     1       6.434   4.428  15.299  0.00  0.00    +0.000 A 
ATOM      7  C   UNL     1       7.041   5.573  15.877  0.00  0.00    +0.000 A 
ATOM      8  C   UNL     1       6.800   5.963  17.213  0.00  0.00    +0.000 A 
ATOM      9  C   UNL     1       4.168   3.676  18.216  0.00  0.00    +0.000 C 
ATOM     10  O   UNL     1       3.433   2.733  17.990  0.00  0.00    +0.000 OA
ENDROOT
BRANCH   1  15
ATOM     11  C   UNL     1       2.045   7.833  19.510  0.00  0.00    +0.000 A 
ATOM     12  C   UNL     1       2.468   8.464  18.331  0.00  0.00    +0.000 A 
ATOM     13  C   UNL     1       2.967   7.717  17.268  0.00  0.00    +0.000 A 
ATOM     14  C   UNL     1       3.172   6.353  17.418  0.00  0.00    +0.000 A 
ATOM     15  C   UNL     1       3.019   5.768  18.684  0.00  0.00    +0.000 A 
ATOM     16  C   UNL     1       2.303   6.463  19.670  0.00  0.00    +0.000 A 
BRANCH  11  17
ATOM     17  C   UNL     1       1.480   8.638  20.655  0.00  0.00    +0.000 C 
BRANCH  17  18
ATOM     18  S   UNL     1       0.764  10.224  20.118  0.00  0.00    +0.000 S 
BRANCH  18  24
ATOM     19  C   UNL     1      -0.233  13.173  20.915  0.00  0.00    +0.000 C 
ATOM     20  N   UNL     1      -0.487  12.019  21.746  0.00  0.00    +0.000 N 
ATOM     21  C   UNL     1      -1.166  12.051  22.930  0.00  0.00    +0.000 A 
ATOM     22  N   UNL     1      -1.244  10.863  23.484  0.00  0.00    +0.000 NA
ATOM     23  C   UNL     1      -0.591  10.024  22.622  0.00  0.00    +0.000 A 
ATOM     24  C   UNL     1      -0.113  10.717  21.521  0.00  0.00    +0.000 A 
ENDBRANCH  18  24
ENDBRANCH  17  18
ENDBRANCH  11  17
ENDBRANCH   1  15
BRANCH   8  25
ATOM     25  C   UNL     1       7.380   7.263  17.713  0.00  0.00    +0.000 C 
ATOM     26  F   UNL     1       8.064   7.152  18.886  0.00  0.00    +0.000 F 
ATOM     27  F   UNL     1       8.258   7.811  16.830  0.00  0.00    +0.000 F 
ATOM     28  F   UNL     1       6.428   8.209  17.934  0.00  0.00    +0.000 F 
ENDBRANCH   8  25
BRANCH   6  29
ATOM     29  C   UNL     1       6.671   4.094  13.846  0.00  0.00    +0.000 C 
BRANCH  29  30
ATOM     30  N   UNL     1       7.452   5.125  13.176  0.00  0.00    +0.000 NA
ATOM     31  H   UNL     1       7.144   5.203  12.208  0.00  0.00    +0.000 HD
ATOM     32  H   UNL     1       8.427   4.828  13.135  0.00  0.00    +0.000 HD
ENDBRANCH  29  30
ENDBRANCH   6  29
TORSDOF 7
ENDMDL
MODEL 8
REMARK VINA RESULT:      -7.7      4.345      6.923
REMARK  Name = 
REMARK  8 active torsions:
REMARK  status: ('A' for Active; 'I' for Inactive)
REMARK    1  A    between atoms: C_1  and  N_2
REMARK    2  A    between atoms: C_6  and  S_7
REMARK    3  A    between atoms: S_7  and  C_8
REMARK    4  A    between atoms: C_8  and  C_9
REMARK    5  A    between atoms: C_13  and  N_14
REMARK    6  A    between atoms: C_19  and  C_20
REMARK    7  A    between atoms: C_20  and  N_21
REMARK    8  A    between atoms: C_23  and  C_24
REMARK                            x       y       z     vdW  Elec       q    Type
REMARK                         _______ _______ _______ _____ _____    ______ ____
ROOT
ATOM      1  N   UNL     1       3.881   4.561  19.324  0.00  0.00    +0.000 N 
ATOM      2  C   UNL     1       5.245   5.144  19.379  0.00  0.00    +0.000 C 
ATOM      3  C   UNL     1       5.725   4.968  17.969  0.00  0.00    +0.000 A 
ATOM      4  C   UNL     1       5.048   3.866  17.437  0.00  0.00    +0.000 A 
ATOM      5  C   UNL     1       5.133   3.499  16.106  0.00  0.00    +0.000 A 
ATOM      6  C   UNL     1       5.926   4.287  15.260  0.00  0.00    +0.000 A 
ATOM      7  C   UNL     1       6.607   5.411  15.797  0.00  0.00    +0.000 A 
ATOM      8  C   UNL     1       6.512   5.773  17.159  0.00  0.00    +0.000 A 
ATOM      9  C   UNL     1       3.964   3.499  18.382  0.00  0.00    +0.000 C 
ATOM     10  O   UNL     1       3.195   2.571  18.213  0.00  0.00    +0.000 OA
ENDROOT
BRANCH   1  15
ATOM     11  C   UNL     1       2.016   7.626  20.002  0.00  0.00    +0.000 A 
ATOM     12  C   UNL     1       2.345   8.306  18.820  0.00  0.00    +0.000 A 
ATOM     13  C   UNL     1       2.750   7.603  17.689  0.00  0.00    +0.000 A 
ATOM     14  C   UNL     1       2.955   6.233  17.763  0.00  0.00    +0.000 A 
ATOM     15  C   UNL     1       2.902   5.595  19.011  0.00  0.00    +0.000 A 
ATOM     16  C   UNL     1       2.275   6.250  20.082  0.00  0.00    +0.000 A 
BRANCH  11  17
ATOM     17  C   UNL     1       1.553   8.384  21.222  0.00  0.00    +0.000 C 
BRANCH  17  18
ATOM     18  S   UNL     1      -0.259   8.529  21.320  0.00  0.00    +0.000 S 
BRANCH  18  24
ATOM     19  C   UNL     1      -0.916  11.332  22.746  0.00  0.00    +0.000 C 
ATOM     20  N   UNL     1      -0.809  11.199  21.312  0.00  0.00    +0.000 N 
ATOM     21  C   UNL     1      -0.965  12.225  20.425  0.00  0.00    +0.000 A 
ATOM     22  N   UNL     1      -0.826  11.826  19.182  0.00  0.00    +0.000 NA
ATOM     23  C   UNL     1      -0.564  10.486  19.265  0.00  0.00    +0.000 A 
ATOM     24  C   UNL     1      -0.539  10.066  20.586  0.00  0.00    +0.000 A 
ENDBRANCH  18  24
ENDBRANCH  17  18
ENDBRANCH  11  17
ENDBRANCH   1  15
BRANCH   8  25
ATOM     25  C   UNL     1       7.161   7.055  17.623  0.00  0.00    +0.000 C 
ATOM     26  F   UNL     1       8.064   7.571  16.743  0.00  0.00    +0.000 F 
ATOM     27  F   UNL     1       6.253   8.045  17.837  0.00  0.00    +0.000 F 
ATOM     28  F   UNL     1       7.837   6.904  18.794  0.00  0.00    +0.000 F 
ENDBRANCH   8  25
BRANCH   6  29
ATOM     29  C   UNL     1       6.005   3.983  13.784  0.00  0.00    +0.000 C 
BRANCH  29  30
ATOM     30  N   UNL     1       7.169   4.605  13.167  0.00  0.00    +0.000 NA
ATOM     31  H   UNL     1       6.936   4.886  12.216  0.00  0.00    +0.000 HD
ATOM     32  H   UNL     1       7.909   3.908  13.078  0.00  0.00    +0.000 HD
ENDBRANCH  29  30
ENDBRANCH   6  29
TORSDOF 7
ENDMDL
MODEL 9
REMARK VINA RESULT:      -7.7      0.845      1.118
REMARK  Name = 
REMARK  8 active torsions:
REMARK  status: ('A' for Active; 'I' for Inactive)
REMARK    1  A    between atoms: C_1  and  N_2
REMARK    2  A    between atoms: C_6  and  S_7
REMARK    3  A    between atoms: S_7  and  C_8
REMARK    4  A    between atoms: C_8  and  C_9
REMARK    5  A    between atoms: C_13  and  N_14
REMARK    6  A    between atoms: C_19  and  C_20
REMARK    7  A    between atoms: C_20  and  N_21
REMARK    8  A    between atoms: C_23  and  C_24
REMARK                            x       y       z     vdW  Elec       q    Type
REMARK                         _______ _______ _______ _____ _____    ______ ____
ROOT
ATOM      1  N   UNL     1       6.049   5.414  15.609  0.00  0.00    +0.000 N 
ATOM      2  C   UNL     1       4.862   6.276  15.837  0.00  0.00    +0.000 C 
ATOM      3  C   UNL     1       4.100   5.504  16.872  0.00  0.00    +0.000 A 
ATOM      4  C   UNL     1       4.434   4.156  16.711  0.00  0.00    +0.000 A 
ATOM      5  C   UNL     1       4.029   3.168  17.591  0.00  0.00    +0.000 A 
ATOM      6  C   UNL     1       3.263   3.554  18.699  0.00  0.00    +0.000 A 
ATOM      7  C   UNL     1       2.931   4.924  18.870  0.00  0.00    +0.000 A 
ATOM      8  C   UNL     1       3.349   5.922  17.962  0.00  0.00    +0.000 A 
ATOM      9  C   UNL     1       5.582   4.081  15.773  0.00  0.00    +0.000 C 
ATOM     10  O   UNL     1       6.107   3.043  15.417  0.00  0.00    +0.000 OA
ENDROOT
BRANCH   1  15
ATOM     11  C   UNL     1       7.822   7.741  17.794  0.00  0.00    +0.000 A 
ATOM     12  C   UNL     1       7.883   6.917  18.928  0.00  0.00    +0.000 A 
ATOM     13  C   UNL     1       7.777   5.534  18.804  0.00  0.00    +0.000 A 
ATOM     14  C   UNL     1       7.478   4.971  17.571  0.00  0.00    +0.000 A 
ATOM     15  C   UNL     1       7.136   5.806  16.497  0.00  0.00    +0.000 A 
ATOM     16  C   UNL     1       7.470   7.168  16.563  0.00  0.00    +0.000 A 
BRANCH  11  17
ATOM     17  C   UNL     1       7.962   9.238  17.923  0.00  0.00    +0.000 C 
BRANCH  17  18
ATOM     18  S   UNL     1       9.116   9.729  19.244  0.00  0.00    +0.000 S 
BRANCH  18  24
ATOM     19  C   UNL     1       9.313  12.170  21.324  0.00  0.00    +0.000 C 
ATOM     20  N   UNL     1       9.424  12.359  19.896  0.00  0.00    +0.000 N 
ATOM     21  C   UNL     1       9.624  13.565  19.287  0.00  0.00    +0.000 A 
ATOM     22  N   UNL     1       9.675  13.452  17.980  0.00  0.00    +0.000 NA
ATOM     23  C   UNL     1       9.505  12.118  17.730  0.00  0.00    +0.000 A 
ATOM     24  C   UNL     1       9.353  11.407  18.910  0.00  0.00    +0.000 A 
ENDBRANCH  18  24
ENDBRANCH  17  18
ENDBRANCH  11  17
ENDBRANCH   1  15
BRANCH   8  25
ATOM     25  C   UNL     1       3.066   7.369  18.283  0.00  0.00    +0.000 C 
ATOM     26  F   UNL     1       4.105   8.211  18.018  0.00  0.00    +0.000 F 
ATOM     27  F   UNL     1       2.012   7.858  17.574  0.00  0.00    +0.000 F 
ATOM     28  F   UNL     1       2.762   7.565  19.594  0.00  0.00    +0.000 F 
ENDBRANCH   8  25
BRANCH   6  29
ATOM     29  C   UNL     1       2.849   2.537  19.735  0.00  0.00    +0.000 C 
BRANCH  29  30
ATOM     30  N   UNL     1       2.645   3.148  21.040  0.00  0.00    +0.000 NA
ATOM     31  H   UNL     1       2.974   4.112  21.015  0.00  0.00    +0.000 HD
ATOM     32  H   UNL     1       3.232   2.671  21.726  0.00  0.00    +0.000 HD
ENDBRANCH  29  30
ENDBRANCH   6  29
TORSDOF 7
ENDMDL
