MODEL 1
REMARK VINA RESULT:      -8.7      0.000      0.000
REMARK  Name = 
REMARK  2 active torsions:
REMARK  status: ('A' for Active; 'I' for Inactive)
REMARK    1  A    between atoms: C_9  and  C_10
REMARK    2  A    between atoms: C_13  and  C_14
REMARK                            x       y       z     vdW  Elec       q    Type
REMARK                         _______ _______ _______ _____ _____    ______ ____
ROOT
ATOM      1  C   UNL     1       2.806   7.398  18.770  0.00  0.00    +0.000 A 
ATOM      2  N   UNL     1       2.907   7.901  17.531  0.00  0.00    +0.000 NA
ATOM      3  O   UNL     1       2.018   8.973  17.545  0.00  0.00    +0.000 OA
ATOM      4  C   UNL     1       1.442   9.008  18.790  0.00  0.00    +0.000 A 
ATOM      5  N   UNL     1       1.894   8.048  19.574  0.00  0.00    +0.000 NA
ENDROOT
BRANCH   1  14
ATOM      6  C   UNL     1       0.841   2.837  19.233  0.00  0.00    +0.000 A 
ATOM      7  C   UNL     1       0.814   3.701  20.338  0.00  0.00    +0.000 A 
ATOM      8  C   UNL     1       1.642   4.825  20.388  0.00  0.00    +0.000 A 
ATOM      9  C   UNL     1       2.499   5.060  19.320  0.00  0.00    +0.000 A 
ATOM     10  C   UNL     1       2.535   4.184  18.226  0.00  0.00    +0.000 A 
ATOM     11  C   UNL     1       1.701   3.079  18.161  0.00  0.00    +0.000 A 
ATOM     12  C   UNL     1       3.542   4.635  17.214  0.00  0.00    +0.000 C 
ATOM     13  C   UNL     1       4.427   5.559  18.067  0.00  0.00    +0.000 C 
ATOM     14  C   UNL     1       3.525   6.154  19.165  0.00  0.00    +0.000 C 
ENDBRANCH   1  14
BRANCH   4  15
ATOM     15  C   UNL     1       0.455   9.977  19.154  0.00  0.00    +0.000 A 
ATOM     16  O   UNL     1       0.579  10.735  20.293  0.00  0.00    +0.000 OA
ATOM     17  N   UNL     1      -0.509  11.583  20.435  0.00  0.00    +0.000 NA
ATOM     18  C   UNL     1      -1.284  11.325  19.383  0.00  0.00    +0.000 A 
ATOM     19  C   UNL     1      -0.726  10.342  18.535  0.00  0.00    +0.000 A 
ATOM     20  C   UNL     1      -1.397   9.858  17.300  0.00  0.00    +0.000 C 
ATOM     21  C   UNL     1      -2.571  10.778  16.902  0.00  0.00    +0.000 C 
ATOM     22  C   UNL     1      -3.414  11.221  18.112  0.00  0.00    +0.000 C 
ATOM     23  C   UNL     1      -2.577  12.013  19.132  0.00  0.00    +0.000 C 
ENDBRANCH   4  15
TORSDOF 2
ENDMDL
MODEL 2
REMARK VINA RESULT:      -8.7      1.936      2.383
REMARK  Name = 
REMARK  2 active torsions:
REMARK  status: ('A' for Active; 'I' for Inactive)
REMARK    1  A    between atoms: C_9  and  C_10
REMARK    2  A    between atoms: C_13  and  C_14
REMARK                            x       y       z     vdW  Elec       q    Type
REMARK                         _______ _______ _______ _____ _____    ______ ____
ROOT
ATOM      1  C   UNL     1       2.422   7.186  19.408  0.00  0.00    +0.000 A 
ATOM      2  N   UNL     1       2.114   8.063  18.443  0.00  0.00    +0.000 NA
ATOM      3  O   UNL     1       1.385   9.041  19.117  0.00  0.00    +0.000 OA
ATOM      4  C   UNL     1       1.301   8.653  20.430  0.00  0.00    +0.000 A 
ATOM      5  N   UNL     1       1.921   7.510  20.652  0.00  0.00    +0.000 NA
ENDROOT
BRANCH   1  14
ATOM      6  C   UNL     1       1.072   2.614  20.874  0.00  0.00    +0.000 A 
ATOM      7  C   UNL     1       1.893   3.379  21.716  0.00  0.00    +0.000 A 
ATOM      8  C   UNL     1       2.584   4.490  21.224  0.00  0.00    +0.000 A 
ATOM      9  C   UNL     1       2.443   4.811  19.880  0.00  0.00    +0.000 A 
ATOM     10  C   UNL     1       1.634   4.033  19.039  0.00  0.00    +0.000 A 
ATOM     11  C   UNL     1       0.930   2.943  19.525  0.00  0.00    +0.000 A 
ATOM     12  C   UNL     1       1.654   4.564  17.640  0.00  0.00    +0.000 C 
ATOM     13  C   UNL     1       2.941   5.405  17.658  0.00  0.00    +0.000 C 
ATOM     14  C   UNL     1       3.125   5.909  19.103  0.00  0.00    +0.000 C 
ENDBRANCH   1  14
BRANCH   4  15
ATOM     15  C   UNL     1       0.599   9.417  21.415  0.00  0.00    +0.000 A 
ATOM     16  O   UNL     1       0.714   9.139  22.756  0.00  0.00    +0.000 OA
ATOM     17  N   UNL     1      -0.073  10.002  23.501  0.00  0.00    +0.000 NA
ATOM     18  C   UNL     1      -0.661  10.791  22.605  0.00  0.00    +0.000 A 
ATOM     19  C   UNL     1      -0.266  10.486  21.283  0.00  0.00    +0.000 A 
ATOM     20  C   UNL     1      -0.788  11.207  20.091  0.00  0.00    +0.000 C 
ATOM     21  C   UNL     1      -1.525  12.502  20.497  0.00  0.00    +0.000 C 
ATOM     22  C   UNL     1      -2.421  12.311  21.735  0.00  0.00    +0.000 C 
ATOM     23  C   UNL     1      -1.609  11.878  22.967  0.00  0.00    +0.000 C 
ENDBRANCH   4  15
TORSDOF 2
ENDMDL
MODEL 3
REMARK VINA RESULT:      -8.6      1.637      2.272
REMARK  Name = 
REMARK  2 active torsions:
REMARK  status: ('A' for Active; 'I' for Inactive)
REMARK    1  A    between atoms: C_9  and  C_10
REMARK    2  A    between atoms: C_13  and  C_14
REMARK                            x       y       z     vdW  Elec       q    Type
REMARK                         _______ _______ _______ _____ _____    ______ ____
ROOT
ATOM      1  C   UNL     1       3.105   6.975  18.595  0.00  0.00    +0.000 A 
ATOM      2  N   UNL     1       3.262   7.612  17.426  0.00  0.00    +0.000 NA
ATOM      3  O   UNL     1       2.435   8.726  17.552  0.00  0.00    +0.000 OA
ATOM      4  C   UNL     1       1.835   8.650  18.784  0.00  0.00    +0.000 A 
ATOM      5  N   UNL     1       2.214   7.581  19.456  0.00  0.00    +0.000 NA
ENDROOT
BRANCH   1  14
ATOM      6  C   UNL     1       0.786   2.731  19.810  0.00  0.00    +0.000 A 
ATOM      7  C   UNL     1       1.166   3.610  20.834  0.00  0.00    +0.000 A 
ATOM      8  C   UNL     1       2.110   4.614  20.601  0.00  0.00    +0.000 A 
ATOM      9  C   UNL     1       2.669   4.711  19.333  0.00  0.00    +0.000 A 
ATOM     10  C   UNL     1       2.298   3.818  18.318  0.00  0.00    +0.000 A 
ATOM     11  C   UNL     1       1.347   2.834  18.536  0.00  0.00    +0.000 A 
ATOM     12  C   UNL     1       3.043   4.110  17.052  0.00  0.00    +0.000 C 
ATOM     13  C   UNL     1       4.233   4.922  17.588  0.00  0.00    +0.000 C 
ATOM     14  C   UNL     1       3.743   5.654  18.852  0.00  0.00    +0.000 C 
ENDBRANCH   1  14
BRANCH   4  15
ATOM     15  C   UNL     1       0.897   9.627  19.245  0.00  0.00    +0.000 A 
ATOM     16  O   UNL     1       0.388  10.587  18.405  0.00  0.00    +0.000 OA
ATOM     17  N   UNL     1      -0.481  11.422  19.089  0.00  0.00    +0.000 NA
ATOM     18  C   UNL     1      -0.486  10.962  20.339  0.00  0.00    +0.000 A 
ATOM     19  C   UNL     1       0.343   9.829  20.495  0.00  0.00    +0.000 A 
ATOM     20  C   UNL     1       0.530   9.131  21.795  0.00  0.00    +0.000 C 
ATOM     21  C   UNL     1      -0.523   9.581  22.830  0.00  0.00    +0.000 C 
ATOM     22  C   UNL     1      -0.771  11.101  22.801  0.00  0.00    +0.000 C 
ATOM     23  C   UNL     1      -1.291  11.570  21.431  0.00  0.00    +0.000 C 
ENDBRANCH   4  15
TORSDOF 2
ENDMDL
MODEL 4
REMARK VINA RESULT:      -8.3      2.043      3.572
REMARK  Name = 
REMARK  2 active torsions:
REMARK  status: ('A' for Active; 'I' for Inactive)
REMARK    1  A    between atoms: C_9  and  C_10
REMARK    2  A    between atoms: C_13  and  C_14
REMARK                            x       y       z     vdW  Elec       q    Type
REMARK                         _______ _______ _______ _____ _____    ______ ____
ROOT
ATOM      1  C   UNL     1       2.423   7.428  18.492  0.00  0.00    +0.000 A 
ATOM      2  N   UNL     1       2.240   8.522  17.740  0.00  0.00    +0.000 NA
ATOM      3  O   UNL     1       1.644   9.423  18.620  0.00  0.00    +0.000 OA
ATOM      4  C   UNL     1       1.501   8.781  19.824  0.00  0.00    +0.000 A 
ATOM      5  N   UNL     1       1.961   7.545  19.787  0.00  0.00    +0.000 NA
ENDROOT
BRANCH   1  14
ATOM      6  C   UNL     1       7.189   5.966  18.369  0.00  0.00    +0.000 A 
ATOM      7  C   UNL     1       6.699   6.762  17.323  0.00  0.00    +0.000 A 
ATOM      8  C   UNL     1       5.324   6.902  17.116  0.00  0.00    +0.000 A 
ATOM      9  C   UNL     1       4.457   6.226  17.964  0.00  0.00    +0.000 A 
ATOM     10  C   UNL     1       4.953   5.418  18.997  0.00  0.00    +0.000 A 
ATOM     11  C   UNL     1       6.315   5.291  19.222  0.00  0.00    +0.000 A 
ATOM     12  C   UNL     1       3.833   4.784  19.763  0.00  0.00    +0.000 C 
ATOM     13  C   UNL     1       2.679   4.904  18.755  0.00  0.00    +0.000 C 
ATOM     14  C   UNL     1       2.951   6.163  17.910  0.00  0.00    +0.000 C 
ENDBRANCH   1  14
BRANCH   4  15
ATOM     15  C   UNL     1       0.901   9.405  20.962  0.00  0.00    +0.000 A 
ATOM     16  O   UNL     1       1.212   9.015  22.243  0.00  0.00    +0.000 OA
ATOM     17  N   UNL     1       0.489   9.755  23.166  0.00  0.00    +0.000 NA
ATOM     18  C   UNL     1      -0.257  10.581  22.436  0.00  0.00    +0.000 A 
ATOM     19  C   UNL     1      -0.030  10.423  21.050  0.00  0.00    +0.000 A 
ATOM     20  C   UNL     1      -0.747  11.212  20.014  0.00  0.00    +0.000 C 
ATOM     21  C   UNL     1      -1.489  12.414  20.637  0.00  0.00    +0.000 C 
ATOM     22  C   UNL     1      -2.197  12.054  21.957  0.00  0.00    +0.000 C 
ATOM     23  C   UNL     1      -1.202  11.566  23.024  0.00  0.00    +0.000 C 
ENDBRANCH   4  15
TORSDOF 2
ENDMDL
MODEL 5
REMARK VINA RESULT:      -8.3      4.534      7.785
REMARK  Name = 
REMARK  2 active torsions:
REMARK  status: ('A' for Active; 'I' for Inactive)
REMARK    1  A    between atoms: C_9  and  C_10
REMARK    2  A    between atoms: C_13  and  C_14
REMARK                            x       y       z     vdW  Elec       q    Type
REMARK                         _______ _______ _______ _____ _____    ______ ____
ROOT
ATOM      1  C   UNL     1       3.873   5.571  17.715  0.00  0.00    +0.000 A 
ATOM      2  N   UNL     1       4.772   4.966  18.505  0.00  0.00    +0.000 NA
ATOM      3  O   UNL     1       5.856   4.755  17.657  0.00  0.00    +0.000 OA
ATOM      4  C   UNL     1       5.505   5.235  16.420  0.00  0.00    +0.000 A 
ATOM      5  N   UNL     1       4.286   5.739  16.410  0.00  0.00    +0.000 NA
ENDROOT
BRANCH   1  14
ATOM      6  C   UNL     1       0.819   2.535  20.231  0.00  0.00    +0.000 A 
ATOM      7  C   UNL     1       0.795   2.508  18.829  0.00  0.00    +0.000 A 
ATOM      8  C   UNL     1       1.345   3.554  18.084  0.00  0.00    +0.000 A 
ATOM      9  C   UNL     1       1.908   4.624  18.767  0.00  0.00    +0.000 A 
ATOM     10  C   UNL     1       1.914   4.655  20.169  0.00  0.00    +0.000 A 
ATOM     11  C   UNL     1       1.389   3.610  20.914  0.00  0.00    +0.000 A 
ATOM     12  C   UNL     1       2.557   5.909  20.673  0.00  0.00    +0.000 C 
ATOM     13  C   UNL     1       2.457   6.813  19.434  0.00  0.00    +0.000 C 
ATOM     14  C   UNL     1       2.501   5.890  18.201  0.00  0.00    +0.000 C 
ENDBRANCH   1  14
BRANCH   4  15
ATOM     15  C   UNL     1       6.379   5.164  15.290  0.00  0.00    +0.000 A 
ATOM     16  O   UNL     1       7.596   5.800  15.282  0.00  0.00    +0.000 OA
ATOM     17  N   UNL     1       8.244   5.596  14.073  0.00  0.00    +0.000 NA
ATOM     18  C   UNL     1       7.411   4.843  13.359  0.00  0.00    +0.000 A 
ATOM     19  C   UNL     1       6.233   4.524  14.074  0.00  0.00    +0.000 A 
ATOM     20  C   UNL     1       5.131   3.708  13.500  0.00  0.00    +0.000 C 
ATOM     21  C   UNL     1       5.573   3.000  12.201  0.00  0.00    +0.000 C 
ATOM     22  C   UNL     1       6.413   3.911  11.286  0.00  0.00    +0.000 C 
ATOM     23  C   UNL     1       7.704   4.381  11.978  0.00  0.00    +0.000 C 
ENDBRANCH   4  15
TORSDOF 2
ENDMDL
MODEL 6
REMARK VINA RESULT:      -8.2      0.965      1.128
REMARK  Name = 
REMARK  2 active torsions:
REMARK  status: ('A' for Active; 'I' for Inactive)
REMARK    1  A    between atoms: C_9  and  C_10
REMARK    2  A    between atoms: C_13  and  C_14
REMARK                            x       y       z     vdW  Elec       q    Type
REMARK                         _______ _______ _______ _____ _____    ______ ____
ROOT
ATOM      1  C   UNL     1       2.573   7.192  19.410  0.00  0.00    +0.000 A 
ATOM      2  N   UNL     1       2.309   7.636  18.173  0.00  0.00    +0.000 NA
ATOM      3  O   UNL     1       1.531   8.769  18.396  0.00  0.00    +0.000 OA
ATOM      4  C   UNL     1       1.376   8.897  19.753  0.00  0.00    +0.000 A 
ATOM      5  N   UNL     1       1.996   7.939  20.416  0.00  0.00    +0.000 NA
ENDROOT
BRANCH   1  14
ATOM      6  C   UNL     1       0.743   2.574  18.967  0.00  0.00    +0.000 A 
ATOM      7  C   UNL     1       0.616   3.236  20.197  0.00  0.00    +0.000 A 
ATOM      8  C   UNL     1       1.400   4.356  20.490  0.00  0.00    +0.000 A 
ATOM      9  C   UNL     1       2.314   4.788  19.538  0.00  0.00    +0.000 A 
ATOM     10  C   UNL     1       2.448   4.113  18.317  0.00  0.00    +0.000 A 
ATOM     11  C   UNL     1       1.659   3.015  18.011  0.00  0.00    +0.000 A 
ATOM     12  C   UNL     1       3.501   4.753  17.466  0.00  0.00    +0.000 C 
ATOM     13  C   UNL     1       4.298   5.539  18.520  0.00  0.00    +0.000 C 
ATOM     14  C   UNL     1       3.308   5.918  19.639  0.00  0.00    +0.000 C 
ENDBRANCH   1  14
BRANCH   4  15
ATOM     15  C   UNL     1       0.609   9.948  20.346  0.00  0.00    +0.000 A 
ATOM     16  O   UNL     1       0.867  10.396  21.618  0.00  0.00    +0.000 OA
ATOM     17  N   UNL     1      -0.020  11.402  21.970  0.00  0.00    +0.000 NA
ATOM     18  C   UNL     1      -0.810  11.550  20.908  0.00  0.00    +0.000 A 
ATOM     19  C   UNL     1      -0.455  10.680  19.852  0.00  0.00    +0.000 A 
ATOM     20  C   UNL     1      -1.187  10.630  18.559  0.00  0.00    +0.000 C 
ATOM     21  C   UNL     1      -2.131  11.842  18.402  0.00  0.00    +0.000 C 
ATOM     22  C   UNL     1      -2.887  12.178  19.701  0.00  0.00    +0.000 C 
ATOM     23  C   UNL     1      -1.923  12.533  20.847  0.00  0.00    +0.000 C 
ENDBRANCH   4  15
TORSDOF 2
ENDMDL
MODEL 7
REMARK VINA RESULT:      -8.2      1.193      1.546
REMARK  Name = 
REMARK  2 active torsions:
REMARK  status: ('A' for Active; 'I' for Inactive)
REMARK    1  A    between atoms: C_9  and  C_10
REMARK    2  A    between atoms: C_13  and  C_14
REMARK                            x       y       z     vdW  Elec       q    Type
REMARK                         _______ _______ _______ _____ _____    ______ ____
ROOT
ATOM      1  C   UNL     1       2.950   6.782  18.765  0.00  0.00    +0.000 A 
ATOM      2  N   UNL     1       3.090   7.645  17.749  0.00  0.00    +0.000 NA
ATOM      3  O   UNL     1       2.388   8.768  18.181  0.00  0.00    +0.000 OA
ATOM      4  C   UNL     1       1.868   8.473  19.416  0.00  0.00    +0.000 A 
ATOM      5  N   UNL     1       2.184   7.254  19.810  0.00  0.00    +0.000 NA
ENDROOT
BRANCH   1  14
ATOM      6  C   UNL     1       1.080   2.756  21.038  0.00  0.00    +0.000 A 
ATOM      7  C   UNL     1       2.025   3.538  21.718  0.00  0.00    +0.000 A 
ATOM      8  C   UNL     1       2.833   4.444  21.026  0.00  0.00    +0.000 A 
ATOM      9  C   UNL     1       2.683   4.543  19.649  0.00  0.00    +0.000 A 
ATOM     10  C   UNL     1       1.748   3.747  18.973  0.00  0.00    +0.000 A 
ATOM     11  C   UNL     1       0.928   2.862  19.655  0.00  0.00    +0.000 A 
ATOM     12  C   UNL     1       1.781   4.020  17.501  0.00  0.00    +0.000 C 
ATOM     13  C   UNL     1       3.165   4.671  17.350  0.00  0.00    +0.000 C 
ATOM     14  C   UNL     1       3.470   5.388  18.679  0.00  0.00    +0.000 C 
ENDBRANCH   1  14
BRANCH   4  15
ATOM     15  C   UNL     1       1.065   9.398  20.154  0.00  0.00    +0.000 A 
ATOM     16  O   UNL     1       1.173   9.513  21.519  0.00  0.00    +0.000 OA
ATOM     17  N   UNL     1       0.281  10.458  22.000  0.00  0.00    +0.000 NA
ATOM     18  C   UNL     1      -0.362  10.903  20.923  0.00  0.00    +0.000 A 
ATOM     19  C   UNL     1       0.097  10.290  19.735  0.00  0.00    +0.000 A 
ATOM     20  C   UNL     1      -0.466  10.595  18.393  0.00  0.00    +0.000 C 
ATOM     21  C   UNL     1      -1.344  11.865  18.427  0.00  0.00    +0.000 C 
ATOM     22  C   UNL     1      -2.248  11.927  19.673  0.00  0.00    +0.000 C 
ATOM     23  C   UNL     1      -1.427  11.939  20.975  0.00  0.00    +0.000 C 
ENDBRANCH   4  15
TORSDOF 2
ENDMDL
MODEL 8
REMARK VINA RESULT:      -8.0      2.155      3.687
REMARK  Name = 
REMARK  2 active torsions:
REMARK  status: ('A' for Active; 'I' for Inactive)
REMARK    1  A    between atoms: C_9  and  C_10
REMARK    2  A    between atoms: C_13  and  C_14
REMARK                            x       y       z     vdW  Elec       q    Type
REMARK                         _______ _______ _______ _____ _____    ______ ____
ROOT
ATOM      1  C   UNL     1       2.575   5.829  18.856  0.00  0.00    +0.000 A 
ATOM      2  N   UNL     1       2.154   5.118  19.912  0.00  0.00    +0.000 NA
ATOM      3  O   UNL     1       1.623   6.086  20.761  0.00  0.00    +0.000 OA
ATOM      4  C   UNL     1       1.790   7.302  20.148  0.00  0.00    +0.000 A 
ATOM      5  N   UNL     1       2.381   7.189  18.974  0.00  0.00    +0.000 NA
ENDROOT
BRANCH   1  14
ATOM      6  C   UNL     1       7.436   6.282  17.839  0.00  0.00    +0.000 A 
ATOM      7  C   UNL     1       6.542   7.221  17.302  0.00  0.00    +0.000 A 
ATOM      8  C   UNL     1       5.171   6.955  17.250  0.00  0.00    +0.000 A 
ATOM      9  C   UNL     1       4.719   5.734  17.735  0.00  0.00    +0.000 A 
ATOM     10  C   UNL     1       5.618   4.793  18.255  0.00  0.00    +0.000 A 
ATOM     11  C   UNL     1       6.976   5.059  18.329  0.00  0.00    +0.000 A 
ATOM     12  C   UNL     1       4.899   3.556  18.697  0.00  0.00    +0.000 C 
ATOM     13  C   UNL     1       3.581   3.682  17.916  0.00  0.00    +0.000 C 
ATOM     14  C   UNL     1       3.313   5.188  17.732  0.00  0.00    +0.000 C 
ENDBRANCH   1  14
BRANCH   4  15
ATOM     15  C   UNL     1       1.376   8.531  20.751  0.00  0.00    +0.000 A 
ATOM     16  O   UNL     1       1.588   8.785  22.084  0.00  0.00    +0.000 OA
ATOM     17  N   UNL     1       1.083  10.029  22.429  0.00  0.00    +0.000 NA
ATOM     18  C   UNL     1       0.566  10.514  21.302  0.00  0.00    +0.000 A 
ATOM     19  C   UNL     1       0.735   9.630  20.212  0.00  0.00    +0.000 A 
ATOM     20  C   UNL     1       0.233   9.923  18.844  0.00  0.00    +0.000 C 
ATOM     21  C   UNL     1      -0.175  11.405  18.700  0.00  0.00    +0.000 C 
ATOM     22  C   UNL     1      -0.941  11.931  19.929  0.00  0.00    +0.000 C 
ATOM     23  C   UNL     1      -0.094  11.842  21.211  0.00  0.00    +0.000 C 
ENDBRANCH   4  15
TORSDOF 2
ENDMDL
MODEL 9
REMARK VINA RESULT:      -8.0      1.427      1.952
REMARK  Name = 
REMARK  2 active torsions:
REMARK  status: ('A' for Active; 'I' for Inactive)
REMARK    1  A    between atoms: C_9  and  C_10
REMARK    2  A    between atoms: C_13  and  C_14
REMARK                            x       y       z     vdW  Elec       q    Type
REMARK                         _______ _______ _______ _____ _____    ______ ____
ROOT
ATOM      1  C   UNL     1       2.998   7.215  18.710  0.00  0.00    +0.000 A 
ATOM      2  N   UNL     1       3.140   7.661  17.454  0.00  0.00    +0.000 NA
ATOM      3  O   UNL     1       2.316   8.783  17.416  0.00  0.00    +0.000 OA
ATOM      4  C   UNL     1       1.731   8.903  18.651  0.00  0.00    +0.000 A 
ATOM      5  N   UNL     1       2.118   7.950  19.478  0.00  0.00    +0.000 NA
ENDROOT
BRANCH   1  14
ATOM      6  C   UNL     1       0.799   2.762  19.170  0.00  0.00    +0.000 A 
ATOM      7  C   UNL     1       0.762   3.649  20.255  0.00  0.00    +0.000 A 
ATOM      8  C   UNL     1       1.640   4.735  20.322  0.00  0.00    +0.000 A 
ATOM      9  C   UNL     1       2.555   4.906  19.291  0.00  0.00    +0.000 A 
ATOM     10  C   UNL     1       2.599   4.007  18.216  0.00  0.00    +0.000 A 
ATOM     11  C   UNL     1       1.717   2.940  18.134  0.00  0.00    +0.000 A 
ATOM     12  C   UNL     1       3.671   4.388  17.244  0.00  0.00    +0.000 C 
ATOM     13  C   UNL     1       4.560   5.287  18.119  0.00  0.00    +0.000 C 
ATOM     14  C   UNL     1       3.638   5.948  19.162  0.00  0.00    +0.000 C 
ENDBRANCH   1  14
BRANCH   4  15
ATOM     15  C   UNL     1       0.801   9.942  18.966  0.00  0.00    +0.000 A 
ATOM     16  O   UNL     1      -0.467   9.659  19.414  0.00  0.00    +0.000 OA
ATOM     17  N   UNL     1      -1.179  10.828  19.631  0.00  0.00    +0.000 NA
ATOM     18  C   UNL     1      -0.337  11.808  19.308  0.00  0.00    +0.000 A 
ATOM     19  C   UNL     1       0.924  11.317  18.902  0.00  0.00    +0.000 A 
ATOM     20  C   UNL     1       2.040  12.200  18.471  0.00  0.00    +0.000 C 
ATOM     21  C   UNL     1       1.764  13.674  18.839  0.00  0.00    +0.000 C 
ATOM     22  C   UNL     1       0.305  14.089  18.567  0.00  0.00    +0.000 C 
ATOM     23  C   UNL     1      -0.690  13.249  19.387  0.00  0.00    +0.000 C 
ENDBRANCH   4  15
TORSDOF 2
ENDMDL
