MODEL 1
REMARK VINA RESULT:      -9.1      0.000      0.000
REMARK  Name = 
REMARK  8 active torsions:
REMARK  status: ('A' for Active; 'I' for Inactive)
REMARK    1  A    between atoms: C_1  and  C_2
REMARK    2  A    between atoms: C_4  and  N_5
REMARK    3  A    between atoms: N_5  and  S_6
REMARK    4  A    between atoms: S_6  and  C_9
REMARK    5  A    between atoms: C_12  and  N_13
REMARK    6  A    between atoms: C_14  and  C_16
REMARK    7  A    between atoms: C_19  and  C_20
REMARK    8  A    between atoms: C_27  and  C_28
REMARK                            x       y       z     vdW  Elec       q    Type
REMARK                         _______ _______ _______ _____ _____    ______ ____
ROOT
ATOM      1  C   UNL     1       2.931   4.971  19.031  0.00  0.00    +0.000 A 
ATOM      2  C   UNL     1       2.414   5.004  20.324  0.00  0.00    +0.000 A 
ATOM      3  C   UNL     1       1.894   6.198  20.837  0.00  0.00    +0.000 A 
ATOM      4  C   UNL     1       1.898   7.376  20.082  0.00  0.00    +0.000 A 
ATOM      5  C   UNL     1       2.434   7.332  18.786  0.00  0.00    +0.000 A 
ATOM      6  C   UNL     1       2.950   6.136  18.259  0.00  0.00    +0.000 A 
ENDROOT
BRANCH   4   7
ATOM      7  N   UNL     1       1.404   8.618  20.562  0.00  0.00    +0.000 N 
ATOM      8  C   UNL     1       0.228   8.811  21.272  0.00  0.00    +0.000 C 
ATOM      9  O   UNL     1      -0.573   7.940  21.592  0.00  0.00    +0.000 OA
ATOM     10  H   UNL     1       2.003   9.417  20.408  0.00  0.00    +0.000 HD
BRANCH   8  11
ATOM     11  C   UNL     1      -0.091  10.202  21.710  0.00  0.00    +0.000 A 
ATOM     12  C   UNL     1       0.383  11.346  21.057  0.00  0.00    +0.000 A 
ATOM     13  C   UNL     1      -0.015  12.617  21.496  0.00  0.00    +0.000 A 
ATOM     14  C   UNL     1      -0.887  12.756  22.583  0.00  0.00    +0.000 A 
ATOM     15  C   UNL     1      -1.366  11.617  23.234  0.00  0.00    +0.000 A 
ATOM     16  C   UNL     1      -0.971  10.350  22.796  0.00  0.00    +0.000 A 
BRANCH  14  17
ATOM     17  C   UNL     1      -1.299  14.055  23.018  0.00  0.00    +0.000 C 
ATOM     18  N   UNL     1      -1.636  15.111  23.373  0.00  0.00    +0.000 NA
ENDBRANCH  14  17
ENDBRANCH   8  11
ENDBRANCH   4   7
BRANCH   1  19
ATOM     19  S   UNL     1       3.665   3.464  18.437  0.00  0.00    +0.000 S 
ATOM     20  O   UNL     1       3.415   3.412  17.009  0.00  0.00    +0.000 OA
ATOM     21  O   UNL     1       3.232   2.384  19.301  0.00  0.00    +0.000 OA
BRANCH  19  22
ATOM     22  N   UNL     1       5.313   3.646  18.621  0.00  0.00    +0.000 N 
ATOM     23  H   UNL     1       5.818   2.813  18.901  0.00  0.00    +0.000 HD
BRANCH  22  27
ATOM     24  C   UNL     1       7.888   7.747  17.895  0.00  0.00    +0.000 C 
ATOM     25  C   UNL     1       7.230   6.483  17.437  0.00  0.00    +0.000 A 
ATOM     26  C   UNL     1       6.528   5.690  18.314  0.00  0.00    +0.000 A 
ATOM     27  C   UNL     1       5.985   4.549  17.779  0.00  0.00    +0.000 A 
ATOM     28  N   UNL     1       6.099   4.169  16.504  0.00  0.00    +0.000 NA
ATOM     29  C   UNL     1       6.779   5.019  15.714  0.00  0.00    +0.000 A 
ATOM     30  C   UNL     1       6.905   4.695  14.256  0.00  0.00    +0.000 C 
ATOM     31  N   UNL     1       7.356   6.164  16.133  0.00  0.00    +0.000 NA
ENDBRANCH  22  27
ENDBRANCH  19  22
ENDBRANCH   1  19
TORSDOF 6
ENDMDL
MODEL 2
REMARK VINA RESULT:      -9.0      0.984      1.328
REMARK  Name = 
REMARK  8 active torsions:
REMARK  status: ('A' for Active; 'I' for Inactive)
REMARK    1  A    between atoms: C_1  and  C_2
REMARK    2  A    between atoms: C_4  and  N_5
REMARK    3  A    between atoms: N_5  and  S_6
REMARK    4  A    between atoms: S_6  and  C_9
REMARK    5  A    between atoms: C_12  and  N_13
REMARK    6  A    between atoms: C_14  and  C_16
REMARK    7  A    between atoms: C_19  and  C_20
REMARK    8  A    between atoms: C_27  and  C_28
REMARK                            x       y       z     vdW  Elec       q    Type
REMARK                         _______ _______ _______ _____ _____    ______ ____
ROOT
ATOM      1  C   UNL     1       3.342   4.870  19.405  0.00  0.00    +0.000 A 
ATOM      2  C   UNL     1       3.372   5.980  18.564  0.00  0.00    +0.000 A 
ATOM      3  C   UNL     1       2.593   7.104  18.864  0.00  0.00    +0.000 A 
ATOM      4  C   UNL     1       1.763   7.133  19.989  0.00  0.00    +0.000 A 
ATOM      5  C   UNL     1       1.732   6.004  20.822  0.00  0.00    +0.000 A 
ATOM      6  C   UNL     1       2.517   4.874  20.534  0.00  0.00    +0.000 A 
ENDROOT
BRANCH   4   7
ATOM      7  N   UNL     1       0.937   8.238  20.327  0.00  0.00    +0.000 N 
ATOM      8  C   UNL     1       1.030   9.006  21.479  0.00  0.00    +0.000 C 
ATOM      9  O   UNL     1       1.836   8.849  22.389  0.00  0.00    +0.000 OA
ATOM     10  H   UNL     1       0.258   8.508  19.629  0.00  0.00    +0.000 HD
BRANCH   8  11
ATOM     11  C   UNL     1       0.078  10.147  21.624  0.00  0.00    +0.000 A 
ATOM     12  C   UNL     1      -0.287  10.988  20.565  0.00  0.00    +0.000 A 
ATOM     13  C   UNL     1      -1.236  11.999  20.772  0.00  0.00    +0.000 A 
ATOM     14  C   UNL     1      -1.829  12.176  22.029  0.00  0.00    +0.000 A 
ATOM     15  C   UNL     1      -1.471  11.336  23.085  0.00  0.00    +0.000 A 
ATOM     16  C   UNL     1      -0.527  10.327  22.880  0.00  0.00    +0.000 A 
BRANCH  14  17
ATOM     17  C   UNL     1      -2.807  13.202  22.229  0.00  0.00    +0.000 C 
ATOM     18  N   UNL     1      -3.602  14.035  22.391  0.00  0.00    +0.000 NA
ENDBRANCH  14  17
ENDBRANCH   8  11
ENDBRANCH   4   7
BRANCH   1  19
ATOM     19  S   UNL     1       4.271   3.423  18.954  0.00  0.00    +0.000 S 
ATOM     20  O   UNL     1       3.981   3.159  17.557  0.00  0.00    +0.000 OA
ATOM     21  O   UNL     1       4.035   2.407  19.961  0.00  0.00    +0.000 OA
BRANCH  19  22
ATOM     22  N   UNL     1       5.879   3.862  19.027  0.00  0.00    +0.000 N 
ATOM     23  H   UNL     1       6.514   3.144  19.359  0.00  0.00    +0.000 HD
BRANCH  22  27
ATOM     24  C   UNL     1       7.955   8.118  17.783  0.00  0.00    +0.000 C 
ATOM     25  C   UNL     1       7.381   6.770  17.476  0.00  0.00    +0.000 A 
ATOM     26  C   UNL     1       6.851   5.981  18.469  0.00  0.00    +0.000 A 
ATOM     27  C   UNL     1       6.372   4.760  18.066  0.00  0.00    +0.000 A 
ATOM     28  N   UNL     1       6.396   4.302  16.811  0.00  0.00    +0.000 NA
ATOM     29  C   UNL     1       6.907   5.153  15.903  0.00  0.00    +0.000 A 
ATOM     30  C   UNL     1       6.919   4.738  14.463  0.00  0.00    +0.000 C 
ATOM     31  N   UNL     1       7.408   6.372  16.188  0.00  0.00    +0.000 NA
ENDBRANCH  22  27
ENDBRANCH  19  22
ENDBRANCH   1  19
TORSDOF 6
ENDMDL
MODEL 3
REMARK VINA RESULT:      -8.9      1.046      2.010
REMARK  Name = 
REMARK  8 active torsions:
REMARK  status: ('A' for Active; 'I' for Inactive)
REMARK    1  A    between atoms: C_1  and  C_2
REMARK    2  A    between atoms: C_4  and  N_5
REMARK    3  A    between atoms: N_5  and  S_6
REMARK    4  A    between atoms: S_6  and  C_9
REMARK    5  A    between atoms: C_12  and  N_13
REMARK    6  A    between atoms: C_14  and  C_16
REMARK    7  A    between atoms: C_19  and  C_20
REMARK    8  A    between atoms: C_27  and  C_28
REMARK                            x       y       z     vdW  Elec       q    Type
REMARK                         _______ _______ _______ _____ _____    ______ ____
ROOT
ATOM      1  C   UNL     1       3.110   4.886  19.162  0.00  0.00    +0.000 A 
ATOM      2  C   UNL     1       3.239   6.127  18.541  0.00  0.00    +0.000 A 
ATOM      3  C   UNL     1       2.605   7.249  19.088  0.00  0.00    +0.000 A 
ATOM      4  C   UNL     1       1.822   7.150  20.243  0.00  0.00    +0.000 A 
ATOM      5  C   UNL     1       1.690   5.892  20.851  0.00  0.00    +0.000 A 
ATOM      6  C   UNL     1       2.330   4.761  20.315  0.00  0.00    +0.000 A 
ENDROOT
BRANCH   4   7
ATOM      7  N   UNL     1       1.140   8.251  20.827  0.00  0.00    +0.000 N 
ATOM      8  C   UNL     1       0.652   9.360  20.152  0.00  0.00    +0.000 C 
ATOM      9  O   UNL     1       0.738   9.569  18.947  0.00  0.00    +0.000 OA
ATOM     10  H   UNL     1       0.956   8.178  21.818  0.00  0.00    +0.000 HD
BRANCH   8  11
ATOM     11  C   UNL     1      -0.065  10.394  20.956  0.00  0.00    +0.000 A 
ATOM     12  C   UNL     1      -0.482  11.625  20.436  0.00  0.00    +0.000 A 
ATOM     13  C   UNL     1      -1.206  12.515  21.243  0.00  0.00    +0.000 A 
ATOM     14  C   UNL     1      -1.521  12.185  22.567  0.00  0.00    +0.000 A 
ATOM     15  C   UNL     1      -1.110  10.955  23.088  0.00  0.00    +0.000 A 
ATOM     16  C   UNL     1      -0.390  10.068  22.284  0.00  0.00    +0.000 A 
BRANCH  14  17
ATOM     17  C   UNL     1      -2.271  13.092  23.381  0.00  0.00    +0.000 C 
ATOM     18  N   UNL     1      -2.881  13.828  24.044  0.00  0.00    +0.000 NA
ENDBRANCH  14  17
ENDBRANCH   8  11
ENDBRANCH   4   7
BRANCH   1  19
ATOM     19  S   UNL     1       3.852   3.462  18.397  0.00  0.00    +0.000 S 
ATOM     20  O   UNL     1       3.580   3.561  16.976  0.00  0.00    +0.000 OA
ATOM     21  O   UNL     1       3.444   2.289  19.145  0.00  0.00    +0.000 OA
BRANCH  19  22
ATOM     22  N   UNL     1       5.500   3.644  18.577  0.00  0.00    +0.000 N 
ATOM     23  H   UNL     1       5.997   2.826  18.912  0.00  0.00    +0.000 HD
BRANCH  22  27
ATOM     24  C   UNL     1       7.049   4.783  14.074  0.00  0.00    +0.000 C 
ATOM     25  C   UNL     1       6.895   5.041  15.541  0.00  0.00    +0.000 A 
ATOM     26  C   UNL     1       6.276   4.128  16.362  0.00  0.00    +0.000 A 
ATOM     27  C   UNL     1       6.182   4.486  17.683  0.00  0.00    +0.000 A 
ATOM     28  N   UNL     1       6.631   5.632  18.202  0.00  0.00    +0.000 NA
ATOM     29  C   UNL     1       7.246   6.451  17.331  0.00  0.00    +0.000 A 
ATOM     30  C   UNL     1       7.829   7.733  17.843  0.00  0.00    +0.000 C 
ATOM     31  N   UNL     1       7.392   6.202  16.013  0.00  0.00    +0.000 NA
ENDBRANCH  22  27
ENDBRANCH  19  22
ENDBRANCH   1  19
TORSDOF 6
ENDMDL
MODEL 4
REMARK VINA RESULT:      -8.9      0.813      1.216
REMARK  Name = 
REMARK  8 active torsions:
REMARK  status: ('A' for Active; 'I' for Inactive)
REMARK    1  A    between atoms: C_1  and  C_2
REMARK    2  A    between atoms: C_4  and  N_5
REMARK    3  A    between atoms: N_5  and  S_6
REMARK    4  A    between atoms: S_6  and  C_9
REMARK    5  A    between atoms: C_12  and  N_13
REMARK    6  A    between atoms: C_14  and  C_16
REMARK    7  A    between atoms: C_19  and  C_20
REMARK    8  A    between atoms: C_27  and  C_28
REMARK                            x       y       z     vdW  Elec       q    Type
REMARK                         _______ _______ _______ _____ _____    ______ ____
ROOT
ATOM      1  C   UNL     1       2.971   4.988  18.956  0.00  0.00    +0.000 A 
ATOM      2  C   UNL     1       3.011   6.195  18.261  0.00  0.00    +0.000 A 
ATOM      3  C   UNL     1       2.496   7.355  18.851  0.00  0.00    +0.000 A 
ATOM      4  C   UNL     1       1.920   7.330  20.125  0.00  0.00    +0.000 A 
ATOM      5  C   UNL     1       1.875   6.104  20.809  0.00  0.00    +0.000 A 
ATOM      6  C   UNL     1       2.397   4.936  20.229  0.00  0.00    +0.000 A 
ENDROOT
BRANCH   4   7
ATOM      7  N   UNL     1       1.364   8.472  20.759  0.00  0.00    +0.000 N 
ATOM      8  C   UNL     1       0.783   9.558  20.123  0.00  0.00    +0.000 C 
ATOM      9  O   UNL     1       0.663   9.707  18.912  0.00  0.00    +0.000 OA
ATOM     10  H   UNL     1       1.352   8.451  21.770  0.00  0.00    +0.000 HD
BRANCH   8  11
ATOM     11  C   UNL     1       0.229  10.645  20.984  0.00  0.00    +0.000 A 
ATOM     12  C   UNL     1       0.378  12.008  20.699  0.00  0.00    +0.000 A 
ATOM     13  C   UNL     1      -0.227  12.965  21.527  0.00  0.00    +0.000 A 
ATOM     14  C   UNL     1      -0.985  12.572  22.637  0.00  0.00    +0.000 A 
ATOM     15  C   UNL     1      -1.140  11.213  22.921  0.00  0.00    +0.000 A 
ATOM     16  C   UNL     1      -0.539  10.259  22.096  0.00  0.00    +0.000 A 
BRANCH  14  17
ATOM     17  C   UNL     1      -1.611  13.553  23.470  0.00  0.00    +0.000 C 
ATOM     18  N   UNL     1      -2.121  14.350  24.147  0.00  0.00    +0.000 NA
ENDBRANCH  14  17
ENDBRANCH   8  11
ENDBRANCH   4   7
BRANCH   1  19
ATOM     19  S   UNL     1       3.550   3.513  18.149  0.00  0.00    +0.000 S 
ATOM     20  O   UNL     1       3.238   3.656  16.740  0.00  0.00    +0.000 OA
ATOM     21  O   UNL     1       3.064   2.372  18.899  0.00  0.00    +0.000 OA
BRANCH  19  22
ATOM     22  N   UNL     1       5.214   3.540  18.269  0.00  0.00    +0.000 N 
ATOM     23  H   UNL     1       5.657   2.642  18.428  0.00  0.00    +0.000 HD
BRANCH  22  27
ATOM     24  C   UNL     1       7.823   7.662  17.850  0.00  0.00    +0.000 C 
ATOM     25  C   UNL     1       7.186   6.421  17.305  0.00  0.00    +0.000 A 
ATOM     26  C   UNL     1       6.444   5.592  18.112  0.00  0.00    +0.000 A 
ATOM     27  C   UNL     1       5.925   4.478  17.501  0.00  0.00    +0.000 A 
ATOM     28  N   UNL     1       6.098   4.156  16.217  0.00  0.00    +0.000 NA
ATOM     29  C   UNL     1       6.814   5.039  15.498  0.00  0.00    +0.000 A 
ATOM     30  C   UNL     1       7.008   4.781  14.035  0.00  0.00    +0.000 C 
ATOM     31  N   UNL     1       7.372   6.162  15.995  0.00  0.00    +0.000 NA
ENDBRANCH  22  27
ENDBRANCH  19  22
ENDBRANCH   1  19
TORSDOF 6
ENDMDL
MODEL 5
REMARK VINA RESULT:      -8.7      1.837      2.248
REMARK  Name = 
REMARK  8 active torsions:
REMARK  status: ('A' for Active; 'I' for Inactive)
REMARK    1  A    between atoms: C_1  and  C_2
REMARK    2  A    between atoms: C_4  and  N_5
REMARK    3  A    between atoms: N_5  and  S_6
REMARK    4  A    between atoms: S_6  and  C_9
REMARK    5  A    between atoms: C_12  and  N_13
REMARK    6  A    between atoms: C_14  and  C_16
REMARK    7  A    between atoms: C_19  and  C_20
REMARK    8  A    between atoms: C_27  and  C_28
REMARK                            x       y       z     vdW  Elec       q    Type
REMARK                         _______ _______ _______ _____ _____    ______ ____
ROOT
ATOM      1  C   UNL     1       3.259   5.118  18.921  0.00  0.00    +0.000 A 
ATOM      2  C   UNL     1       2.798   5.702  20.099  0.00  0.00    +0.000 A 
ATOM      3  C   UNL     1       2.278   7.002  20.075  0.00  0.00    +0.000 A 
ATOM      4  C   UNL     1       2.227   7.743  18.890  0.00  0.00    +0.000 A 
ATOM      5  C   UNL     1       2.707   7.147  17.713  0.00  0.00    +0.000 A 
ATOM      6  C   UNL     1       3.222   5.839  17.725  0.00  0.00    +0.000 A 
ENDROOT
BRANCH   4   7
ATOM      7  N   UNL     1       1.731   9.071  18.815  0.00  0.00    +0.000 N 
ATOM      8  C   UNL     1       0.809   9.649  19.674  0.00  0.00    +0.000 C 
ATOM      9  O   UNL     1       0.271   9.103  20.630  0.00  0.00    +0.000 OA
ATOM     10  H   UNL     1       2.138   9.651  18.094  0.00  0.00    +0.000 HD
BRANCH   8  11
ATOM     11  C   UNL     1       0.444  11.077  19.433  0.00  0.00    +0.000 A 
ATOM     12  C   UNL     1      -0.773  11.642  19.832  0.00  0.00    +0.000 A 
ATOM     13  C   UNL     1      -1.011  13.008  19.624  0.00  0.00    +0.000 A 
ATOM     14  C   UNL     1      -0.040  13.818  19.022  0.00  0.00    +0.000 A 
ATOM     15  C   UNL     1       1.177  13.260  18.627  0.00  0.00    +0.000 A 
ATOM     16  C   UNL     1       1.416  11.899  18.836  0.00  0.00    +0.000 A 
BRANCH  14  17
ATOM     17  C   UNL     1      -0.285  15.214  18.823  0.00  0.00    +0.000 C 
ATOM     18  N   UNL     1      -0.482  16.350  18.663  0.00  0.00    +0.000 NA
ENDBRANCH  14  17
ENDBRANCH   8  11
ENDBRANCH   4   7
BRANCH   1  19
ATOM     19  S   UNL     1       3.994   3.501  18.996  0.00  0.00    +0.000 S 
ATOM     20  O   UNL     1       3.691   2.845  17.737  0.00  0.00    +0.000 OA
ATOM     21  O   UNL     1       3.612   2.892  20.255  0.00  0.00    +0.000 OA
BRANCH  19  22
ATOM     22  N   UNL     1       5.645   3.742  19.017  0.00  0.00    +0.000 N 
ATOM     23  H   UNL     1       6.203   2.935  19.276  0.00  0.00    +0.000 HD
BRANCH  22  27
ATOM     24  C   UNL     1       7.985   7.898  17.913  0.00  0.00    +0.000 C 
ATOM     25  C   UNL     1       7.337   6.595  17.563  0.00  0.00    +0.000 A 
ATOM     26  C   UNL     1       6.748   5.813  18.528  0.00  0.00    +0.000 A 
ATOM     27  C   UNL     1       6.203   4.634  18.086  0.00  0.00    +0.000 A 
ATOM     28  N   UNL     1       6.216   4.209  16.819  0.00  0.00    +0.000 NA
ATOM     29  C   UNL     1       6.789   5.051  15.941  0.00  0.00    +0.000 A 
ATOM     30  C   UNL     1       6.795   4.675  14.490  0.00  0.00    +0.000 C 
ATOM     31  N   UNL     1       7.357   6.230  16.264  0.00  0.00    +0.000 NA
ENDBRANCH  22  27
ENDBRANCH  19  22
ENDBRANCH   1  19
TORSDOF 6
ENDMDL
MODEL 6
REMARK VINA RESULT:      -8.7      1.042      1.796
REMARK  Name = 
REMARK  8 active torsions:
REMARK  status: ('A' for Active; 'I' for Inactive)
REMARK    1  A    between atoms: C_1  and  C_2
REMARK    2  A    between atoms: C_4  and  N_5
REMARK    3  A    between atoms: N_5  and  S_6
REMARK    4  A    between atoms: S_6  and  C_9
REMARK    5  A    between atoms: C_12  and  N_13
REMARK    6  A    between atoms: C_14  and  C_16
REMARK    7  A    between atoms: C_19  and  C_20
REMARK    8  A    between atoms: C_27  and  C_28
REMARK                            x       y       z     vdW  Elec       q    Type
REMARK                         _______ _______ _______ _____ _____    ______ ____
ROOT
ATOM      1  C   UNL     1       3.269   4.815  19.413  0.00  0.00    +0.000 A 
ATOM      2  C   UNL     1       2.423   4.720  20.515  0.00  0.00    +0.000 A 
ATOM      3  C   UNL     1       1.640   5.819  20.890  0.00  0.00    +0.000 A 
ATOM      4  C   UNL     1       1.702   7.028  20.189  0.00  0.00    +0.000 A 
ATOM      5  C   UNL     1       2.569   7.114  19.089  0.00  0.00    +0.000 A 
ATOM      6  C   UNL     1       3.352   6.014  18.699  0.00  0.00    +0.000 A 
ENDROOT
BRANCH   4   7
ATOM      7  N   UNL     1       0.948   8.179  20.540  0.00  0.00    +0.000 N 
ATOM      8  C   UNL     1       1.161   8.991  21.644  0.00  0.00    +0.000 C 
ATOM      9  O   UNL     1       2.031   8.840  22.495  0.00  0.00    +0.000 OA
ATOM     10  H   UNL     1       0.226   8.446  19.886  0.00  0.00    +0.000 HD
BRANCH   8  11
ATOM     11  C   UNL     1       0.267  10.175  21.811  0.00  0.00    +0.000 A 
ATOM     12  C   UNL     1       0.178  11.213  20.876  0.00  0.00    +0.000 A 
ATOM     13  C   UNL     1      -0.734  12.259  21.078  0.00  0.00    +0.000 A 
ATOM     14  C   UNL     1      -1.562  12.276  22.208  0.00  0.00    +0.000 A 
ATOM     15  C   UNL     1      -1.479  11.239  23.141  0.00  0.00    +0.000 A 
ATOM     16  C   UNL     1      -0.572  10.196  22.939  0.00  0.00    +0.000 A 
BRANCH  14  17
ATOM     17  C   UNL     1      -2.499  13.340  22.402  0.00  0.00    +0.000 C 
ATOM     18  N   UNL     1      -3.261  14.205  22.562  0.00  0.00    +0.000 NA
ENDBRANCH  14  17
ENDBRANCH   8  11
ENDBRANCH   4   7
BRANCH   1  19
ATOM     19  S   UNL     1       4.317   3.435  19.013  0.00  0.00    +0.000 S 
ATOM     20  O   UNL     1       4.109   3.146  17.606  0.00  0.00    +0.000 OA
ATOM     21  O   UNL     1       4.107   2.408  20.015  0.00  0.00    +0.000 OA
BRANCH  19  22
ATOM     22  N   UNL     1       5.885   3.985  19.156  0.00  0.00    +0.000 N 
ATOM     23  H   UNL     1       6.522   3.369  19.648  0.00  0.00    +0.000 HD
BRANCH  22  27
ATOM     24  C   UNL     1       6.893   4.708  14.419  0.00  0.00    +0.000 C 
ATOM     25  C   UNL     1       6.875   5.114  15.860  0.00  0.00    +0.000 A 
ATOM     26  C   UNL     1       6.399   4.266  16.831  0.00  0.00    +0.000 A 
ATOM     27  C   UNL     1       6.420   4.758  18.112  0.00  0.00    +0.000 A 
ATOM     28  N   UNL     1       6.851   5.974  18.461  0.00  0.00    +0.000 NA
ATOM     29  C   UNL     1       7.324   6.723  17.449  0.00  0.00    +0.000 A 
ATOM     30  C   UNL     1       7.879   8.079  17.763  0.00  0.00    +0.000 C 
ATOM     31  N   UNL     1       7.349   6.342  16.156  0.00  0.00    +0.000 NA
ENDBRANCH  22  27
ENDBRANCH  19  22
ENDBRANCH   1  19
TORSDOF 6
ENDMDL
MODEL 7
REMARK VINA RESULT:      -8.6      1.827      2.345
REMARK  Name = 
REMARK  8 active torsions:
REMARK  status: ('A' for Active; 'I' for Inactive)
REMARK    1  A    between atoms: C_1  and  C_2
REMARK    2  A    between atoms: C_4  and  N_5
REMARK    3  A    between atoms: N_5  and  S_6
REMARK    4  A    between atoms: S_6  and  C_9
REMARK    5  A    between atoms: C_12  and  N_13
REMARK    6  A    between atoms: C_14  and  C_16
REMARK    7  A    between atoms: C_19  and  C_20
REMARK    8  A    between atoms: C_27  and  C_28
REMARK                            x       y       z     vdW  Elec       q    Type
REMARK                         _______ _______ _______ _____ _____    ______ ____
ROOT
ATOM      1  C   UNL     1       3.304   5.090  18.974  0.00  0.00    +0.000 A 
ATOM      2  C   UNL     1       3.171   5.928  17.870  0.00  0.00    +0.000 A 
ATOM      3  C   UNL     1       2.566   7.182  18.017  0.00  0.00    +0.000 A 
ATOM      4  C   UNL     1       2.070   7.610  19.252  0.00  0.00    +0.000 A 
ATOM      5  C   UNL     1       2.199   6.750  20.354  0.00  0.00    +0.000 A 
ATOM      6  C   UNL     1       2.813   5.493  20.219  0.00  0.00    +0.000 A 
ENDROOT
BRANCH   4   7
ATOM      7  N   UNL     1       1.428   8.862  19.451  0.00  0.00    +0.000 N 
ATOM      8  C   UNL     1       1.502   9.961  18.609  0.00  0.00    +0.000 C 
ATOM      9  O   UNL     1       2.138  10.028  17.563  0.00  0.00    +0.000 OA
ATOM     10  H   UNL     1       0.824   8.921  20.259  0.00  0.00    +0.000 HD
BRANCH   8  11
ATOM     11  C   UNL     1       0.721  11.175  18.991  0.00  0.00    +0.000 A 
ATOM     12  C   UNL     1      -0.465  11.128  19.733  0.00  0.00    +0.000 A 
ATOM     13  C   UNL     1      -1.104  12.320  20.104  0.00  0.00    +0.000 A 
ATOM     14  C   UNL     1      -0.567  13.561  19.742  0.00  0.00    +0.000 A 
ATOM     15  C   UNL     1       0.619  13.612  19.005  0.00  0.00    +0.000 A 
ATOM     16  C   UNL     1       1.257  12.425  18.637  0.00  0.00    +0.000 A 
BRANCH  14  17
ATOM     17  C   UNL     1      -1.217  14.774  20.135  0.00  0.00    +0.000 C 
ATOM     18  N   UNL     1      -1.745  15.761  20.453  0.00  0.00    +0.000 NA
ENDBRANCH  14  17
ENDBRANCH   8  11
ENDBRANCH   4   7
BRANCH   1  19
ATOM     19  S   UNL     1       3.996   3.468  18.742  0.00  0.00    +0.000 S 
ATOM     20  O   UNL     1       3.633   3.046  17.403  0.00  0.00    +0.000 OA
ATOM     21  O   UNL     1       3.638   2.660  19.892  0.00  0.00    +0.000 OA
BRANCH  19  22
ATOM     22  N   UNL     1       5.653   3.665  18.744  0.00  0.00    +0.000 N 
ATOM     23  H   UNL     1       6.193   2.828  18.935  0.00  0.00    +0.000 HD
BRANCH  22  27
ATOM     24  C   UNL     1       7.885   7.932  17.860  0.00  0.00    +0.000 C 
ATOM     25  C   UNL     1       7.299   6.618  17.445  0.00  0.00    +0.000 A 
ATOM     26  C   UNL     1       6.700   5.787  18.362  0.00  0.00    +0.000 A 
ATOM     27  C   UNL     1       6.215   4.604  17.863  0.00  0.00    +0.000 A 
ATOM     28  N   UNL     1       6.295   4.218  16.586  0.00  0.00    +0.000 NA
ATOM     29  C   UNL     1       6.872   5.107  15.757  0.00  0.00    +0.000 A 
ATOM     30  C   UNL     1       6.951   4.776  14.298  0.00  0.00    +0.000 C 
ATOM     31  N   UNL     1       7.384   6.295  16.139  0.00  0.00    +0.000 NA
ENDBRANCH  22  27
ENDBRANCH  19  22
ENDBRANCH   1  19
TORSDOF 6
ENDMDL
MODEL 8
REMARK VINA RESULT:      -8.6      0.853      2.110
REMARK  Name = 
REMARK  8 active torsions:
REMARK  status: ('A' for Active; 'I' for Inactive)
REMARK    1  A    between atoms: C_1  and  C_2
REMARK    2  A    between atoms: C_4  and  N_5
REMARK    3  A    between atoms: N_5  and  S_6
REMARK    4  A    between atoms: S_6  and  C_9
REMARK    5  A    between atoms: C_12  and  N_13
REMARK    6  A    between atoms: C_14  and  C_16
REMARK    7  A    between atoms: C_19  and  C_20
REMARK    8  A    between atoms: C_27  and  C_28
REMARK                            x       y       z     vdW  Elec       q    Type
REMARK                         _______ _______ _______ _____ _____    ______ ____
ROOT
ATOM      1  C   UNL     1       3.154   5.108  19.208  0.00  0.00    +0.000 A 
ATOM      2  C   UNL     1       3.216   6.217  18.368  0.00  0.00    +0.000 A 
ATOM      3  C   UNL     1       2.535   7.391  18.711  0.00  0.00    +0.000 A 
ATOM      4  C   UNL     1       1.771   7.473  19.879  0.00  0.00    +0.000 A 
ATOM      5  C   UNL     1       1.706   6.344  20.711  0.00  0.00    +0.000 A 
ATOM      6  C   UNL     1       2.393   5.164  20.380  0.00  0.00    +0.000 A 
ENDROOT
BRANCH   4   7
ATOM      7  N   UNL     1       1.043   8.631  20.263  0.00  0.00    +0.000 N 
ATOM      8  C   UNL     1       1.056   9.226  21.515  0.00  0.00    +0.000 C 
ATOM      9  O   UNL     1       1.692   8.844  22.491  0.00  0.00    +0.000 OA
ATOM     10  H   UNL     1       0.513   9.079  19.528  0.00  0.00    +0.000 HD
BRANCH   8  11
ATOM     11  C   UNL     1       0.238  10.462  21.698  0.00  0.00    +0.000 A 
ATOM     12  C   UNL     1      -0.619  10.667  22.786  0.00  0.00    +0.000 A 
ATOM     13  C   UNL     1      -1.305  11.884  22.916  0.00  0.00    +0.000 A 
ATOM     14  C   UNL     1      -1.141  12.901  21.967  0.00  0.00    +0.000 A 
ATOM     15  C   UNL     1      -0.283  12.701  20.883  0.00  0.00    +0.000 A 
ATOM     16  C   UNL     1       0.402  11.491  20.754  0.00  0.00    +0.000 A 
BRANCH  14  17
ATOM     17  C   UNL     1      -1.834  14.144  22.111  0.00  0.00    +0.000 C 
ATOM     18  N   UNL     1      -2.396  15.156  22.230  0.00  0.00    +0.000 NA
ENDBRANCH  14  17
ENDBRANCH   8  11
ENDBRANCH   4   7
BRANCH   1  19
ATOM     19  S   UNL     1       3.955   3.603  18.705  0.00  0.00    +0.000 S 
ATOM     20  O   UNL     1       3.701   3.448  17.285  0.00  0.00    +0.000 OA
ATOM     21  O   UNL     1       3.576   2.560  19.639  0.00  0.00    +0.000 OA
BRANCH  19  22
ATOM     22  N   UNL     1       5.593   3.872  18.866  0.00  0.00    +0.000 N 
ATOM     23  H   UNL     1       6.125   3.109  19.271  0.00  0.00    +0.000 HD
BRANCH  22  27
ATOM     24  C   UNL     1       6.992   4.735  14.253  0.00  0.00    +0.000 C 
ATOM     25  C   UNL     1       6.881   5.084  15.705  0.00  0.00    +0.000 A 
ATOM     26  C   UNL     1       6.296   4.221  16.601  0.00  0.00    +0.000 A 
ATOM     27  C   UNL     1       6.239   4.661  17.899  0.00  0.00    +0.000 A 
ATOM     28  N   UNL     1       6.694   5.840  18.331  0.00  0.00    +0.000 NA
ATOM     29  C   UNL     1       7.275   6.607  17.391  0.00  0.00    +0.000 A 
ATOM     30  C   UNL     1       7.862   7.923  17.803  0.00  0.00    +0.000 C 
ATOM     31  N   UNL     1       7.382   6.277  16.088  0.00  0.00    +0.000 NA
ENDBRANCH  22  27
ENDBRANCH  19  22
ENDBRANCH   1  19
TORSDOF 6
ENDMDL
MODEL 9
REMARK VINA RESULT:      -8.5      1.580      1.693
REMARK  Name = 
REMARK  8 active torsions:
REMARK  status: ('A' for Active; 'I' for Inactive)
REMARK    1  A    between atoms: C_1  and  C_2
REMARK    2  A    between atoms: C_4  and  N_5
REMARK    3  A    between atoms: N_5  and  S_6
REMARK    4  A    between atoms: S_6  and  C_9
REMARK    5  A    between atoms: C_12  and  N_13
REMARK    6  A    between atoms: C_14  and  C_16
REMARK    7  A    between atoms: C_19  and  C_20
REMARK    8  A    between atoms: C_27  and  C_28
REMARK                            x       y       z     vdW  Elec       q    Type
REMARK                         _______ _______ _______ _____ _____    ______ ____
ROOT
ATOM      1  C   UNL     1       3.108   5.079  18.996  0.00  0.00    +0.000 A 
ATOM      2  C   UNL     1       2.541   5.340  20.241  0.00  0.00    +0.000 A 
ATOM      3  C   UNL     1       1.978   6.595  20.500  0.00  0.00    +0.000 A 
ATOM      4  C   UNL     1       1.986   7.609  19.537  0.00  0.00    +0.000 A 
ATOM      5  C   UNL     1       2.572   7.337  18.291  0.00  0.00    +0.000 A 
ATOM      6  C   UNL     1       3.133   6.078  18.018  0.00  0.00    +0.000 A 
ENDROOT
BRANCH   4   7
ATOM      7  N   UNL     1       1.448   8.906  19.756  0.00  0.00    +0.000 N 
ATOM      8  C   UNL     1       0.796   9.689  18.815  0.00  0.00    +0.000 C 
ATOM      9  O   UNL     1       0.584   9.389  17.646  0.00  0.00    +0.000 OA
ATOM     10  H   UNL     1       1.510   9.252  20.703  0.00  0.00    +0.000 HD
BRANCH   8  11
ATOM     11  C   UNL     1       0.278  11.015  19.265  0.00  0.00    +0.000 A 
ATOM     12  C   UNL     1       0.813  12.237  18.840  0.00  0.00    +0.000 A 
ATOM     13  C   UNL     1       0.228  13.440  19.261  0.00  0.00    +0.000 A 
ATOM     14  C   UNL     1      -0.892  13.434  20.102  0.00  0.00    +0.000 A 
ATOM     15  C   UNL     1      -1.432  12.216  20.524  0.00  0.00    +0.000 A 
ATOM     16  C   UNL     1      -0.850  11.018  20.104  0.00  0.00    +0.000 A 
BRANCH  14  17
ATOM     17  C   UNL     1      -1.492  14.664  20.518  0.00  0.00    +0.000 C 
ATOM     18  N   UNL     1      -1.979  15.666  20.855  0.00  0.00    +0.000 NA
ENDBRANCH  14  17
ENDBRANCH   8  11
ENDBRANCH   4   7
BRANCH   1  19
ATOM     19  S   UNL     1       3.896   3.508  18.723  0.00  0.00    +0.000 S 
ATOM     20  O   UNL     1       3.646   3.150  17.339  0.00  0.00    +0.000 OA
ATOM     21  O   UNL     1       3.503   2.618  19.797  0.00  0.00    +0.000 OA
BRANCH  19  22
ATOM     22  N   UNL     1       5.536   3.782  18.852  0.00  0.00    +0.000 N 
ATOM     23  H   UNL     1       6.091   2.990  19.156  0.00  0.00    +0.000 HD
BRANCH  22  27
ATOM     24  C   UNL     1       7.951   7.928  17.872  0.00  0.00    +0.000 C 
ATOM     25  C   UNL     1       7.307   6.632  17.486  0.00  0.00    +0.000 A 
ATOM     26  C   UNL     1       6.674   5.848  18.422  0.00  0.00    +0.000 A 
ATOM     27  C   UNL     1       6.138   4.676  17.950  0.00  0.00    +0.000 A 
ATOM     28  N   UNL     1       6.199   4.259  16.682  0.00  0.00    +0.000 NA
ATOM     29  C   UNL     1       6.813   5.103  15.833  0.00  0.00    +0.000 A 
ATOM     30  C   UNL     1       6.875   4.736  14.382  0.00  0.00    +0.000 C 
ATOM     31  N   UNL     1       7.377   6.275  16.188  0.00  0.00    +0.000 NA
ENDBRANCH  22  27
ENDBRANCH  19  22
ENDBRANCH   1  19
TORSDOF 6
ENDMDL
