MODEL 1
REMARK VINA RESULT:      -8.9      0.000      0.000
REMARK  Name = 
REMARK  4 active torsions:
REMARK  status: ('A' for Active; 'I' for Inactive)
REMARK    1  A    between atoms: C_4  and  C_5
REMARK    2  A    between atoms: C_9  and  N_10
REMARK    3  A    between atoms: C_15  and  C_16
REMARK    4  A    between atoms: C_19  and  C_20
REMARK                            x       y       z     vdW  Elec       q    Type
REMARK                         _______ _______ _______ _____ _____    ______ ____
ROOT
ATOM      1  N   UNL     1       4.041   4.628  19.223  0.00  0.00    +0.000 N 
ATOM      2  C   UNL     1       5.395   5.225  19.303  0.00  0.00    +0.000 C 
ATOM      3  C   UNL     1       5.907   5.040  17.908  0.00  0.00    +0.000 A 
ATOM      4  C   UNL     1       5.250   3.935  17.364  0.00  0.00    +0.000 A 
ATOM      5  C   UNL     1       5.393   3.544  16.045  0.00  0.00    +0.000 A 
ATOM      6  C   UNL     1       6.219   4.323  15.223  0.00  0.00    +0.000 A 
ATOM      7  C   UNL     1       6.867   5.460  15.762  0.00  0.00    +0.000 A 
ATOM      8  C   UNL     1       6.718   5.845  17.113  0.00  0.00    +0.000 A 
ATOM      9  C   UNL     1       4.140   3.579  18.276  0.00  0.00    +0.000 C 
ATOM     10  O   UNL     1       3.365   2.658  18.070  0.00  0.00    +0.000 OA
ENDROOT
BRANCH   1  15
ATOM     11  C   UNL     1       1.760   7.387  20.069  0.00  0.00    +0.000 A 
ATOM     12  C   UNL     1       2.163   8.279  19.061  0.00  0.00    +0.000 A 
ATOM     13  C   UNL     1       2.858   7.842  17.935  0.00  0.00    +0.000 A 
ATOM     14  C   UNL     1       3.253   6.514  17.840  0.00  0.00    +0.000 A 
ATOM     15  C   UNL     1       3.057   5.659  18.932  0.00  0.00    +0.000 A 
ATOM     16  C   UNL     1       2.195   6.057  19.967  0.00  0.00    +0.000 A 
BRANCH  11  20
ATOM     17  N   UNL     1      -0.407   9.966  20.755  0.00  0.00    +0.000 NA
ATOM     18  C   UNL     1       0.453   9.193  21.258  0.00  0.00    +0.000 C 
ATOM     19  C   UNL     1       1.505   9.120  22.169  0.00  0.00    +0.000 C 
ATOM     20  C   UNL     1       0.934   7.873  21.227  0.00  0.00    +0.000 C 
ATOM     21  H   UNL     1      -0.307  10.908  21.149  0.00  0.00    +0.000 HD
ENDBRANCH  11  20
ENDBRANCH   1  15
BRANCH   8  22
ATOM     22  C   UNL     1       7.340   7.135  17.585  0.00  0.00    +0.000 C 
ATOM     23  F   UNL     1       8.067   7.018  18.731  0.00  0.00    +0.000 F 
ATOM     24  F   UNL     1       8.194   7.660  16.664  0.00  0.00    +0.000 F 
ATOM     25  F   UNL     1       6.414   8.102  17.831  0.00  0.00    +0.000 F 
ENDBRANCH   8  22
BRANCH   6  26
ATOM     26  C   UNL     1       6.342   3.996  13.757  0.00  0.00    +0.000 C 
ATOM     27  F   UNL     1       5.138   3.845  13.137  0.00  0.00    +0.000 F 
ENDBRANCH   6  26
TORSDOF 4
ENDMDL
MODEL 2
REMARK VINA RESULT:      -8.4      0.665      1.052
REMARK  Name = 
REMARK  4 active torsions:
REMARK  status: ('A' for Active; 'I' for Inactive)
REMARK    1  A    between atoms: C_4  and  C_5
REMARK    2  A    between atoms: C_9  and  N_10
REMARK    3  A    between atoms: C_15  and  C_16
REMARK    4  A    between atoms: C_19  and  C_20
REMARK                            x       y       z     vdW  Elec       q    Type
REMARK                         _______ _______ _______ _____ _____    ______ ____
ROOT
ATOM      1  N   UNL     1       3.745   4.905  19.231  0.00  0.00    +0.000 N 
ATOM      2  C   UNL     1       5.137   5.405  19.334  0.00  0.00    +0.000 C 
ATOM      3  C   UNL     1       5.674   5.133  17.962  0.00  0.00    +0.000 A 
ATOM      4  C   UNL     1       4.953   4.059  17.436  0.00  0.00    +0.000 A 
ATOM      5  C   UNL     1       5.105   3.612  16.136  0.00  0.00    +0.000 A 
ATOM      6  C   UNL     1       6.009   4.298  15.315  0.00  0.00    +0.000 A 
ATOM      7  C   UNL     1       6.724   5.403  15.835  0.00  0.00    +0.000 A 
ATOM      8  C   UNL     1       6.565   5.846  17.167  0.00  0.00    +0.000 A 
ATOM      9  C   UNL     1       3.793   3.819  18.324  0.00  0.00    +0.000 C 
ATOM     10  O   UNL     1       2.959   2.950  18.126  0.00  0.00    +0.000 OA
ENDROOT
BRANCH   1  15
ATOM     11  C   UNL     1       1.984   8.086  19.790  0.00  0.00    +0.000 A 
ATOM     12  C   UNL     1       2.299   8.692  18.562  0.00  0.00    +0.000 A 
ATOM     13  C   UNL     1       2.725   7.944  17.467  0.00  0.00    +0.000 A 
ATOM     14  C   UNL     1       2.942   6.580  17.605  0.00  0.00    +0.000 A 
ATOM     15  C   UNL     1       2.850   5.995  18.875  0.00  0.00    +0.000 A 
ATOM     16  C   UNL     1       2.239   6.713  19.916  0.00  0.00    +0.000 A 
BRANCH  11  20
ATOM     17  N   UNL     1      -0.751   8.074  21.873  0.00  0.00    +0.000 NA
ATOM     18  C   UNL     1       0.089   8.815  21.293  0.00  0.00    +0.000 C 
ATOM     19  C   UNL     1       0.248  10.028  20.624  0.00  0.00    +0.000 C 
ATOM     20  C   UNL     1       1.442   8.909  20.925  0.00  0.00    +0.000 C 
ATOM     21  H   UNL     1      -1.680   8.509  21.847  0.00  0.00    +0.000 HD
ENDBRANCH  11  20
ENDBRANCH   1  15
BRANCH   8  22
ATOM     22  C   UNL     1       7.267   7.104  17.614  0.00  0.00    +0.000 C 
ATOM     23  F   UNL     1       6.429   8.138  17.901  0.00  0.00    +0.000 F 
ATOM     24  F   UNL     1       8.003   6.908  18.741  0.00  0.00    +0.000 F 
ATOM     25  F   UNL     1       8.133   7.579  16.678  0.00  0.00    +0.000 F 
ENDBRANCH   8  22
BRANCH   6  26
ATOM     26  C   UNL     1       6.150   3.910  13.865  0.00  0.00    +0.000 C 
ATOM     27  F   UNL     1       4.971   3.944  13.183  0.00  0.00    +0.000 F 
ENDBRANCH   6  26
TORSDOF 4
ENDMDL
MODEL 3
REMARK VINA RESULT:      -8.3      0.874      1.226
REMARK  Name = 
REMARK  4 active torsions:
REMARK  status: ('A' for Active; 'I' for Inactive)
REMARK    1  A    between atoms: C_4  and  C_5
REMARK    2  A    between atoms: C_9  and  N_10
REMARK    3  A    between atoms: C_15  and  C_16
REMARK    4  A    between atoms: C_19  and  C_20
REMARK                            x       y       z     vdW  Elec       q    Type
REMARK                         _______ _______ _______ _____ _____    ______ ____
ROOT
ATOM      1  N   UNL     1       3.628   5.221  19.264  0.00  0.00    +0.000 N 
ATOM      2  C   UNL     1       5.030   5.684  19.384  0.00  0.00    +0.000 C 
ATOM      3  C   UNL     1       5.611   5.284  18.063  0.00  0.00    +0.000 A 
ATOM      4  C   UNL     1       4.875   4.194  17.595  0.00  0.00    +0.000 A 
ATOM      5  C   UNL     1       5.062   3.639  16.342  0.00  0.00    +0.000 A 
ATOM      6  C   UNL     1       6.021   4.227  15.507  0.00  0.00    +0.000 A 
ATOM      7  C   UNL     1       6.752   5.349  15.967  0.00  0.00    +0.000 A 
ATOM      8  C   UNL     1       6.557   5.903  17.251  0.00  0.00    +0.000 A 
ATOM      9  C   UNL     1       3.674   4.063  18.449  0.00  0.00    +0.000 C 
ATOM     10  O   UNL     1       2.818   3.208  18.286  0.00  0.00    +0.000 OA
ENDROOT
BRANCH   1  15
ATOM     11  C   UNL     1       1.741   8.363  19.583  0.00  0.00    +0.000 A 
ATOM     12  C   UNL     1       2.246   9.001  18.437  0.00  0.00    +0.000 A 
ATOM     13  C   UNL     1       2.861   8.283  17.414  0.00  0.00    +0.000 A 
ATOM     14  C   UNL     1       3.077   6.920  17.560  0.00  0.00    +0.000 A 
ATOM     15  C   UNL     1       2.784   6.305  18.785  0.00  0.00    +0.000 A 
ATOM     16  C   UNL     1       1.996   6.991  19.724  0.00  0.00    +0.000 A 
BRANCH  11  20
ATOM     17  N   UNL     1       2.096   9.155  22.910  0.00  0.00    +0.000 NA
ATOM     18  C   UNL     1       1.256   8.942  21.994  0.00  0.00    +0.000 C 
ATOM     19  C   UNL     1       0.024   8.355  21.711  0.00  0.00    +0.000 C 
ATOM     20  C   UNL     1       1.002   9.152  20.628  0.00  0.00    +0.000 C 
ATOM     21  H   UNL     1       1.771   8.740  23.790  0.00  0.00    +0.000 HD
ENDBRANCH  11  20
ENDBRANCH   1  15
BRANCH   8  22
ATOM     22  C   UNL     1       7.284   7.171  17.625  0.00  0.00    +0.000 C 
ATOM     23  F   UNL     1       8.176   7.599  16.688  0.00  0.00    +0.000 F 
ATOM     24  F   UNL     1       6.431   8.213  17.818  0.00  0.00    +0.000 F 
ATOM     25  F   UNL     1       7.992   7.045  18.780  0.00  0.00    +0.000 F 
ENDBRANCH   8  22
BRANCH   6  26
ATOM     26  C   UNL     1       6.205   3.719  14.100  0.00  0.00    +0.000 C 
ATOM     27  F   UNL     1       5.142   3.983  13.290  0.00  0.00    +0.000 F 
ENDBRANCH   6  26
TORSDOF 4
ENDMDL
MODEL 4
REMARK VINA RESULT:      -7.8      1.180      1.525
REMARK  Name = 
REMARK  4 active torsions:
REMARK  status: ('A' for Active; 'I' for Inactive)
REMARK    1  A    between atoms: C_4  and  C_5
REMARK    2  A    between atoms: C_9  and  N_10
REMARK    3  A    between atoms: C_15  and  C_16
REMARK    4  A    between atoms: C_19  and  C_20
REMARK                            x       y       z     vdW  Elec       q    Type
REMARK                         _______ _______ _______ _____ _____    ______ ____
ROOT
ATOM      1  N   UNL     1       3.001   4.106  18.858  0.00  0.00    +0.000 N 
ATOM      2  C   UNL     1       4.393   4.214  19.354  0.00  0.00    +0.000 C 
ATOM      3  C   UNL     1       5.184   4.229  18.083  0.00  0.00    +0.000 A 
ATOM      4  C   UNL     1       4.436   3.552  17.118  0.00  0.00    +0.000 A 
ATOM      5  C   UNL     1       4.812   3.474  15.788  0.00  0.00    +0.000 A 
ATOM      6  C   UNL     1       5.987   4.134  15.406  0.00  0.00    +0.000 A 
ATOM      7  C   UNL     1       6.736   4.844  16.376  0.00  0.00    +0.000 A 
ATOM      8  C   UNL     1       6.345   4.910  17.731  0.00  0.00    +0.000 A 
ATOM      9  C   UNL     1       3.077   3.346  17.665  0.00  0.00    +0.000 C 
ATOM     10  O   UNL     1       2.177   2.793  17.052  0.00  0.00    +0.000 OA
ENDROOT
BRANCH   1  15
ATOM     11  C   UNL     1       2.029   7.444  20.060  0.00  0.00    +0.000 A 
ATOM     12  C   UNL     1       2.541   8.187  18.982  0.00  0.00    +0.000 A 
ATOM     13  C   UNL     1       2.829   7.591  17.757  0.00  0.00    +0.000 A 
ATOM     14  C   UNL     1       2.705   6.216  17.611  0.00  0.00    +0.000 A 
ATOM     15  C   UNL     1       2.411   5.430  18.734  0.00  0.00    +0.000 A 
ATOM     16  C   UNL     1       1.940   6.053  19.901  0.00  0.00    +0.000 A 
BRANCH  11  20
ATOM     17  N   UNL     1      -0.846   8.194  21.791  0.00  0.00    +0.000 NA
ATOM     18  C   UNL     1       0.328   8.582  21.542  0.00  0.00    +0.000 C 
ATOM     19  C   UNL     1       1.113   9.707  21.293  0.00  0.00    +0.000 C 
ATOM     20  C   UNL     1       1.643   8.131  21.341  0.00  0.00    +0.000 C 
ATOM     21  H   UNL     1      -1.484   8.997  21.818  0.00  0.00    +0.000 HD
ENDBRANCH  11  20
ENDBRANCH   1  15
BRANCH   8  22
ATOM     22  C   UNL     1       7.124   5.786  18.681  0.00  0.00    +0.000 C 
ATOM     23  F   UNL     1       7.315   7.059  18.236  0.00  0.00    +0.000 F 
ATOM     24  F   UNL     1       6.508   5.910  19.887  0.00  0.00    +0.000 F 
ATOM     25  F   UNL     1       8.366   5.296  18.942  0.00  0.00    +0.000 F 
ENDBRANCH   8  22
BRANCH   6  26
ATOM     26  C   UNL     1       6.398   4.157  13.956  0.00  0.00    +0.000 C 
ATOM     27  F   UNL     1       7.437   5.002  13.705  0.00  0.00    +0.000 F 
ENDBRANCH   6  26
TORSDOF 4
ENDMDL
MODEL 5
REMARK VINA RESULT:      -7.6      4.532      7.689
REMARK  Name = 
REMARK  4 active torsions:
REMARK  status: ('A' for Active; 'I' for Inactive)
REMARK    1  A    between atoms: C_4  and  C_5
REMARK    2  A    between atoms: C_9  and  N_10
REMARK    3  A    between atoms: C_15  and  C_16
REMARK    4  A    between atoms: C_19  and  C_20
REMARK                            x       y       z     vdW  Elec       q    Type
REMARK                         _______ _______ _______ _____ _____    ______ ____
ROOT
ATOM      1  N   UNL     1       2.540   7.713  19.379  0.00  0.00    +0.000 N 
ATOM      2  C   UNL     1       2.187   8.500  20.585  0.00  0.00    +0.000 C 
ATOM      3  C   UNL     1       1.001   9.285  20.117  0.00  0.00    +0.000 A 
ATOM      4  C   UNL     1       1.117   9.432  18.733  0.00  0.00    +0.000 A 
ATOM      5  C   UNL     1       0.132  10.007  17.949  0.00  0.00    +0.000 A 
ATOM      6  C   UNL     1      -1.040  10.431  18.587  0.00  0.00    +0.000 A 
ATOM      7  C   UNL     1      -1.174  10.261  19.987  0.00  0.00    +0.000 A 
ATOM      8  C   UNL     1      -0.159   9.679  20.777  0.00  0.00    +0.000 A 
ATOM      9  C   UNL     1       2.197   8.531  18.274  0.00  0.00    +0.000 C 
ATOM     10  O   UNL     1       2.534   8.418  17.106  0.00  0.00    +0.000 OA
ENDROOT
BRANCH   1  15
ATOM     11  C   UNL     1       2.214   4.131  18.608  0.00  0.00    +0.000 A 
ATOM     12  C   UNL     1       1.963   3.680  19.915  0.00  0.00    +0.000 A 
ATOM     13  C   UNL     1       1.534   4.549  20.916  0.00  0.00    +0.000 A 
ATOM     14  C   UNL     1       1.442   5.909  20.657  0.00  0.00    +0.000 A 
ATOM     15  C   UNL     1       1.900   6.408  19.430  0.00  0.00    +0.000 A 
ATOM     16  C   UNL     1       2.144   5.513  18.376  0.00  0.00    +0.000 A 
BRANCH  11  20
ATOM     17  N   UNL     1       3.781   1.081  18.353  0.00  0.00    +0.000 NA
ATOM     18  C   UNL     1       3.568   2.173  17.759  0.00  0.00    +0.000 C 
ATOM     19  C   UNL     1       4.148   3.144  16.945  0.00  0.00    +0.000 C 
ATOM     20  C   UNL     1       2.590   3.156  17.527  0.00  0.00    +0.000 C 
ATOM     21  H   UNL     1       4.748   0.777  18.193  0.00  0.00    +0.000 HD
ENDBRANCH  11  20
ENDBRANCH   1  15
BRANCH   8  22
ATOM     22  C   UNL     1      -0.421   9.419  22.239  0.00  0.00    +0.000 C 
ATOM     23  F   UNL     1      -1.294  10.293  22.813  0.00  0.00    +0.000 F 
ATOM     24  F   UNL     1      -0.950   8.183  22.454  0.00  0.00    +0.000 F 
ATOM     25  F   UNL     1       0.711   9.479  22.992  0.00  0.00    +0.000 F 
ENDBRANCH   8  22
BRANCH   6  26
ATOM     26  C   UNL     1      -2.181  10.984  17.772  0.00  0.00    +0.000 C 
ATOM     27  F   UNL     1      -2.718  10.073  16.913  0.00  0.00    +0.000 F 
ENDBRANCH   6  26
TORSDOF 4
ENDMDL
MODEL 6
REMARK VINA RESULT:      -7.4      4.779      8.026
REMARK  Name = 
REMARK  4 active torsions:
REMARK  status: ('A' for Active; 'I' for Inactive)
REMARK    1  A    between atoms: C_4  and  C_5
REMARK    2  A    between atoms: C_9  and  N_10
REMARK    3  A    between atoms: C_15  and  C_16
REMARK    4  A    between atoms: C_19  and  C_20
REMARK                            x       y       z     vdW  Elec       q    Type
REMARK                         _______ _______ _______ _____ _____    ______ ____
ROOT
ATOM      1  N   UNL     1       0.703   8.294  21.289  0.00  0.00    +0.000 N 
ATOM      2  C   UNL     1      -0.523   8.650  20.536  0.00  0.00    +0.000 C 
ATOM      3  C   UNL     1      -0.271  10.081  20.175  0.00  0.00    +0.000 A 
ATOM      4  C   UNL     1       0.590  10.610  21.138  0.00  0.00    +0.000 A 
ATOM      5  C   UNL     1       1.129  11.881  21.053  0.00  0.00    +0.000 A 
ATOM      6  C   UNL     1       0.806  12.650  19.928  0.00  0.00    +0.000 A 
ATOM      7  C   UNL     1      -0.046  12.109  18.935  0.00  0.00    +0.000 A 
ATOM      8  C   UNL     1      -0.596  10.812  19.036  0.00  0.00    +0.000 A 
ATOM      9  C   UNL     1       1.108   9.483  21.946  0.00  0.00    +0.000 C 
ATOM     10  O   UNL     1       1.900   9.617  22.865  0.00  0.00    +0.000 OA
ENDROOT
BRANCH   1  15
ATOM     11  C   UNL     1       2.227   5.538  19.389  0.00  0.00    +0.000 A 
ATOM     12  C   UNL     1       2.341   6.202  18.155  0.00  0.00    +0.000 A 
ATOM     13  C   UNL     1       2.288   7.591  18.067  0.00  0.00    +0.000 A 
ATOM     14  C   UNL     1       2.018   8.346  19.201  0.00  0.00    +0.000 A 
ATOM     15  C   UNL     1       1.681   7.694  20.395  0.00  0.00    +0.000 A 
ATOM     16  C   UNL     1       1.926   6.317  20.516  0.00  0.00    +0.000 A 
BRANCH  11  20
ATOM     17  N   UNL     1       2.180   2.856  17.239  0.00  0.00    +0.000 NA
ATOM     18  C   UNL     1       1.923   3.226  18.416  0.00  0.00    +0.000 C 
ATOM     19  C   UNL     1       1.019   3.086  19.468  0.00  0.00    +0.000 C 
ATOM     20  C   UNL     1       2.378   4.044  19.464  0.00  0.00    +0.000 C 
ATOM     21  H   UNL     1       1.457   2.209  16.907  0.00  0.00    +0.000 HD
ENDBRANCH  11  20
ENDBRANCH   1  15
BRANCH   8  22
ATOM     22  C   UNL     1      -1.394  10.258  17.883  0.00  0.00    +0.000 C 
ATOM     23  F   UNL     1      -2.547   9.633  18.252  0.00  0.00    +0.000 F 
ATOM     24  F   UNL     1      -1.771  11.229  17.006  0.00  0.00    +0.000 F 
ATOM     25  F   UNL     1      -0.696   9.345  17.155  0.00  0.00    +0.000 F 
ENDBRANCH   8  22
BRANCH   6  26
ATOM     26  C   UNL     1       1.434  14.007  19.740  0.00  0.00    +0.000 C 
ATOM     27  F   UNL     1       0.965  14.669  18.646  0.00  0.00    +0.000 F 
ENDBRANCH   6  26
TORSDOF 4
ENDMDL
MODEL 7
REMARK VINA RESULT:      -7.4      4.746      7.877
REMARK  Name = 
REMARK  4 active torsions:
REMARK  status: ('A' for Active; 'I' for Inactive)
REMARK    1  A    between atoms: C_4  and  C_5
REMARK    2  A    between atoms: C_9  and  N_10
REMARK    3  A    between atoms: C_15  and  C_16
REMARK    4  A    between atoms: C_19  and  C_20
REMARK                            x       y       z     vdW  Elec       q    Type
REMARK                         _______ _______ _______ _____ _____    ______ ____
ROOT
ATOM      1  N   UNL     1       0.696   8.249  21.329  0.00  0.00    +0.000 N 
ATOM      2  C   UNL     1      -0.518   8.625  20.567  0.00  0.00    +0.000 C 
ATOM      3  C   UNL     1      -0.219  10.037  20.169  0.00  0.00    +0.000 A 
ATOM      4  C   UNL     1       0.659  10.562  21.118  0.00  0.00    +0.000 A 
ATOM      5  C   UNL     1       1.240  11.812  21.000  0.00  0.00    +0.000 A 
ATOM      6  C   UNL     1       0.942  12.561  19.855  0.00  0.00    +0.000 A 
ATOM      7  C   UNL     1       0.072  12.023  18.876  0.00  0.00    +0.000 A 
ATOM      8  C   UNL     1      -0.520  10.748  19.011  0.00  0.00    +0.000 A 
ATOM      9  C   UNL     1       1.140   9.440  21.955  0.00  0.00    +0.000 C 
ATOM     10  O   UNL     1       1.936   9.572  22.870  0.00  0.00    +0.000 OA
ENDROOT
BRANCH   1  15
ATOM     11  C   UNL     1       2.106   5.403  19.474  0.00  0.00    +0.000 A 
ATOM     12  C   UNL     1       2.263   6.047  18.235  0.00  0.00    +0.000 A 
ATOM     13  C   UNL     1       2.276   7.436  18.131  0.00  0.00    +0.000 A 
ATOM     14  C   UNL     1       2.031   8.215  19.254  0.00  0.00    +0.000 A 
ATOM     15  C   UNL     1       1.652   7.594  20.452  0.00  0.00    +0.000 A 
ATOM     16  C   UNL     1       1.831   6.208  20.590  0.00  0.00    +0.000 A 
BRANCH  11  20
ATOM     17  N   UNL     1       2.223   2.999  21.928  0.00  0.00    +0.000 NA
ATOM     18  C   UNL     1       2.596   3.283  20.757  0.00  0.00    +0.000 C 
ATOM     19  C   UNL     1       3.656   3.183  19.858  0.00  0.00    +0.000 C 
ATOM     20  C   UNL     1       2.186   3.905  19.566  0.00  0.00    +0.000 C 
ATOM     21  H   UNL     1       2.976   2.514  22.429  0.00  0.00    +0.000 HD
ENDBRANCH  11  20
ENDBRANCH   1  15
BRANCH   8  22
ATOM     22  C   UNL     1      -1.337  10.191  17.872  0.00  0.00    +0.000 C 
ATOM     23  F   UNL     1      -2.486   9.571  18.262  0.00  0.00    +0.000 F 
ATOM     24  F   UNL     1      -1.725  11.158  16.997  0.00  0.00    +0.000 F 
ATOM     25  F   UNL     1      -0.652   9.272  17.138  0.00  0.00    +0.000 F 
ENDBRANCH   8  22
BRANCH   6  26
ATOM     26  C   UNL     1       1.614  13.892  19.631  0.00  0.00    +0.000 C 
ATOM     27  F   UNL     1       1.723  14.224  18.315  0.00  0.00    +0.000 F 
ENDBRANCH   6  26
TORSDOF 4
ENDMDL
MODEL 8
REMARK VINA RESULT:      -7.4      7.249      9.879
REMARK  Name = 
REMARK  4 active torsions:
REMARK  status: ('A' for Active; 'I' for Inactive)
REMARK    1  A    between atoms: C_4  and  C_5
REMARK    2  A    between atoms: C_9  and  N_10
REMARK    3  A    between atoms: C_15  and  C_16
REMARK    4  A    between atoms: C_19  and  C_20
REMARK                            x       y       z     vdW  Elec       q    Type
REMARK                         _______ _______ _______ _____ _____    ______ ____
ROOT
ATOM      1  N   UNL     1      -0.258  11.271  18.360  0.00  0.00    +0.000 N 
ATOM      2  C   UNL     1       0.445  10.465  19.385  0.00  0.00    +0.000 C 
ATOM      3  C   UNL     1       0.049  11.151  20.656  0.00  0.00    +0.000 A 
ATOM      4  C   UNL     1      -0.233  12.482  20.343  0.00  0.00    +0.000 A 
ATOM      5  C   UNL     1      -0.744  13.382  21.260  0.00  0.00    +0.000 A 
ATOM      6  C   UNL     1      -1.011  12.911  22.552  0.00  0.00    +0.000 A 
ATOM      7  C   UNL     1      -0.752  11.555  22.869  0.00  0.00    +0.000 A 
ATOM      8  C   UNL     1      -0.223  10.648  21.925  0.00  0.00    +0.000 A 
ATOM      9  C   UNL     1      -0.291  12.593  18.868  0.00  0.00    +0.000 C 
ATOM     10  O   UNL     1      -0.534  13.634  18.278  0.00  0.00    +0.000 OA
ENDROOT
BRANCH   1  15
ATOM     11  C   UNL     1      -3.905  11.286  17.874  0.00  0.00    +0.000 A 
ATOM     12  C   UNL     1      -3.932  10.614  16.641  0.00  0.00    +0.000 A 
ATOM     13  C   UNL     1      -2.849   9.856  16.199  0.00  0.00    +0.000 A 
ATOM     14  C   UNL     1      -1.674   9.834  16.938  0.00  0.00    +0.000 A 
ATOM     15  C   UNL     1      -1.548  10.674  18.053  0.00  0.00    +0.000 A 
ATOM     16  C   UNL     1      -2.698  11.276  18.589  0.00  0.00    +0.000 A 
BRANCH  11  20
ATOM     17  N   UNL     1      -7.200  10.596  18.569  0.00  0.00    +0.000 NA
ATOM     18  C   UNL     1      -6.406  11.490  18.169  0.00  0.00    +0.000 C 
ATOM     19  C   UNL     1      -6.257  12.542  17.266  0.00  0.00    +0.000 C 
ATOM     20  C   UNL     1      -5.121  12.022  18.364  0.00  0.00    +0.000 C 
ATOM     21  H   UNL     1      -8.075  10.638  18.034  0.00  0.00    +0.000 HD
ENDBRANCH  11  20
ENDBRANCH   1  15
BRANCH   8  22
ATOM     22  C   UNL     1      -0.088   9.192  22.297  0.00  0.00    +0.000 C 
ATOM     23  F   UNL     1       1.162   8.684  22.114  0.00  0.00    +0.000 F 
ATOM     24  F   UNL     1      -0.384   8.968  23.607  0.00  0.00    +0.000 F 
ATOM     25  F   UNL     1      -0.923   8.391  21.581  0.00  0.00    +0.000 F 
ENDBRANCH   8  22
BRANCH   6  26
ATOM     26  C   UNL     1      -1.650  13.824  23.567  0.00  0.00    +0.000 C 
ATOM     27  F   UNL     1      -2.818  13.334  24.070  0.00  0.00    +0.000 F 
ENDBRANCH   6  26
TORSDOF 4
ENDMDL
MODEL 9
REMARK VINA RESULT:      -7.3      7.389      9.908
REMARK  Name = 
REMARK  4 active torsions:
REMARK  status: ('A' for Active; 'I' for Inactive)
REMARK    1  A    between atoms: C_4  and  C_5
REMARK    2  A    between atoms: C_9  and  N_10
REMARK    3  A    between atoms: C_15  and  C_16
REMARK    4  A    between atoms: C_19  and  C_20
REMARK                            x       y       z     vdW  Elec       q    Type
REMARK                         _______ _______ _______ _____ _____    ______ ____
ROOT
ATOM      1  N   UNL     1      -0.269  11.480  18.495  0.00  0.00    +0.000 N 
ATOM      2  C   UNL     1       0.455  10.703  19.529  0.00  0.00    +0.000 C 
ATOM      3  C   UNL     1      -0.029  11.334  20.798  0.00  0.00    +0.000 A 
ATOM      4  C   UNL     1      -0.391  12.649  20.499  0.00  0.00    +0.000 A 
ATOM      5  C   UNL     1      -0.994  13.493  21.415  0.00  0.00    +0.000 A 
ATOM      6  C   UNL     1      -1.269  12.979  22.688  0.00  0.00    +0.000 A 
ATOM      7  C   UNL     1      -0.927  11.638  22.989  0.00  0.00    +0.000 A 
ATOM      8  C   UNL     1      -0.307  10.788  22.047  0.00  0.00    +0.000 A 
ATOM      9  C   UNL     1      -0.409  12.786  19.026  0.00  0.00    +0.000 C 
ATOM     10  O   UNL     1      -0.704  13.819  18.446  0.00  0.00    +0.000 OA
ENDROOT
BRANCH   1  15
ATOM     11  C   UNL     1      -3.861  11.288  17.725  0.00  0.00    +0.000 A 
ATOM     12  C   UNL     1      -3.759  10.529  16.548  0.00  0.00    +0.000 A 
ATOM     13  C   UNL     1      -2.614   9.793  16.251  0.00  0.00    +0.000 A 
ATOM     14  C   UNL     1      -1.503   9.880  17.079  0.00  0.00    +0.000 A 
ATOM     15  C   UNL     1      -1.503  10.802  18.134  0.00  0.00    +0.000 A 
ATOM     16  C   UNL     1      -2.717  11.386  18.532  0.00  0.00    +0.000 A 
BRANCH  11  20
ATOM     17  N   UNL     1      -5.580  12.258  20.540  0.00  0.00    +0.000 NA
ATOM     18  C   UNL     1      -5.708  11.885  19.342  0.00  0.00    +0.000 C 
ATOM     19  C   UNL     1      -6.483  11.110  18.481  0.00  0.00    +0.000 C 
ATOM     20  C   UNL     1      -5.142  12.000  18.062  0.00  0.00    +0.000 C 
ATOM     21  H   UNL     1      -6.313  11.834  21.120  0.00  0.00    +0.000 HD
ENDBRANCH  11  20
ENDBRANCH   1  15
BRANCH   8  22
ATOM     22  C   UNL     1      -0.084   9.338  22.398  0.00  0.00    +0.000 C 
ATOM     23  F   UNL     1      -0.355   9.031  23.697  0.00  0.00    +0.000 F 
ATOM     24  F   UNL     1      -0.865   8.505  21.657  0.00  0.00    +0.000 F 
ATOM     25  F   UNL     1       1.199   8.940  22.184  0.00  0.00    +0.000 F 
ENDBRANCH   8  22
BRANCH   6  26
ATOM     26  C   UNL     1      -2.003  13.826  23.697  0.00  0.00    +0.000 C 
ATOM     27  F   UNL     1      -3.103  13.211  24.215  0.00  0.00    +0.000 F 
ENDBRANCH   6  26
TORSDOF 4
ENDMDL
