MODEL 1
REMARK VINA RESULT:      -7.3      0.000      0.000
REMARK  Name = 
REMARK  6 active torsions:
REMARK  status: ('A' for Active; 'I' for Inactive)
REMARK    1  A    between atoms: C_1  and  C_2
REMARK    2  A    between atoms: C_7  and  N_8
REMARK    3  A    between atoms: C_12  and  C_13
REMARK    4  A    between atoms: C_17  and  C_18
REMARK    5  A    between atoms: N_20  and  C_21
REMARK    6  A    between atoms: C_26  and  O_27
REMARK                            x       y       z     vdW  Elec       q    Type
REMARK                         _______ _______ _______ _____ _____    ______ ____
ROOT
ATOM      1  C   UNL     1       4.706   4.064  18.897  0.00  0.00    +0.000 C 
ATOM      2  O   UNL     1       5.085   2.727  19.253  0.00  0.00    +0.000 OA
ATOM      3  C   UNL     1       4.147   2.206  20.190  0.00  0.00    +0.000 C 
ATOM      4  C   UNL     1       3.067   3.246  20.403  0.00  0.00    +0.000 C 
ATOM      5  C   UNL     1       3.721   4.541  19.969  0.00  0.00    +0.000 C 
ENDROOT
BRANCH   1  10
ATOM      6  N   UNL     1       6.625   5.133  17.576  0.00  0.00    +0.000 N 
ATOM      7  N   UNL     1       7.838   5.710  17.809  0.00  0.00    +0.000 NA
ATOM      8  C   UNL     1       7.895   5.892  19.122  0.00  0.00    +0.000 A 
ATOM      9  C   UNL     1       6.763   5.405  19.775  0.00  0.00    +0.000 A 
ATOM     10  C   UNL     1       5.967   4.860  18.780  0.00  0.00    +0.000 A 
BRANCH   6  17
ATOM     11  C   UNL     1       4.778   7.042  16.173  0.00  0.00    +0.000 C 
ATOM     12  C   UNL     1       5.347   5.796  15.549  0.00  0.00    +0.000 A 
ATOM     13  C   UNL     1       5.039   5.546  14.197  0.00  0.00    +0.000 A 
ATOM     14  C   UNL     1       5.540   4.427  13.535  0.00  0.00    +0.000 A 
ATOM     15  C   UNL     1       6.325   3.512  14.223  0.00  0.00    +0.000 A 
ATOM     16  C   UNL     1       6.640   3.737  15.563  0.00  0.00    +0.000 A 
ATOM     17  C   UNL     1       6.202   4.896  16.228  0.00  0.00    +0.000 A 
ENDBRANCH   6  17
ENDBRANCH   1  10
BRANCH   5  18
ATOM     18  C   UNL     1       2.743   5.530  19.358  0.00  0.00    +0.000 C 
ATOM     19  O   UNL     1       1.860   5.151  18.588  0.00  0.00    +0.000 OA
ATOM     20  N   UNL     1       2.960   6.845  19.712  0.00  0.00    +0.000 N 
ATOM     21  H   UNL     1       3.854   7.119  20.111  0.00  0.00    +0.000 HD
BRANCH  20  22
ATOM     22  C   UNL     1       2.111   7.928  19.382  0.00  0.00    +0.000 A 
ATOM     23  C   UNL     1       1.960   8.410  18.078  0.00  0.00    +0.000 A 
ATOM     24  C   UNL     1       1.111   9.484  17.808  0.00  0.00    +0.000 A 
ATOM     25  C   UNL     1       0.397  10.086  18.842  0.00  0.00    +0.000 A 
ATOM     26  C   UNL     1       0.520   9.607  20.146  0.00  0.00    +0.000 A 
ATOM     27  C   UNL     1       1.365   8.526  20.406  0.00  0.00    +0.000 A 
BRANCH  27  28
ATOM     28  O   UNL     1       1.489   8.036  21.682  0.00  0.00    +0.000 OA
ATOM     29  H   UNL     1       2.282   7.474  21.711  0.00  0.00    +0.000 HD
ENDBRANCH  27  28
ENDBRANCH  20  22
ENDBRANCH   5  18
TORSDOF 5
ENDMDL
MODEL 2
REMARK VINA RESULT:      -6.9      2.299      6.838
REMARK  Name = 
REMARK  6 active torsions:
REMARK  status: ('A' for Active; 'I' for Inactive)
REMARK    1  A    between atoms: C_1  and  C_2
REMARK    2  A    between atoms: C_7  and  N_8
REMARK    3  A    between atoms: C_12  and  C_13
REMARK    4  A    between atoms: C_17  and  C_18
REMARK    5  A    between atoms: N_20  and  C_21
REMARK    6  A    between atoms: C_26  and  O_27
REMARK                            x       y       z     vdW  Elec       q    Type
REMARK                         _______ _______ _______ _____ _____    ______ ____
ROOT
ATOM      1  C   UNL     1       4.808   5.993  18.237  0.00  0.00    +0.000 C 
ATOM      2  O   UNL     1       5.111   5.544  19.564  0.00  0.00    +0.000 OA
ATOM      3  C   UNL     1       5.571   4.196  19.512  0.00  0.00    +0.000 C 
ATOM      4  C   UNL     1       5.625   3.775  18.058  0.00  0.00    +0.000 C 
ATOM      5  C   UNL     1       4.684   4.738  17.366  0.00  0.00    +0.000 C 
ENDROOT
BRANCH   1  10
ATOM      6  N   UNL     1       2.347   6.392  18.834  0.00  0.00    +0.000 N 
ATOM      7  N   UNL     1       1.372   7.319  18.614  0.00  0.00    +0.000 NA
ATOM      8  C   UNL     1       1.993   8.363  18.080  0.00  0.00    +0.000 A 
ATOM      9  C   UNL     1       3.356   8.133  17.897  0.00  0.00    +0.000 A 
ATOM     10  C   UNL     1       3.575   6.835  18.330  0.00  0.00    +0.000 A 
BRANCH   6  17
ATOM     11  C   UNL     1       1.236   4.044  17.324  0.00  0.00    +0.000 C 
ATOM     12  C   UNL     1       1.515   4.050  18.804  0.00  0.00    +0.000 A 
ATOM     13  C   UNL     1       1.296   2.851  19.511  0.00  0.00    +0.000 A 
ATOM     14  C   UNL     1       1.548   2.760  20.879  0.00  0.00    +0.000 A 
ATOM     15  C   UNL     1       1.982   3.879  21.576  0.00  0.00    +0.000 A 
ATOM     16  C   UNL     1       2.203   5.078  20.897  0.00  0.00    +0.000 A 
ATOM     17  C   UNL     1       2.022   5.169  19.505  0.00  0.00    +0.000 A 
ENDBRANCH   6  17
ENDBRANCH   1  10
BRANCH   5  18
ATOM     18  C   UNL     1       5.102   5.064  15.942  0.00  0.00    +0.000 C 
ATOM     19  O   UNL     1       4.952   6.197  15.483  0.00  0.00    +0.000 OA
ATOM     20  N   UNL     1       5.613   3.995  15.235  0.00  0.00    +0.000 N 
ATOM     21  H   UNL     1       5.450   3.049  15.566  0.00  0.00    +0.000 HD
BRANCH  20  22
ATOM     22  C   UNL     1       6.190   4.073  13.945  0.00  0.00    +0.000 A 
ATOM     23  C   UNL     1       5.696   3.366  12.844  0.00  0.00    +0.000 A 
ATOM     24  C   UNL     1       6.305   3.477  11.593  0.00  0.00    +0.000 A 
ATOM     25  C   UNL     1       7.415   4.302  11.429  0.00  0.00    +0.000 A 
ATOM     26  C   UNL     1       7.911   5.029  12.512  0.00  0.00    +0.000 A 
ATOM     27  C   UNL     1       7.289   4.920  13.757  0.00  0.00    +0.000 A 
BRANCH  27  28
ATOM     28  O   UNL     1       7.758   5.637  14.829  0.00  0.00    +0.000 OA
ATOM     29  H   UNL     1       8.430   6.260  14.502  0.00  0.00    +0.000 HD
ENDBRANCH  27  28
ENDBRANCH  20  22
ENDBRANCH   5  18
TORSDOF 5
ENDMDL
MODEL 3
REMARK VINA RESULT:      -6.9      3.028      5.743
REMARK  Name = 
REMARK  6 active torsions:
REMARK  status: ('A' for Active; 'I' for Inactive)
REMARK    1  A    between atoms: C_1  and  C_2
REMARK    2  A    between atoms: C_7  and  N_8
REMARK    3  A    between atoms: C_12  and  C_13
REMARK    4  A    between atoms: C_17  and  C_18
REMARK    5  A    between atoms: N_20  and  C_21
REMARK    6  A    between atoms: C_26  and  O_27
REMARK                            x       y       z     vdW  Elec       q    Type
REMARK                         _______ _______ _______ _____ _____    ______ ____
ROOT
ATOM      1  C   UNL     1       1.372   7.960  19.665  0.00  0.00    +0.000 C 
ATOM      2  O   UNL     1       1.601   7.544  21.018  0.00  0.00    +0.000 OA
ATOM      3  C   UNL     1       1.285   8.618  21.901  0.00  0.00    +0.000 C 
ATOM      4  C   UNL     1       0.765   9.772  21.069  0.00  0.00    +0.000 C 
ATOM      5  C   UNL     1       1.303   9.491  19.682  0.00  0.00    +0.000 C 
ENDROOT
BRANCH   1  10
ATOM      6  N   UNL     1       2.886   6.039  18.896  0.00  0.00    +0.000 N 
ATOM      7  N   UNL     1       4.024   5.855  18.169  0.00  0.00    +0.000 NA
ATOM      8  C   UNL     1       4.259   7.020  17.580  0.00  0.00    +0.000 A 
ATOM      9  C   UNL     1       3.326   7.993  17.938  0.00  0.00    +0.000 A 
ATOM     10  C   UNL     1       2.471   7.375  18.836  0.00  0.00    +0.000 A 
BRANCH   6  17
ATOM     11  C   UNL     1       1.095   4.105  17.455  0.00  0.00    +0.000 C 
ATOM     12  C   UNL     1       1.466   4.000  18.911  0.00  0.00    +0.000 A 
ATOM     13  C   UNL     1       0.987   2.883  19.625  0.00  0.00    +0.000 A 
ATOM     14  C   UNL     1       1.298   2.695  20.970  0.00  0.00    +0.000 A 
ATOM     15  C   UNL     1       2.058   3.642  21.641  0.00  0.00    +0.000 A 
ATOM     16  C   UNL     1       2.540   4.758  20.956  0.00  0.00    +0.000 A 
ATOM     17  C   UNL     1       2.296   4.928  19.581  0.00  0.00    +0.000 A 
ENDBRANCH   6  17
ENDBRANCH   1  10
BRANCH   5  18
ATOM     18  C   UNL     1       0.381   9.971  18.574  0.00  0.00    +0.000 C 
ATOM     19  O   UNL     1       0.824  10.240  17.457  0.00  0.00    +0.000 OA
ATOM     20  N   UNL     1      -0.941  10.102  18.943  0.00  0.00    +0.000 N 
ATOM     21  H   UNL     1      -1.187  10.139  19.928  0.00  0.00    +0.000 HD
BRANCH  20  22
ATOM     22  C   UNL     1      -2.006  10.403  18.062  0.00  0.00    +0.000 A 
ATOM     23  C   UNL     1      -2.202   9.740  16.846  0.00  0.00    +0.000 A 
ATOM     24  C   UNL     1      -3.268  10.079  16.012  0.00  0.00    +0.000 A 
ATOM     25  C   UNL     1      -4.155  11.084  16.388  0.00  0.00    +0.000 A 
ATOM     26  C   UNL     1      -3.987  11.744  17.606  0.00  0.00    +0.000 A 
ATOM     27  C   UNL     1      -2.923  11.392  18.439  0.00  0.00    +0.000 A 
BRANCH  27  28
ATOM     28  O   UNL     1      -2.750  12.024  19.644  0.00  0.00    +0.000 OA
ATOM     29  H   UNL     1      -3.137  11.460  20.336  0.00  0.00    +0.000 HD
ENDBRANCH  27  28
ENDBRANCH  20  22
ENDBRANCH   5  18
TORSDOF 5
ENDMDL
MODEL 4
REMARK VINA RESULT:      -6.6      0.876      1.276
REMARK  Name = 
REMARK  6 active torsions:
REMARK  status: ('A' for Active; 'I' for Inactive)
REMARK    1  A    between atoms: C_1  and  C_2
REMARK    2  A    between atoms: C_7  and  N_8
REMARK    3  A    between atoms: C_12  and  C_13
REMARK    4  A    between atoms: C_17  and  C_18
REMARK    5  A    between atoms: N_20  and  C_21
REMARK    6  A    between atoms: C_26  and  O_27
REMARK                            x       y       z     vdW  Elec       q    Type
REMARK                         _______ _______ _______ _____ _____    ______ ____
ROOT
ATOM      1  C   UNL     1       4.586   4.240  18.823  0.00  0.00    +0.000 C 
ATOM      2  O   UNL     1       4.910   2.866  19.073  0.00  0.00    +0.000 OA
ATOM      3  C   UNL     1       3.994   2.332  20.025  0.00  0.00    +0.000 C 
ATOM      4  C   UNL     1       2.984   3.409  20.361  0.00  0.00    +0.000 C 
ATOM      5  C   UNL     1       3.684   4.695  19.975  0.00  0.00    +0.000 C 
ENDROOT
BRANCH   1  10
ATOM      6  N   UNL     1       6.567   5.163  17.483  0.00  0.00    +0.000 N 
ATOM      7  N   UNL     1       7.798   5.701  17.708  0.00  0.00    +0.000 NA
ATOM      8  C   UNL     1       7.844   5.947  19.011  0.00  0.00    +0.000 A 
ATOM      9  C   UNL     1       6.683   5.539  19.668  0.00  0.00    +0.000 A 
ATOM     10  C   UNL     1       5.880   4.978  18.688  0.00  0.00    +0.000 A 
BRANCH   6  17
ATOM     11  C   UNL     1       4.860   7.095  15.940  0.00  0.00    +0.000 C 
ATOM     12  C   UNL     1       5.366   5.785  15.397  0.00  0.00    +0.000 A 
ATOM     13  C   UNL     1       5.067   5.478  14.055  0.00  0.00    +0.000 A 
ATOM     14  C   UNL     1       5.512   4.296  13.465  0.00  0.00    +0.000 A 
ATOM     15  C   UNL     1       6.229   3.377  14.218  0.00  0.00    +0.000 A 
ATOM     16  C   UNL     1       6.535   3.658  15.551  0.00  0.00    +0.000 A 
ATOM     17  C   UNL     1       6.154   4.876  16.142  0.00  0.00    +0.000 A 
ENDBRANCH   6  17
ENDBRANCH   1  10
BRANCH   5  18
ATOM     18  C   UNL     1       2.731   5.771  19.482  0.00  0.00    +0.000 C 
ATOM     19  O   UNL     1       2.133   5.642  18.414  0.00  0.00    +0.000 OA
ATOM     20  N   UNL     1       2.636   6.874  20.303  0.00  0.00    +0.000 N 
ATOM     21  H   UNL     1       3.351   7.042  21.006  0.00  0.00    +0.000 HD
BRANCH  20  22
ATOM     22  C   UNL     1       1.723   7.941  20.131  0.00  0.00    +0.000 A 
ATOM     23  C   UNL     1       0.753   8.278  21.081  0.00  0.00    +0.000 A 
ATOM     24  C   UNL     1      -0.125   9.339  20.858  0.00  0.00    +0.000 A 
ATOM     25  C   UNL     1      -0.040  10.080  19.682  0.00  0.00    +0.000 A 
ATOM     26  C   UNL     1       0.933   9.771  18.731  0.00  0.00    +0.000 A 
ATOM     27  C   UNL     1       1.814   8.714  18.966  0.00  0.00    +0.000 A 
BRANCH  27  28
ATOM     28  O   UNL     1       2.783   8.404  18.045  0.00  0.00    +0.000 OA
ATOM     29  H   UNL     1       2.359   8.347  17.172  0.00  0.00    +0.000 HD
ENDBRANCH  27  28
ENDBRANCH  20  22
ENDBRANCH   5  18
TORSDOF 5
ENDMDL
MODEL 5
REMARK VINA RESULT:      -6.6      2.433      6.835
REMARK  Name = 
REMARK  6 active torsions:
REMARK  status: ('A' for Active; 'I' for Inactive)
REMARK    1  A    between atoms: C_1  and  C_2
REMARK    2  A    between atoms: C_7  and  N_8
REMARK    3  A    between atoms: C_12  and  C_13
REMARK    4  A    between atoms: C_17  and  C_18
REMARK    5  A    between atoms: N_20  and  C_21
REMARK    6  A    between atoms: C_26  and  O_27
REMARK                            x       y       z     vdW  Elec       q    Type
REMARK                         _______ _______ _______ _____ _____    ______ ____
ROOT
ATOM      1  C   UNL     1       4.718   6.297  18.041  0.00  0.00    +0.000 C 
ATOM      2  O   UNL     1       4.972   5.944  19.407  0.00  0.00    +0.000 OA
ATOM      3  C   UNL     1       5.481   4.613  19.463  0.00  0.00    +0.000 C 
ATOM      4  C   UNL     1       5.618   4.103  18.044  0.00  0.00    +0.000 C 
ATOM      5  C   UNL     1       4.679   4.986  17.249  0.00  0.00    +0.000 C 
ENDROOT
BRANCH   1  10
ATOM      6  N   UNL     1       2.181   6.575  18.278  0.00  0.00    +0.000 N 
ATOM      7  N   UNL     1       1.218   7.499  18.002  0.00  0.00    +0.000 NA
ATOM      8  C   UNL     1       1.873   8.608  17.685  0.00  0.00    +0.000 A 
ATOM      9  C   UNL     1       3.256   8.429  17.698  0.00  0.00    +0.000 A 
ATOM     10  C   UNL     1       3.454   7.097  18.024  0.00  0.00    +0.000 A 
BRANCH   6  17
ATOM     11  C   UNL     1       1.863   6.047  21.218  0.00  0.00    +0.000 C 
ATOM     12  C   UNL     1       1.631   5.023  20.140  0.00  0.00    +0.000 A 
ATOM     13  C   UNL     1       1.175   3.750  20.538  0.00  0.00    +0.000 A 
ATOM     14  C   UNL     1       0.914   2.748  19.605  0.00  0.00    +0.000 A 
ATOM     15  C   UNL     1       1.146   2.985  18.257  0.00  0.00    +0.000 A 
ATOM     16  C   UNL     1       1.601   4.236  17.839  0.00  0.00    +0.000 A 
ATOM     17  C   UNL     1       1.802   5.280  18.759  0.00  0.00    +0.000 A 
ENDBRANCH   6  17
ENDBRANCH   1  10
BRANCH   5  18
ATOM     18  C   UNL     1       5.153   5.236  15.827  0.00  0.00    +0.000 C 
ATOM     19  O   UNL     1       5.155   6.372  15.353  0.00  0.00    +0.000 OA
ATOM     20  N   UNL     1       5.531   4.101  15.140  0.00  0.00    +0.000 N 
ATOM     21  H   UNL     1       5.243   3.188  15.479  0.00  0.00    +0.000 HD
BRANCH  20  22
ATOM     22  C   UNL     1       6.128   4.087  13.857  0.00  0.00    +0.000 A 
ATOM     23  C   UNL     1       5.608   3.362  12.781  0.00  0.00    +0.000 A 
ATOM     24  C   UNL     1       6.240   3.380  11.536  0.00  0.00    +0.000 A 
ATOM     25  C   UNL     1       7.400   4.131  11.354  0.00  0.00    +0.000 A 
ATOM     26  C   UNL     1       7.922   4.875  12.411  0.00  0.00    +0.000 A 
ATOM     27  C   UNL     1       7.279   4.859  13.650  0.00  0.00    +0.000 A 
BRANCH  27  28
ATOM     28  O   UNL     1       7.775   5.594  14.697  0.00  0.00    +0.000 OA
ATOM     29  H   UNL     1       7.688   5.060  15.506  0.00  0.00    +0.000 HD
ENDBRANCH  27  28
ENDBRANCH  20  22
ENDBRANCH   5  18
TORSDOF 5
ENDMDL
MODEL 6
REMARK VINA RESULT:      -6.6      8.791     10.656
REMARK  Name = 
REMARK  6 active torsions:
REMARK  status: ('A' for Active; 'I' for Inactive)
REMARK    1  A    between atoms: C_1  and  C_2
REMARK    2  A    between atoms: C_7  and  N_8
REMARK    3  A    between atoms: C_12  and  C_13
REMARK    4  A    between atoms: C_17  and  C_18
REMARK    5  A    between atoms: N_20  and  C_21
REMARK    6  A    between atoms: C_26  and  O_27
REMARK                            x       y       z     vdW  Elec       q    Type
REMARK                         _______ _______ _______ _____ _____    ______ ____
ROOT
ATOM      1  C   UNL     1      10.296  13.466  18.770  0.00  0.00    +0.000 C 
ATOM      2  O   UNL     1      10.899  12.528  17.867  0.00  0.00    +0.000 OA
ATOM      3  C   UNL     1      11.610  11.546  18.615  0.00  0.00    +0.000 C 
ATOM      4  C   UNL     1      11.402  11.834  20.087  0.00  0.00    +0.000 C 
ATOM      5  C   UNL     1      11.004  13.295  20.118  0.00  0.00    +0.000 C 
ENDROOT
BRANCH   1  10
ATOM      6  N   UNL     1       9.349  15.684  17.900  0.00  0.00    +0.000 N 
ATOM      7  N   UNL     1       9.750  16.750  17.151  0.00  0.00    +0.000 NA
ATOM      8  C   UNL     1      11.063  16.613  17.017  0.00  0.00    +0.000 A 
ATOM      9  C   UNL     1      11.540  15.451  17.623  0.00  0.00    +0.000 A 
ATOM     10  C   UNL     1      10.422  14.818  18.143  0.00  0.00    +0.000 A 
BRANCH   6  17
ATOM     11  C   UNL     1       8.354  17.177  20.309  0.00  0.00    +0.000 C 
ATOM     12  C   UNL     1       7.496  16.298  19.438  0.00  0.00    +0.000 A 
ATOM     13  C   UNL     1       6.122  16.223  19.742  0.00  0.00    +0.000 A 
ATOM     14  C   UNL     1       5.251  15.450  18.976  0.00  0.00    +0.000 A 
ATOM     15  C   UNL     1       5.744  14.701  17.917  0.00  0.00    +0.000 A 
ATOM     16  C   UNL     1       7.102  14.757  17.599  0.00  0.00    +0.000 A 
ATOM     17  C   UNL     1       7.982  15.586  18.317  0.00  0.00    +0.000 A 
ENDBRANCH   6  17
ENDBRANCH   1  10
BRANCH   5  18
ATOM     18  C   UNL     1      10.040  13.629  21.244  0.00  0.00    +0.000 C 
ATOM     19  O   UNL     1      10.213  14.624  21.948  0.00  0.00    +0.000 OA
ATOM     20  N   UNL     1       9.015  12.721  21.411  0.00  0.00    +0.000 N 
ATOM     21  H   UNL     1       9.088  11.797  20.996  0.00  0.00    +0.000 HD
BRANCH  20  22
ATOM     22  C   UNL     1       7.924  12.880  22.298  0.00  0.00    +0.000 A 
ATOM     23  C   UNL     1       7.019  13.942  22.213  0.00  0.00    +0.000 A 
ATOM     24  C   UNL     1       5.961  14.053  23.117  0.00  0.00    +0.000 A 
ATOM     25  C   UNL     1       5.794  13.096  24.115  0.00  0.00    +0.000 A 
ATOM     26  C   UNL     1       6.676  12.019  24.204  0.00  0.00    +0.000 A 
ATOM     27  C   UNL     1       7.726  11.911  23.290  0.00  0.00    +0.000 A 
BRANCH  27  28
ATOM     28  O   UNL     1       8.596  10.852  23.358  0.00  0.00    +0.000 OA
ATOM     29  H   UNL     1       8.271  10.158  22.758  0.00  0.00    +0.000 HD
ENDBRANCH  27  28
ENDBRANCH  20  22
ENDBRANCH   5  18
TORSDOF 5
ENDMDL
MODEL 7
REMARK VINA RESULT:      -6.6      2.246      6.841
REMARK  Name = 
REMARK  6 active torsions:
REMARK  status: ('A' for Active; 'I' for Inactive)
REMARK    1  A    between atoms: C_1  and  C_2
REMARK    2  A    between atoms: C_7  and  N_8
REMARK    3  A    between atoms: C_12  and  C_13
REMARK    4  A    between atoms: C_17  and  C_18
REMARK    5  A    between atoms: N_20  and  C_21
REMARK    6  A    between atoms: C_26  and  O_27
REMARK                            x       y       z     vdW  Elec       q    Type
REMARK                         _______ _______ _______ _____ _____    ______ ____
ROOT
ATOM      1  C   UNL     1       5.467   5.395  18.539  0.00  0.00    +0.000 C 
ATOM      2  O   UNL     1       6.074   5.687  19.805  0.00  0.00    +0.000 OA
ATOM      3  C   UNL     1       7.491   5.585  19.683  0.00  0.00    +0.000 C 
ATOM      4  C   UNL     1       7.816   5.267  18.238  0.00  0.00    +0.000 C 
ATOM      5  C   UNL     1       6.529   4.679  17.698  0.00  0.00    +0.000 C 
ENDROOT
BRANCH   1  10
ATOM      6  N   UNL     1       2.966   5.163  19.052  0.00  0.00    +0.000 N 
ATOM      7  N   UNL     1       2.086   4.209  19.465  0.00  0.00    +0.000 NA
ATOM      8  C   UNL     1       2.748   3.062  19.394  0.00  0.00    +0.000 A 
ATOM      9  C   UNL     1       4.070   3.238  18.985  0.00  0.00    +0.000 A 
ATOM     10  C   UNL     1       4.229   4.605  18.820  0.00  0.00    +0.000 A 
BRANCH   6  17
ATOM     11  C   UNL     1       1.491   6.549  21.272  0.00  0.00    +0.000 C 
ATOM     12  C   UNL     1       1.847   7.190  19.957  0.00  0.00    +0.000 A 
ATOM     13  C   UNL     1       1.518   8.549  19.785  0.00  0.00    +0.000 A 
ATOM     14  C   UNL     1       1.829   9.227  18.608  0.00  0.00    +0.000 A 
ATOM     15  C   UNL     1       2.436   8.548  17.561  0.00  0.00    +0.000 A 
ATOM     16  C   UNL     1       2.769   7.201  17.706  0.00  0.00    +0.000 A 
ATOM     17  C   UNL     1       2.526   6.519  18.912  0.00  0.00    +0.000 A 
ENDBRANCH   6  17
ENDBRANCH   1  10
BRANCH   5  18
ATOM     18  C   UNL     1       6.303   4.983  16.226  0.00  0.00    +0.000 C 
ATOM     19  O   UNL     1       5.938   6.101  15.862  0.00  0.00    +0.000 OA
ATOM     20  N   UNL     1       6.508   3.913  15.381  0.00  0.00    +0.000 N 
ATOM     21  H   UNL     1       6.530   2.970  15.759  0.00  0.00    +0.000 HD
BRANCH  20  22
ATOM     22  C   UNL     1       6.491   3.977  13.968  0.00  0.00    +0.000 A 
ATOM     23  C   UNL     1       5.606   3.234  13.180  0.00  0.00    +0.000 A 
ATOM     24  C   UNL     1       5.633   3.332  11.788  0.00  0.00    +0.000 A 
ATOM     25  C   UNL     1       6.547   4.181  11.168  0.00  0.00    +0.000 A 
ATOM     26  C   UNL     1       7.425   4.944  11.937  0.00  0.00    +0.000 A 
ATOM     27  C   UNL     1       7.384   4.847  13.329  0.00  0.00    +0.000 A 
BRANCH  27  28
ATOM     28  O   UNL     1       8.235   5.598  14.100  0.00  0.00    +0.000 OA
ATOM     29  H   UNL     1       7.853   6.489  14.187  0.00  0.00    +0.000 HD
ENDBRANCH  27  28
ENDBRANCH  20  22
ENDBRANCH   5  18
TORSDOF 5
ENDMDL
MODEL 8
REMARK VINA RESULT:      -6.6      3.376      8.471
REMARK  Name = 
REMARK  6 active torsions:
REMARK  status: ('A' for Active; 'I' for Inactive)
REMARK    1  A    between atoms: C_1  and  C_2
REMARK    2  A    between atoms: C_7  and  N_8
REMARK    3  A    between atoms: C_12  and  C_13
REMARK    4  A    between atoms: C_17  and  C_18
REMARK    5  A    between atoms: N_20  and  C_21
REMARK    6  A    between atoms: C_26  and  O_27
REMARK                            x       y       z     vdW  Elec       q    Type
REMARK                         _______ _______ _______ _____ _____    ______ ____
ROOT
ATOM      1  C   UNL     1      -0.281  10.938  20.840  0.00  0.00    +0.000 C 
ATOM      2  O   UNL     1      -1.093  11.682  21.760  0.00  0.00    +0.000 OA
ATOM      3  C   UNL     1      -1.203  10.958  22.983  0.00  0.00    +0.000 C 
ATOM      4  C   UNL     1      -0.362   9.704  22.863  0.00  0.00    +0.000 C 
ATOM      5  C   UNL     1      -0.224   9.502  21.369  0.00  0.00    +0.000 C 
ENDROOT
BRANCH   1  10
ATOM      6  N   UNL     1      -0.639  12.174  18.623  0.00  0.00    +0.000 N 
ATOM      7  N   UNL     1      -1.484  12.144  17.554  0.00  0.00    +0.000 NA
ATOM      8  C   UNL     1      -2.180  11.022  17.685  0.00  0.00    +0.000 A 
ATOM      9  C   UNL     1      -1.849  10.326  18.848  0.00  0.00    +0.000 A 
ATOM     10  C   UNL     1      -0.894  11.102  19.485  0.00  0.00    +0.000 A 
BRANCH   6  17
ATOM     11  C   UNL     1       2.267  11.647  18.073  0.00  0.00    +0.000 C 
ATOM     12  C   UNL     1       1.702  12.990  18.453  0.00  0.00    +0.000 A 
ATOM     13  C   UNL     1       2.592  14.082  18.491  0.00  0.00    +0.000 A 
ATOM     14  C   UNL     1       2.152  15.365  18.813  0.00  0.00    +0.000 A 
ATOM     15  C   UNL     1       0.821  15.574  19.145  0.00  0.00    +0.000 A 
ATOM     16  C   UNL     1      -0.078  14.507  19.117  0.00  0.00    +0.000 A 
ATOM     17  C   UNL     1       0.333  13.220  18.727  0.00  0.00    +0.000 A 
ENDBRANCH   6  17
ENDBRANCH   1  10
BRANCH   5  18
ATOM     18  C   UNL     1       1.098   8.866  20.972  0.00  0.00    +0.000 C 
ATOM     19  O   UNL     1       2.058   8.872  21.742  0.00  0.00    +0.000 OA
ATOM     20  N   UNL     1       1.120   8.334  19.699  0.00  0.00    +0.000 N 
ATOM     21  H   UNL     1       0.407   8.607  19.027  0.00  0.00    +0.000 HD
BRANCH  20  22
ATOM     22  C   UNL     1       2.182   7.578  19.151  0.00  0.00    +0.000 A 
ATOM     23  C   UNL     1       2.901   7.979  18.020  0.00  0.00    +0.000 A 
ATOM     24  C   UNL     1       3.939   7.192  17.518  0.00  0.00    +0.000 A 
ATOM     25  C   UNL     1       4.272   5.995  18.146  0.00  0.00    +0.000 A 
ATOM     26  C   UNL     1       3.579   5.587  19.286  0.00  0.00    +0.000 A 
ATOM     27  C   UNL     1       2.548   6.385  19.787  0.00  0.00    +0.000 A 
BRANCH  27  28
ATOM     28  O   UNL     1       1.863   6.003  20.913  0.00  0.00    +0.000 OA
ATOM     29  H   UNL     1       1.074   5.509  20.630  0.00  0.00    +0.000 HD
ENDBRANCH  27  28
ENDBRANCH  20  22
ENDBRANCH   5  18
TORSDOF 5
ENDMDL
MODEL 9
REMARK VINA RESULT:      -6.6      3.700      8.642
REMARK  Name = 
REMARK  6 active torsions:
REMARK  status: ('A' for Active; 'I' for Inactive)
REMARK    1  A    between atoms: C_1  and  C_2
REMARK    2  A    between atoms: C_7  and  N_8
REMARK    3  A    between atoms: C_12  and  C_13
REMARK    4  A    between atoms: C_17  and  C_18
REMARK    5  A    between atoms: N_20  and  C_21
REMARK    6  A    between atoms: C_26  and  O_27
REMARK                            x       y       z     vdW  Elec       q    Type
REMARK                         _______ _______ _______ _____ _____    ______ ____
ROOT
ATOM      1  C   UNL     1      -0.201  11.214  20.932  0.00  0.00    +0.000 C 
ATOM      2  O   UNL     1      -0.963  12.054  21.810  0.00  0.00    +0.000 OA
ATOM      3  C   UNL     1      -1.188  11.368  23.039  0.00  0.00    +0.000 C 
ATOM      4  C   UNL     1      -0.477  10.033  22.969  0.00  0.00    +0.000 C 
ATOM      5  C   UNL     1      -0.309   9.789  21.484  0.00  0.00    +0.000 C 
ENDROOT
BRANCH   1  10
ATOM      6  N   UNL     1      -0.334  12.422  18.675  0.00  0.00    +0.000 N 
ATOM      7  N   UNL     1      -1.143  12.465  17.578  0.00  0.00    +0.000 NA
ATOM      8  C   UNL     1      -1.977  11.442  17.713  0.00  0.00    +0.000 A 
ATOM      9  C   UNL     1      -1.770  10.744  18.903  0.00  0.00    +0.000 A 
ATOM     10  C   UNL     1      -0.746  11.413  19.553  0.00  0.00    +0.000 A 
BRANCH   6  17
ATOM     11  C   UNL     1      -0.719  15.140  19.894  0.00  0.00    +0.000 C 
ATOM     12  C   UNL     1       0.594  14.618  19.375  0.00  0.00    +0.000 A 
ATOM     13  C   UNL     1       1.728  15.441  19.529  0.00  0.00    +0.000 A 
ATOM     14  C   UNL     1       2.987  15.029  19.096  0.00  0.00    +0.000 A 
ATOM     15  C   UNL     1       3.131  13.804  18.460  0.00  0.00    +0.000 A 
ATOM     16  C   UNL     1       2.022  12.974  18.292  0.00  0.00    +0.000 A 
ATOM     17  C   UNL     1       0.757  13.342  18.786  0.00  0.00    +0.000 A 
ENDBRANCH   6  17
ENDBRANCH   1  10
BRANCH   5  18
ATOM     18  C   UNL     1       0.954   9.015  21.144  0.00  0.00    +0.000 C 
ATOM     19  O   UNL     1       1.832   8.838  21.989  0.00  0.00    +0.000 OA
ATOM     20  N   UNL     1       1.026   8.579  19.838  0.00  0.00    +0.000 N 
ATOM     21  H   UNL     1       0.418   8.991  19.135  0.00  0.00    +0.000 HD
BRANCH  20  22
ATOM     22  C   UNL     1       2.031   7.730  19.317  0.00  0.00    +0.000 A 
ATOM     23  C   UNL     1       2.430   6.546  19.944  0.00  0.00    +0.000 A 
ATOM     24  C   UNL     1       3.430   5.746  19.388  0.00  0.00    +0.000 A 
ATOM     25  C   UNL     1       4.040   6.122  18.194  0.00  0.00    +0.000 A 
ATOM     26  C   UNL     1       3.642   7.290  17.544  0.00  0.00    +0.000 A 
ATOM     27  C   UNL     1       2.634   8.080  18.102  0.00  0.00    +0.000 A 
BRANCH  27  28
ATOM     28  O   UNL     1       2.224   9.226  17.470  0.00  0.00    +0.000 OA
ATOM     29  H   UNL     1       1.326   9.076  17.129  0.00  0.00    +0.000 HD
ENDBRANCH  27  28
ENDBRANCH  20  22
ENDBRANCH   5  18
TORSDOF 5
ENDMDL
