MODEL 1
REMARK VINA RESULT:      -8.5      0.000      0.000
REMARK  Name = 
REMARK  4 active torsions:
REMARK  status: ('A' for Active; 'I' for Inactive)
REMARK    1  A    between atoms: C_2  and  C_17
REMARK    2  A    between atoms: N_3  and  C_4
REMARK    3  A    between atoms: C_8  and  O_9
REMARK    4  A    between atoms: O_9  and  C_10
REMARK                            x       y       z     vdW  Elec       q    Type
REMARK                         _______ _______ _______ _____ _____    ______ ____
ROOT
ATOM      1  O   UNL     1       2.253   7.443  18.474  0.00  0.00    +0.000 OA
ATOM      2  C   UNL     1       1.902   7.357  19.645  0.00  0.00    +0.000 C 
ATOM      3  N   UNL     1       1.929   6.210  20.437  0.00  0.00    +0.000 N 
ATOM      4  H   UNL     1       1.399   6.272  21.301  0.00  0.00    +0.000 HD
ENDROOT
BRANCH   2   5
ATOM      5  C   UNL     1       1.476   8.589  20.451  0.00  0.00    +0.000 C 
ATOM      6  C   UNL     1       0.828   9.704  19.620  0.00  0.00    +0.000 C 
ATOM      7  C   UNL     1       0.143  10.391  20.748  0.00  0.00    +0.000 A 
ATOM      8  C   UNL     1      -0.317  11.689  20.871  0.00  0.00    +0.000 A 
ATOM      9  C   UNL     1      -0.917  12.059  22.081  0.00  0.00    +0.000 A 
ATOM     10  C   UNL     1      -1.080  11.127  23.121  0.00  0.00    +0.000 A 
ATOM     11  C   UNL     1      -0.630   9.815  22.974  0.00  0.00    +0.000 A 
ATOM     12  C   UNL     1      -0.006   9.485  21.790  0.00  0.00    +0.000 A 
ATOM     13  O   UNL     1       0.570   8.264  21.533  0.00  0.00    +0.000 OA
ENDBRANCH   2   5
BRANCH   3  14
ATOM     14  C   UNL     1       2.483   4.958  20.104  0.00  0.00    +0.000 A 
ATOM     15  C   UNL     1       1.724   3.787  20.051  0.00  0.00    +0.000 A 
ATOM     16  C   UNL     1       2.315   2.574  19.687  0.00  0.00    +0.000 A 
ATOM     17  C   UNL     1       3.674   2.515  19.393  0.00  0.00    +0.000 A 
ATOM     18  C   UNL     1       4.455   3.669  19.475  0.00  0.00    +0.000 A 
ATOM     19  C   UNL     1       3.848   4.895  19.782  0.00  0.00    +0.000 A 
BRANCH  18  20
ATOM     20  O   UNL     1       5.803   3.693  19.193  0.00  0.00    +0.000 OA
BRANCH  20  21
ATOM     21  C   UNL     1       6.336   4.827  18.582  0.00  0.00    +0.000 A 
ATOM     22  N   UNL     1       7.317   5.440  19.269  0.00  0.00    +0.000 NA
ATOM     23  C   UNL     1       7.847   6.536  18.693  0.00  0.00    +0.000 A 
ATOM     24  C   UNL     1       7.442   7.030  17.476  0.00  0.00    +0.000 A 
ATOM     25  C   UNL     1       6.450   6.315  16.849  0.00  0.00    +0.000 A 
ATOM     26  N   UNL     1       5.891   5.207  17.370  0.00  0.00    +0.000 NA
ENDBRANCH  20  21
ENDBRANCH  18  20
ENDBRANCH   3  14
TORSDOF 4
ENDMDL
MODEL 2
REMARK VINA RESULT:      -8.4      4.221      7.221
REMARK  Name = 
REMARK  4 active torsions:
REMARK  status: ('A' for Active; 'I' for Inactive)
REMARK    1  A    between atoms: C_2  and  C_17
REMARK    2  A    between atoms: N_3  and  C_4
REMARK    3  A    between atoms: C_8  and  O_9
REMARK    4  A    between atoms: O_9  and  C_10
REMARK                            x       y       z     vdW  Elec       q    Type
REMARK                         _______ _______ _______ _____ _____    ______ ____
ROOT
ATOM      1  O   UNL     1       8.135   6.597  19.040  0.00  0.00    +0.000 OA
ATOM      2  C   UNL     1       7.943   7.365  18.104  0.00  0.00    +0.000 C 
ATOM      3  N   UNL     1       7.046   7.182  17.052  0.00  0.00    +0.000 N 
ATOM      4  H   UNL     1       7.179   7.804  16.261  0.00  0.00    +0.000 HD
ENDROOT
BRANCH   2   5
ATOM      5  C   UNL     1       8.619   8.738  18.037  0.00  0.00    +0.000 C 
ATOM      6  C   UNL     1       7.727   9.865  17.503  0.00  0.00    +0.000 C 
ATOM      7  C   UNL     1       8.512  10.996  18.066  0.00  0.00    +0.000 A 
ATOM      8  C   UNL     1       8.573  12.328  17.697  0.00  0.00    +0.000 A 
ATOM      9  C   UNL     1       9.431  13.168  18.417  0.00  0.00    +0.000 A 
ATOM     10  C   UNL     1      10.176  12.679  19.505  0.00  0.00    +0.000 A 
ATOM     11  C   UNL     1      10.086  11.338  19.879  0.00  0.00    +0.000 A 
ATOM     12  C   UNL     1       9.267  10.521  19.131  0.00  0.00    +0.000 A 
ATOM     13  O   UNL     1       9.147   9.165  19.317  0.00  0.00    +0.000 OA
ENDBRANCH   2   5
BRANCH   3  14
ATOM     14  C   UNL     1       6.089   6.156  16.917  0.00  0.00    +0.000 A 
ATOM     15  C   UNL     1       6.353   4.962  16.243  0.00  0.00    +0.000 A 
ATOM     16  C   UNL     1       5.380   3.963  16.161  0.00  0.00    +0.000 A 
ATOM     17  C   UNL     1       4.126   4.155  16.735  0.00  0.00    +0.000 A 
ATOM     18  C   UNL     1       3.832   5.357  17.382  0.00  0.00    +0.000 A 
ATOM     19  C   UNL     1       4.831   6.333  17.514  0.00  0.00    +0.000 A 
BRANCH  18  20
ATOM     20  O   UNL     1       2.620   5.620  17.979  0.00  0.00    +0.000 OA
BRANCH  20  21
ATOM     21  C   UNL     1       2.164   4.756  18.973  0.00  0.00    +0.000 A 
ATOM     22  N   UNL     1       2.629   5.009  20.209  0.00  0.00    +0.000 NA
ATOM     23  C   UNL     1       2.197   4.186  21.184  0.00  0.00    +0.000 A 
ATOM     24  C   UNL     1       1.331   3.140  20.972  0.00  0.00    +0.000 A 
ATOM     25  C   UNL     1       0.901   2.984  19.676  0.00  0.00    +0.000 A 
ATOM     26  N   UNL     1       1.288   3.782  18.664  0.00  0.00    +0.000 NA
ENDBRANCH  20  21
ENDBRANCH  18  20
ENDBRANCH   3  14
TORSDOF 4
ENDMDL
MODEL 3
REMARK VINA RESULT:      -8.3      1.255      1.496
REMARK  Name = 
REMARK  4 active torsions:
REMARK  status: ('A' for Active; 'I' for Inactive)
REMARK    1  A    between atoms: C_2  and  C_17
REMARK    2  A    between atoms: N_3  and  C_4
REMARK    3  A    between atoms: C_8  and  O_9
REMARK    4  A    between atoms: O_9  and  C_10
REMARK                            x       y       z     vdW  Elec       q    Type
REMARK                         _______ _______ _______ _____ _____    ______ ____
ROOT
ATOM      1  O   UNL     1       2.467   7.553  18.472  0.00  0.00    +0.000 OA
ATOM      2  C   UNL     1       2.114   7.476  19.643  0.00  0.00    +0.000 C 
ATOM      3  N   UNL     1       2.266   6.373  20.483  0.00  0.00    +0.000 N 
ATOM      4  H   UNL     1       1.722   6.408  21.340  0.00  0.00    +0.000 HD
ENDROOT
BRANCH   2   5
ATOM      5  C   UNL     1       1.537   8.681  20.392  0.00  0.00    +0.000 C 
ATOM      6  C   UNL     1       0.631   9.586  19.547  0.00  0.00    +0.000 C 
ATOM      7  C   UNL     1      -0.074  10.240  20.681  0.00  0.00    +0.000 A 
ATOM      8  C   UNL     1      -0.753  11.444  20.751  0.00  0.00    +0.000 A 
ATOM      9  C   UNL     1      -1.310  11.810  21.982  0.00  0.00    +0.000 A 
ATOM     10  C   UNL     1      -1.216  10.961  23.099  0.00  0.00    +0.000 A 
ATOM     11  C   UNL     1      -0.547   9.741  23.007  0.00  0.00    +0.000 A 
ATOM     12  C   UNL     1       0.029   9.420  21.797  0.00  0.00    +0.000 A 
ATOM     13  O   UNL     1       0.796   8.301  21.577  0.00  0.00    +0.000 OA
ENDBRANCH   2   5
BRANCH   3  14
ATOM     14  C   UNL     1       2.967   5.182  20.208  0.00  0.00    +0.000 A 
ATOM     15  C   UNL     1       2.481   3.921  20.559  0.00  0.00    +0.000 A 
ATOM     16  C   UNL     1       3.200   2.768  20.239  0.00  0.00    +0.000 A 
ATOM     17  C   UNL     1       4.423   2.863  19.582  0.00  0.00    +0.000 A 
ATOM     18  C   UNL     1       4.942   4.117  19.254  0.00  0.00    +0.000 A 
ATOM     19  C   UNL     1       4.190   5.269  19.524  0.00  0.00    +0.000 A 
BRANCH  18  20
ATOM     20  O   UNL     1       6.140   4.294  18.599  0.00  0.00    +0.000 OA
BRANCH  20  21
ATOM     21  C   UNL     1       6.128   4.438  17.213  0.00  0.00    +0.000 A 
ATOM     22  N   UNL     1       7.334   4.614  16.644  0.00  0.00    +0.000 NA
ATOM     23  C   UNL     1       7.343   4.753  15.305  0.00  0.00    +0.000 A 
ATOM     24  C   UNL     1       6.210   4.720  14.527  0.00  0.00    +0.000 A 
ATOM     25  C   UNL     1       5.034   4.512  15.206  0.00  0.00    +0.000 A 
ATOM     26  N   UNL     1       4.964   4.355  16.541  0.00  0.00    +0.000 NA
ENDBRANCH  20  21
ENDBRANCH  18  20
ENDBRANCH   3  14
TORSDOF 4
ENDMDL
MODEL 4
REMARK VINA RESULT:      -8.2      1.014      1.034
REMARK  Name = 
REMARK  4 active torsions:
REMARK  status: ('A' for Active; 'I' for Inactive)
REMARK    1  A    between atoms: C_2  and  C_17
REMARK    2  A    between atoms: N_3  and  C_4
REMARK    3  A    between atoms: C_8  and  O_9
REMARK    4  A    between atoms: O_9  and  C_10
REMARK                            x       y       z     vdW  Elec       q    Type
REMARK                         _______ _______ _______ _____ _____    ______ ____
ROOT
ATOM      1  O   UNL     1       2.369   8.128  17.736  0.00  0.00    +0.000 OA
ATOM      2  C   UNL     1       1.938   7.792  18.833  0.00  0.00    +0.000 C 
ATOM      3  N   UNL     1       1.908   6.498  19.350  0.00  0.00    +0.000 N 
ATOM      4  H   UNL     1       1.320   6.376  20.169  0.00  0.00    +0.000 HD
ENDROOT
BRANCH   2   5
ATOM      5  C   UNL     1       1.459   8.823  19.861  0.00  0.00    +0.000 C 
ATOM      6  C   UNL     1       0.495   9.879  19.306  0.00  0.00    +0.000 C 
ATOM      7  C   UNL     1      -0.086  10.292  20.612  0.00  0.00    +0.000 A 
ATOM      8  C   UNL     1      -0.731  11.457  20.987  0.00  0.00    +0.000 A 
ATOM      9  C   UNL     1      -1.161  11.568  22.315  0.00  0.00    +0.000 A 
ATOM     10  C   UNL     1      -0.978  10.512  23.224  0.00  0.00    +0.000 A 
ATOM     11  C   UNL     1      -0.347   9.334  22.825  0.00  0.00    +0.000 A 
ATOM     12  C   UNL     1       0.106   9.263  21.525  0.00  0.00    +0.000 A 
ATOM     13  O   UNL     1       0.826   8.212  21.012  0.00  0.00    +0.000 OA
ENDBRANCH   2   5
BRANCH   3  14
ATOM     14  C   UNL     1       2.483   5.341  18.787  0.00  0.00    +0.000 A 
ATOM     15  C   UNL     1       1.729   4.371  18.122  0.00  0.00    +0.000 A 
ATOM     16  C   UNL     1       2.349   3.256  17.554  0.00  0.00    +0.000 A 
ATOM     17  C   UNL     1       3.727   3.087  17.662  0.00  0.00    +0.000 A 
ATOM     18  C   UNL     1       4.492   4.028  18.354  0.00  0.00    +0.000 A 
ATOM     19  C   UNL     1       3.874   5.177  18.870  0.00  0.00    +0.000 A 
BRANCH  18  20
ATOM     20  O   UNL     1       5.857   3.936  18.499  0.00  0.00    +0.000 OA
BRANCH  20  21
ATOM     21  C   UNL     1       6.622   5.095  18.374  0.00  0.00    +0.000 A 
ATOM     22  N   UNL     1       7.443   5.354  19.408  0.00  0.00    +0.000 NA
ATOM     23  C   UNL     1       8.191   6.468  19.305  0.00  0.00    +0.000 A 
ATOM     24  C   UNL     1       8.152   7.317  18.225  0.00  0.00    +0.000 A 
ATOM     25  C   UNL     1       7.296   6.947  17.215  0.00  0.00    +0.000 A 
ATOM     26  N   UNL     1       6.533   5.839  17.256  0.00  0.00    +0.000 NA
ENDBRANCH  20  21
ENDBRANCH  18  20
ENDBRANCH   3  14
TORSDOF 4
ENDMDL
MODEL 5
REMARK VINA RESULT:      -7.9      2.265      4.097
REMARK  Name = 
REMARK  4 active torsions:
REMARK  status: ('A' for Active; 'I' for Inactive)
REMARK    1  A    between atoms: C_2  and  C_17
REMARK    2  A    between atoms: N_3  and  C_4
REMARK    3  A    between atoms: C_8  and  O_9
REMARK    4  A    between atoms: O_9  and  C_10
REMARK                            x       y       z     vdW  Elec       q    Type
REMARK                         _______ _______ _______ _____ _____    ______ ____
ROOT
ATOM      1  O   UNL     1       2.264   6.703  19.729  0.00  0.00    +0.000 OA
ATOM      2  C   UNL     1       2.459   7.632  18.953  0.00  0.00    +0.000 C 
ATOM      3  N   UNL     1       3.266   7.607  17.817  0.00  0.00    +0.000 N 
ATOM      4  H   UNL     1       3.484   8.518  17.424  0.00  0.00    +0.000 HD
ENDROOT
BRANCH   2   5
ATOM      5  C   UNL     1       1.711   8.962  19.086  0.00  0.00    +0.000 C 
ATOM      6  C   UNL     1       0.733   9.263  17.942  0.00  0.00    +0.000 C 
ATOM      7  C   UNL     1      -0.089  10.266  18.671  0.00  0.00    +0.000 A 
ATOM      8  C   UNL     1      -0.912  11.274  18.201  0.00  0.00    +0.000 A 
ATOM      9  C   UNL     1      -1.556  12.084  19.143  0.00  0.00    +0.000 A 
ATOM     10  C   UNL     1      -1.402  11.853  20.522  0.00  0.00    +0.000 A 
ATOM     11  C   UNL     1      -0.586  10.818  20.979  0.00  0.00    +0.000 A 
ATOM     12  C   UNL     1       0.071  10.060  20.035  0.00  0.00    +0.000 A 
ATOM     13  O   UNL     1       0.977   9.070  20.330  0.00  0.00    +0.000 OA
ENDBRANCH   2   5
BRANCH   3  14
ATOM     14  C   UNL     1       3.912   6.487  17.254  0.00  0.00    +0.000 A 
ATOM     15  C   UNL     1       4.918   6.601  16.293  0.00  0.00    +0.000 A 
ATOM     16  C   UNL     1       5.548   5.462  15.786  0.00  0.00    +0.000 A 
ATOM     17  C   UNL     1       5.165   4.196  16.221  0.00  0.00    +0.000 A 
ATOM     18  C   UNL     1       4.137   4.061  17.155  0.00  0.00    +0.000 A 
ATOM     19  C   UNL     1       3.548   5.209  17.706  0.00  0.00    +0.000 A 
BRANCH  18  20
ATOM     20  O   UNL     1       3.706   2.846  17.639  0.00  0.00    +0.000 OA
BRANCH  20  21
ATOM     21  C   UNL     1       2.931   2.826  18.797  0.00  0.00    +0.000 A 
ATOM     22  N   UNL     1       1.601   2.813  18.595  0.00  0.00    +0.000 NA
ATOM     23  C   UNL     1       0.834   2.791  19.702  0.00  0.00    +0.000 A 
ATOM     24  C   UNL     1       1.340   2.777  20.980  0.00  0.00    +0.000 A 
ATOM     25  C   UNL     1       2.711   2.768  21.072  0.00  0.00    +0.000 A 
ATOM     26  N   UNL     1       3.527   2.778  20.002  0.00  0.00    +0.000 NA
ENDBRANCH  20  21
ENDBRANCH  18  20
ENDBRANCH   3  14
TORSDOF 4
ENDMDL
MODEL 6
REMARK VINA RESULT:      -7.9      2.174      3.958
REMARK  Name = 
REMARK  4 active torsions:
REMARK  status: ('A' for Active; 'I' for Inactive)
REMARK    1  A    between atoms: C_2  and  C_17
REMARK    2  A    between atoms: N_3  and  C_4
REMARK    3  A    between atoms: C_8  and  O_9
REMARK    4  A    between atoms: O_9  and  C_10
REMARK                            x       y       z     vdW  Elec       q    Type
REMARK                         _______ _______ _______ _____ _____    ______ ____
ROOT
ATOM      1  O   UNL     1       1.581   9.574  17.241  0.00  0.00    +0.000 OA
ATOM      2  C   UNL     1       1.572   9.197  18.407  0.00  0.00    +0.000 C 
ATOM      3  N   UNL     1       2.149   8.029  18.904  0.00  0.00    +0.000 N 
ATOM      4  H   UNL     1       1.856   7.770  19.842  0.00  0.00    +0.000 HD
ENDROOT
BRANCH   2   5
ATOM      5  C   UNL     1       0.995  10.064  19.530  0.00  0.00    +0.000 C 
ATOM      6  C   UNL     1      -0.240  10.883  19.135  0.00  0.00    +0.000 C 
ATOM      7  C   UNL     1      -0.744  11.120  20.515  0.00  0.00    +0.000 A 
ATOM      8  C   UNL     1      -1.588  12.096  21.014  0.00  0.00    +0.000 A 
ATOM      9  C   UNL     1      -1.875  12.074  22.384  0.00  0.00    +0.000 A 
ATOM     10  C   UNL     1      -1.354  11.066  23.215  0.00  0.00    +0.000 A 
ATOM     11  C   UNL     1      -0.523  10.076  22.693  0.00  0.00    +0.000 A 
ATOM     12  C   UNL     1      -0.220  10.142  21.350  0.00  0.00    +0.000 A 
ATOM     13  O   UNL     1       0.654   9.297  20.710  0.00  0.00    +0.000 OA
ENDBRANCH   2   5
BRANCH   3  14
ATOM     14  C   UNL     1       2.967   7.117  18.206  0.00  0.00    +0.000 A 
ATOM     15  C   UNL     1       3.976   7.526  17.332  0.00  0.00    +0.000 A 
ATOM     16  C   UNL     1       4.779   6.584  16.685  0.00  0.00    +0.000 A 
ATOM     17  C   UNL     1       4.570   5.223  16.890  0.00  0.00    +0.000 A 
ATOM     18  C   UNL     1       3.542   4.795  17.733  0.00  0.00    +0.000 A 
ATOM     19  C   UNL     1       2.777   5.744  18.427  0.00  0.00    +0.000 A 
BRANCH  18  20
ATOM     20  O   UNL     1       3.276   3.470  17.992  0.00  0.00    +0.000 OA
BRANCH  20  21
ATOM     21  C   UNL     1       2.715   3.129  19.221  0.00  0.00    +0.000 A 
ATOM     22  N   UNL     1       1.375   3.019  19.229  0.00  0.00    +0.000 NA
ATOM     23  C   UNL     1       0.815   2.688  20.408  0.00  0.00    +0.000 A 
ATOM     24  C   UNL     1       1.533   2.463  21.558  0.00  0.00    +0.000 A 
ATOM     25  C   UNL     1       2.897   2.580  21.434  0.00  0.00    +0.000 A 
ATOM     26  N   UNL     1       3.513   2.896  20.280  0.00  0.00    +0.000 NA
ENDBRANCH  20  21
ENDBRANCH  18  20
ENDBRANCH   3  14
TORSDOF 4
ENDMDL
MODEL 7
REMARK VINA RESULT:      -7.8      3.970      7.679
REMARK  Name = 
REMARK  4 active torsions:
REMARK  status: ('A' for Active; 'I' for Inactive)
REMARK    1  A    between atoms: C_2  and  C_17
REMARK    2  A    between atoms: N_3  and  C_4
REMARK    3  A    between atoms: C_8  and  O_9
REMARK    4  A    between atoms: O_9  and  C_10
REMARK                            x       y       z     vdW  Elec       q    Type
REMARK                         _______ _______ _______ _____ _____    ______ ____
ROOT
ATOM      1  O   UNL     1       8.610   7.266  18.950  0.00  0.00    +0.000 OA
ATOM      2  C   UNL     1       8.143   8.144  18.234  0.00  0.00    +0.000 C 
ATOM      3  N   UNL     1       7.188   7.976  17.232  0.00  0.00    +0.000 N 
ATOM      4  H   UNL     1       7.084   8.764  16.599  0.00  0.00    +0.000 HD
ENDROOT
BRANCH   2   5
ATOM      5  C   UNL     1       8.488   9.622  18.442  0.00  0.00    +0.000 C 
ATOM      6  C   UNL     1       9.112   9.948  19.805  0.00  0.00    +0.000 C 
ATOM      7  C   UNL     1       9.730  11.243  19.412  0.00  0.00    +0.000 A 
ATOM      8  C   UNL     1      10.129  12.324  20.178  0.00  0.00    +0.000 A 
ATOM      9  C   UNL     1      10.673  13.430  19.515  0.00  0.00    +0.000 A 
ATOM     10  C   UNL     1      10.845  13.423  18.119  0.00  0.00    +0.000 A 
ATOM     11  C   UNL     1      10.459  12.317  17.363  0.00  0.00    +0.000 A 
ATOM     12  C   UNL     1       9.887  11.256  18.032  0.00  0.00    +0.000 A 
ATOM     13  O   UNL     1       9.373  10.139  17.419  0.00  0.00    +0.000 OA
ENDBRANCH   2   5
BRANCH   3  14
ATOM     14  C   UNL     1       6.470   6.802  16.927  0.00  0.00    +0.000 A 
ATOM     15  C   UNL     1       7.030   5.737  16.218  0.00  0.00    +0.000 A 
ATOM     16  C   UNL     1       6.286   4.583  15.966  0.00  0.00    +0.000 A 
ATOM     17  C   UNL     1       4.968   4.486  16.403  0.00  0.00    +0.000 A 
ATOM     18  C   UNL     1       4.380   5.554  17.083  0.00  0.00    +0.000 A 
ATOM     19  C   UNL     1       5.148   6.688  17.387  0.00  0.00    +0.000 A 
BRANCH  18  20
ATOM     20  O   UNL     1       3.086   5.534  17.553  0.00  0.00    +0.000 OA
BRANCH  20  21
ATOM     21  C   UNL     1       2.819   4.860  18.743  0.00  0.00    +0.000 A 
ATOM     22  N   UNL     1       2.405   5.636  19.761  0.00  0.00    +0.000 NA
ATOM     23  C   UNL     1       2.140   5.002  20.919  0.00  0.00    +0.000 A 
ATOM     24  C   UNL     1       2.267   3.644  21.093  0.00  0.00    +0.000 A 
ATOM     25  C   UNL     1       2.675   2.943  19.983  0.00  0.00    +0.000 A 
ATOM     26  N   UNL     1       2.943   3.520  18.797  0.00  0.00    +0.000 NA
ENDBRANCH  20  21
ENDBRANCH  18  20
ENDBRANCH   3  14
TORSDOF 4
ENDMDL
MODEL 8
REMARK VINA RESULT:      -7.7      0.810      1.012
REMARK  Name = 
REMARK  4 active torsions:
REMARK  status: ('A' for Active; 'I' for Inactive)
REMARK    1  A    between atoms: C_2  and  C_17
REMARK    2  A    between atoms: N_3  and  C_4
REMARK    3  A    between atoms: C_8  and  O_9
REMARK    4  A    between atoms: O_9  and  C_10
REMARK                            x       y       z     vdW  Elec       q    Type
REMARK                         _______ _______ _______ _____ _____    ______ ____
ROOT
ATOM      1  O   UNL     1       2.802   7.331  18.034  0.00  0.00    +0.000 OA
ATOM      2  C   UNL     1       2.202   7.516  19.086  0.00  0.00    +0.000 C 
ATOM      3  N   UNL     1       1.990   6.578  20.095  0.00  0.00    +0.000 N 
ATOM      4  H   UNL     1       1.290   6.839  20.784  0.00  0.00    +0.000 HD
ENDROOT
BRANCH   2   5
ATOM      5  C   UNL     1       1.685   8.902  19.485  0.00  0.00    +0.000 C 
ATOM      6  C   UNL     1       0.859   9.612  18.405  0.00  0.00    +0.000 C 
ATOM      7  C   UNL     1       0.170  10.571  19.311  0.00  0.00    +0.000 A 
ATOM      8  C   UNL     1      -0.432  11.789  19.050  0.00  0.00    +0.000 A 
ATOM      9  C   UNL     1      -0.994  12.485  20.127  0.00  0.00    +0.000 A 
ATOM     10  C   UNL     1      -0.980  11.942  21.424  0.00  0.00    +0.000 A 
ATOM     11  C   UNL     1      -0.389  10.703  21.667  0.00  0.00    +0.000 A 
ATOM     12  C   UNL     1       0.194  10.055  20.600  0.00  0.00    +0.000 A 
ATOM     13  O   UNL     1       0.894   8.876  20.698  0.00  0.00    +0.000 OA
ENDBRANCH   2   5
BRANCH   3  14
ATOM     14  C   UNL     1       2.528   5.279  20.178  0.00  0.00    +0.000 A 
ATOM     15  C   UNL     1       1.851   4.218  20.783  0.00  0.00    +0.000 A 
ATOM     16  C   UNL     1       2.415   2.941  20.815  0.00  0.00    +0.000 A 
ATOM     17  C   UNL     1       3.672   2.714  20.259  0.00  0.00    +0.000 A 
ATOM     18  C   UNL     1       4.379   3.770  19.681  0.00  0.00    +0.000 A 
ATOM     19  C   UNL     1       3.784   5.037  19.598  0.00  0.00    +0.000 A 
BRANCH  18  20
ATOM     20  O   UNL     1       5.621   3.625  19.106  0.00  0.00    +0.000 OA
BRANCH  20  21
ATOM     21  C   UNL     1       6.229   4.744  18.540  0.00  0.00    +0.000 A 
ATOM     22  N   UNL     1       7.227   5.281  19.264  0.00  0.00    +0.000 NA
ATOM     23  C   UNL     1       7.829   6.362  18.732  0.00  0.00    +0.000 A 
ATOM     24  C   UNL     1       7.478   6.914  17.523  0.00  0.00    +0.000 A 
ATOM     25  C   UNL     1       6.461   6.274  16.856  0.00  0.00    +0.000 A 
ATOM     26  N   UNL     1       5.831   5.184  17.331  0.00  0.00    +0.000 NA
ENDBRANCH  20  21
ENDBRANCH  18  20
ENDBRANCH   3  14
TORSDOF 4
ENDMDL
MODEL 9
REMARK VINA RESULT:      -7.7      2.149      3.849
REMARK  Name = 
REMARK  4 active torsions:
REMARK  status: ('A' for Active; 'I' for Inactive)
REMARK    1  A    between atoms: C_2  and  C_17
REMARK    2  A    between atoms: N_3  and  C_4
REMARK    3  A    between atoms: C_8  and  O_9
REMARK    4  A    between atoms: O_9  and  C_10
REMARK                            x       y       z     vdW  Elec       q    Type
REMARK                         _______ _______ _______ _____ _____    ______ ____
ROOT
ATOM      1  O   UNL     1       1.702   9.250  17.131  0.00  0.00    +0.000 OA
ATOM      2  C   UNL     1       1.862   8.869  18.284  0.00  0.00    +0.000 C 
ATOM      3  N   UNL     1       2.609   7.766  18.696  0.00  0.00    +0.000 N 
ATOM      4  H   UNL     1       2.449   7.473  19.656  0.00  0.00    +0.000 HD
ENDROOT
BRANCH   2   5
ATOM      5  C   UNL     1       1.325   9.665  19.478  0.00  0.00    +0.000 C 
ATOM      6  C   UNL     1       0.139  10.583  19.153  0.00  0.00    +0.000 C 
ATOM      7  C   UNL     1      -0.361  10.726  20.546  0.00  0.00    +0.000 A 
ATOM      8  C   UNL     1      -1.154  11.699  21.128  0.00  0.00    +0.000 A 
ATOM      9  C   UNL     1      -1.453  11.573  22.490  0.00  0.00    +0.000 A 
ATOM     10  C   UNL     1      -0.994  10.469  23.230  0.00  0.00    +0.000 A 
ATOM     11  C   UNL     1      -0.214   9.484  22.625  0.00  0.00    +0.000 A 
ATOM     12  C   UNL     1       0.102   9.650  21.294  0.00  0.00    +0.000 A 
ATOM     13  O   UNL     1       0.934   8.818  20.585  0.00  0.00    +0.000 OA
ENDBRANCH   2   5
BRANCH   3  14
ATOM     14  C   UNL     1       3.435   6.950  17.898  0.00  0.00    +0.000 A 
ATOM     15  C   UNL     1       4.428   7.467  17.064  0.00  0.00    +0.000 A 
ATOM     16  C   UNL     1       5.241   6.615  16.314  0.00  0.00    +0.000 A 
ATOM     17  C   UNL     1       5.058   5.236  16.374  0.00  0.00    +0.000 A 
ATOM     18  C   UNL     1       4.047   4.702  17.176  0.00  0.00    +0.000 A 
ATOM     19  C   UNL     1       3.272   5.557  17.973  0.00  0.00    +0.000 A 
BRANCH  18  20
ATOM     20  O   UNL     1       3.807   3.352  17.294  0.00  0.00    +0.000 OA
BRANCH  20  21
ATOM     21  C   UNL     1       2.898   2.917  18.257  0.00  0.00    +0.000 A 
ATOM     22  N   UNL     1       3.386   2.828  19.507  0.00  0.00    +0.000 NA
ATOM     23  C   UNL     1       2.521   2.412  20.452  0.00  0.00    +0.000 A 
ATOM     24  C   UNL     1       1.209   2.091  20.198  0.00  0.00    +0.000 A 
ATOM     25  C   UNL     1       0.808   2.238  18.892  0.00  0.00    +0.000 A 
ATOM     26  N   UNL     1       1.623   2.661  17.908  0.00  0.00    +0.000 NA
ENDBRANCH  20  21
ENDBRANCH  18  20
ENDBRANCH   3  14
TORSDOF 4
ENDMDL
