MODEL 1
REMARK VINA RESULT:      -8.1      0.000      0.000
REMARK  Name = 
REMARK  6 active torsions:
REMARK  status: ('A' for Active; 'I' for Inactive)
REMARK    1  A    between atoms: C_1  and  C_2
REMARK    2  A    between atoms: C_3  and  C_4
REMARK    3  A    between atoms: C_5  and  C_6
REMARK    4  A    between atoms: N_8  and  C_9
REMARK    5  A    between atoms: N_23  and  C_24
REMARK    6  A    between atoms: N_27  and  C_28
REMARK                            x       y       z     vdW  Elec       q    Type
REMARK                         _______ _______ _______ _____ _____    ______ ____
ROOT
ATOM      1  C   UNL     1       1.563   9.473  18.663  0.00  0.00    +0.000 C 
ATOM      2  O   UNL     1       1.702   9.864  17.512  0.00  0.00    +0.000 OA
ATOM      3  N   UNL     1       1.925   8.198  19.082  0.00  0.00    +0.000 N 
ATOM      4  H   UNL     1       1.734   7.926  20.038  0.00  0.00    +0.000 HD
ENDROOT
BRANCH   3   5
ATOM      5  C   UNL     1       2.508   7.195  18.223  0.00  0.00    +0.000 C 
ATOM      6  C   UNL     1       2.305   5.751  18.633  0.00  0.00    +0.000 C 
ATOM      7  C   UNL     1       2.069   4.643  17.641  0.00  0.00    +0.000 C 
ATOM      8  C   UNL     1       3.254   3.671  17.694  0.00  0.00    +0.000 C 
ATOM      9  C   UNL     1       4.484   4.408  17.213  0.00  0.00    +0.000 A 
ATOM     10  C   UNL     1       5.374   3.798  16.320  0.00  0.00    +0.000 A 
ATOM     11  C   UNL     1       6.458   4.516  15.829  0.00  0.00    +0.000 A 
ATOM     12  C   UNL     1       6.664   5.835  16.249  0.00  0.00    +0.000 A 
ATOM     13  C   UNL     1       5.789   6.433  17.159  0.00  0.00    +0.000 A 
ATOM     14  C   UNL     1       4.680   5.741  17.660  0.00  0.00    +0.000 A 
ATOM     15  C   UNL     1       3.698   6.359  18.651  0.00  0.00    +0.000 C 
ENDBRANCH   3   5
BRANCH   1  17
ATOM     16  C   UNL     1       0.799  11.799  19.625  0.00  0.00    +0.000 C 
ATOM     17  C   UNL     1       0.871  10.285  19.759  0.00  0.00    +0.000 C 
ATOM     18  C   UNL     1      -0.625   9.913  19.771  0.00  0.00    +0.000 C 
ATOM     19  C   UNL     1      -1.290  11.032  18.985  0.00  0.00    +0.000 C 
ATOM     20  O   UNL     1      -2.463  11.049  18.657  0.00  0.00    +0.000 OA
ATOM     21  N   UNL     1      -0.357  12.042  18.799  0.00  0.00    +0.000 N 
ATOM     22  C   UNL     1      -0.690  13.352  18.273  0.00  0.00    +0.000 C 
BRANCH  16  25
ATOM     23  C   UNL     1       2.257  14.158  21.377  0.00  0.00    +0.000 C 
ATOM     24  C   UNL     1       2.564  13.634  20.020  0.00  0.00    +0.000 A 
ATOM     25  C   UNL     1       1.992  12.614  19.265  0.00  0.00    +0.000 A 
ATOM     26  C   UNL     1       2.717  12.647  18.050  0.00  0.00    +0.000 A 
ATOM     27  N   UNL     1       3.650  13.600  18.030  0.00  0.00    +0.000 NA
ATOM     28  N   UNL     1       3.514  14.211  19.215  0.00  0.00    +0.000 N 
ATOM     29  C   UNL     1       4.271  15.412  19.489  0.00  0.00    +0.000 C 
ENDBRANCH  16  25
ENDBRANCH   1  17
TORSDOF 3
ENDMDL
MODEL 2
REMARK VINA RESULT:      -8.1      2.923      7.968
REMARK  Name = 
REMARK  6 active torsions:
REMARK  status: ('A' for Active; 'I' for Inactive)
REMARK    1  A    between atoms: C_1  and  C_2
REMARK    2  A    between atoms: C_3  and  C_4
REMARK    3  A    between atoms: C_5  and  C_6
REMARK    4  A    between atoms: N_8  and  C_9
REMARK    5  A    between atoms: N_23  and  C_24
REMARK    6  A    between atoms: N_27  and  C_28
REMARK                            x       y       z     vdW  Elec       q    Type
REMARK                         _______ _______ _______ _____ _____    ______ ____
ROOT
ATOM      1  C   UNL     1       2.217   6.097  18.700  0.00  0.00    +0.000 C 
ATOM      2  O   UNL     1       2.284   5.935  19.912  0.00  0.00    +0.000 OA
ATOM      3  N   UNL     1       2.138   7.350  18.104  0.00  0.00    +0.000 N 
ATOM      4  H   UNL     1       2.034   7.406  17.099  0.00  0.00    +0.000 HD
ENDROOT
BRANCH   3   5
ATOM      5  C   UNL     1       2.131   8.598  18.831  0.00  0.00    +0.000 C 
ATOM      6  C   UNL     1       0.869   8.926  19.602  0.00  0.00    +0.000 C 
ATOM      7  C   UNL     1       0.884   9.609  20.944  0.00  0.00    +0.000 C 
ATOM      8  C   UNL     1       0.220  10.984  20.807  0.00  0.00    +0.000 C 
ATOM      9  C   UNL     1       1.083  11.830  19.898  0.00  0.00    +0.000 A 
ATOM     10  C   UNL     1       1.365  13.163  20.225  0.00  0.00    +0.000 A 
ATOM     11  C   UNL     1       2.221  13.904  19.419  0.00  0.00    +0.000 A 
ATOM     12  C   UNL     1       2.775  13.319  18.275  0.00  0.00    +0.000 A 
ATOM     13  C   UNL     1       2.473  11.998  17.937  0.00  0.00    +0.000 A 
ATOM     14  C   UNL     1       1.626  11.221  18.737  0.00  0.00    +0.000 A 
ATOM     15  C   UNL     1       1.274   9.774  18.406  0.00  0.00    +0.000 C 
ENDBRANCH   3   5
BRANCH   1  17
ATOM     16  C   UNL     1       3.333   4.136  17.348  0.00  0.00    +0.000 C 
ATOM     17  C   UNL     1       2.095   4.951  17.694  0.00  0.00    +0.000 C 
ATOM     18  C   UNL     1       1.181   3.867  18.298  0.00  0.00    +0.000 C 
ATOM     19  C   UNL     1       2.150   2.835  18.853  0.00  0.00    +0.000 C 
ATOM     20  O   UNL     1       1.827   1.872  19.526  0.00  0.00    +0.000 OA
ATOM     21  N   UNL     1       3.419   3.137  18.384  0.00  0.00    +0.000 N 
ATOM     22  C   UNL     1       4.560   2.256  18.537  0.00  0.00    +0.000 C 
BRANCH  16  25
ATOM     23  C   UNL     1       5.559   5.420  19.387  0.00  0.00    +0.000 C 
ATOM     24  C   UNL     1       5.537   5.349  17.902  0.00  0.00    +0.000 A 
ATOM     25  C   UNL     1       4.631   4.782  17.010  0.00  0.00    +0.000 A 
ATOM     26  C   UNL     1       5.170   5.093  15.739  0.00  0.00    +0.000 A 
ATOM     27  N   UNL     1       6.300   5.798  15.814  0.00  0.00    +0.000 NA
ATOM     28  N   UNL     1       6.483   5.976  17.129  0.00  0.00    +0.000 N 
ATOM     29  C   UNL     1       7.547   6.840  17.590  0.00  0.00    +0.000 C 
ENDBRANCH  16  25
ENDBRANCH   1  17
TORSDOF 3
ENDMDL
MODEL 3
REMARK VINA RESULT:      -8.1      3.026      8.315
REMARK  Name = 
REMARK  6 active torsions:
REMARK  status: ('A' for Active; 'I' for Inactive)
REMARK    1  A    between atoms: C_1  and  C_2
REMARK    2  A    between atoms: C_3  and  C_4
REMARK    3  A    between atoms: C_5  and  C_6
REMARK    4  A    between atoms: N_8  and  C_9
REMARK    5  A    between atoms: N_23  and  C_24
REMARK    6  A    between atoms: N_27  and  C_28
REMARK                            x       y       z     vdW  Elec       q    Type
REMARK                         _______ _______ _______ _____ _____    ______ ____
ROOT
ATOM      1  C   UNL     1       2.041   6.154  19.926  0.00  0.00    +0.000 C 
ATOM      2  O   UNL     1       2.129   6.221  21.145  0.00  0.00    +0.000 OA
ATOM      3  N   UNL     1       1.926   7.273  19.110  0.00  0.00    +0.000 N 
ATOM      4  H   UNL     1       1.807   7.140  18.114  0.00  0.00    +0.000 HD
ENDROOT
BRANCH   3   5
ATOM      5  C   UNL     1       1.904   8.634  19.593  0.00  0.00    +0.000 C 
ATOM      6  C   UNL     1       0.620   9.100  20.246  0.00  0.00    +0.000 C 
ATOM      7  C   UNL     1       0.594  10.019  21.439  0.00  0.00    +0.000 C 
ATOM      8  C   UNL     1      -0.055  11.345  21.028  0.00  0.00    +0.000 C 
ATOM      9  C   UNL     1       0.843  12.008  20.008  0.00  0.00    +0.000 A 
ATOM     10  C   UNL     1       1.124  13.378  20.092  0.00  0.00    +0.000 A 
ATOM     11  C   UNL     1       2.011  13.957  19.193  0.00  0.00    +0.000 A 
ATOM     12  C   UNL     1       2.599  13.171  18.196  0.00  0.00    +0.000 A 
ATOM     13  C   UNL     1       2.299  11.809  18.098  0.00  0.00    +0.000 A 
ATOM     14  C   UNL     1       1.421  11.195  18.999  0.00  0.00    +0.000 A 
ATOM     15  C   UNL     1       1.070   9.712  18.929  0.00  0.00    +0.000 C 
ENDBRANCH   3   5
BRANCH   1  17
ATOM     16  C   UNL     1       3.162   3.961  19.003  0.00  0.00    +0.000 C 
ATOM     17  C   UNL     1       1.928   4.839  19.152  0.00  0.00    +0.000 C 
ATOM     18  C   UNL     1       0.982   3.899  19.923  0.00  0.00    +0.000 C 
ATOM     19  C   UNL     1       1.919   2.981  20.692  0.00  0.00    +0.000 C 
ATOM     20  O   UNL     1       1.563   2.166  21.526  0.00  0.00    +0.000 OA
ATOM     21  N   UNL     1       3.205   3.176  20.211  0.00  0.00    +0.000 N 
ATOM     22  C   UNL     1       4.328   2.328  20.562  0.00  0.00    +0.000 C 
BRANCH  16  25
ATOM     23  C   UNL     1       4.660   3.692  16.096  0.00  0.00    +0.000 C 
ATOM     24  C   UNL     1       5.101   4.354  17.353  0.00  0.00    +0.000 A 
ATOM     25  C   UNL     1       4.479   4.518  18.587  0.00  0.00    +0.000 A 
ATOM     26  C   UNL     1       5.445   5.200  19.364  0.00  0.00    +0.000 A 
ATOM     27  N   UNL     1       6.574   5.437  18.694  0.00  0.00    +0.000 NA
ATOM     28  N   UNL     1       6.361   4.882  17.493  0.00  0.00    +0.000 N 
ATOM     29  C   UNL     1       7.443   4.811  16.538  0.00  0.00    +0.000 C 
ENDBRANCH  16  25
ENDBRANCH   1  17
TORSDOF 3
ENDMDL
MODEL 4
REMARK VINA RESULT:      -8.1      3.101      8.203
REMARK  Name = 
REMARK  6 active torsions:
REMARK  status: ('A' for Active; 'I' for Inactive)
REMARK    1  A    between atoms: C_1  and  C_2
REMARK    2  A    between atoms: C_3  and  C_4
REMARK    3  A    between atoms: C_5  and  C_6
REMARK    4  A    between atoms: N_8  and  C_9
REMARK    5  A    between atoms: N_23  and  C_24
REMARK    6  A    between atoms: N_27  and  C_28
REMARK                            x       y       z     vdW  Elec       q    Type
REMARK                         _______ _______ _______ _____ _____    ______ ____
ROOT
ATOM      1  C   UNL     1       2.040   6.194  19.640  0.00  0.00    +0.000 C 
ATOM      2  O   UNL     1       1.821   5.868  20.799  0.00  0.00    +0.000 OA
ATOM      3  N   UNL     1       2.007   7.512  19.201  0.00  0.00    +0.000 N 
ATOM      4  H   UNL     1       2.149   7.703  18.218  0.00  0.00    +0.000 HD
ENDROOT
BRANCH   3   5
ATOM      5  C   UNL     1       1.720   8.645  20.050  0.00  0.00    +0.000 C 
ATOM      6  C   UNL     1       0.568   8.489  21.021  0.00  0.00    +0.000 C 
ATOM      7  C   UNL     1       0.587   9.065  22.413  0.00  0.00    +0.000 C 
ATOM      8  C   UNL     1      -0.499  10.143  22.517  0.00  0.00    +0.000 C 
ATOM      9  C   UNL     1      -0.121  11.276  21.590  0.00  0.00    +0.000 A 
ATOM     10  C   UNL     1      -0.234  12.607  22.013  0.00  0.00    +0.000 A 
ATOM     11  C   UNL     1       0.188  13.634  21.178  0.00  0.00    +0.000 A 
ATOM     12  C   UNL     1       0.700  13.331  19.912  0.00  0.00    +0.000 A 
ATOM     13  C   UNL     1       0.789  12.005  19.482  0.00  0.00    +0.000 A 
ATOM     14  C   UNL     1       0.386  10.948  20.307  0.00  0.00    +0.000 A 
ATOM     15  C   UNL     1       0.470   9.486  19.877  0.00  0.00    +0.000 C 
ENDBRANCH   3   5
BRANCH   1  17
ATOM     16  C   UNL     1       3.586   4.447  18.425  0.00  0.00    +0.000 C 
ATOM     17  C   UNL     1       2.264   5.195  18.503  0.00  0.00    +0.000 C 
ATOM     18  C   UNL     1       1.269   4.030  18.676  0.00  0.00    +0.000 C 
ATOM     19  C   UNL     1       2.090   2.941  19.349  0.00  0.00    +0.000 C 
ATOM     20  O   UNL     1       1.637   1.892  19.772  0.00  0.00    +0.000 OA
ATOM     21  N   UNL     1       3.424   3.316  19.306  0.00  0.00    +0.000 N 
ATOM     22  C   UNL     1       4.516   2.433  19.666  0.00  0.00    +0.000 C 
BRANCH  16  25
ATOM     23  C   UNL     1       4.867   6.761  16.485  0.00  0.00    +0.000 C 
ATOM     24  C   UNL     1       5.423   6.099  17.695  0.00  0.00    +0.000 A 
ATOM     25  C   UNL     1       4.894   5.145  18.560  0.00  0.00    +0.000 A 
ATOM     26  C   UNL     1       5.941   4.911  19.483  0.00  0.00    +0.000 A 
ATOM     27  N   UNL     1       7.030   5.636  19.225  0.00  0.00    +0.000 NA
ATOM     28  N   UNL     1       6.711   6.318  18.118  0.00  0.00    +0.000 N 
ATOM     29  C   UNL     1       7.721   7.107  17.450  0.00  0.00    +0.000 C 
ENDBRANCH  16  25
ENDBRANCH   1  17
TORSDOF 3
ENDMDL
MODEL 5
REMARK VINA RESULT:      -8.0      2.298      2.729
REMARK  Name = 
REMARK  6 active torsions:
REMARK  status: ('A' for Active; 'I' for Inactive)
REMARK    1  A    between atoms: C_1  and  C_2
REMARK    2  A    between atoms: C_3  and  C_4
REMARK    3  A    between atoms: C_5  and  C_6
REMARK    4  A    between atoms: N_8  and  C_9
REMARK    5  A    between atoms: N_23  and  C_24
REMARK    6  A    between atoms: N_27  and  C_28
REMARK                            x       y       z     vdW  Elec       q    Type
REMARK                         _______ _______ _______ _____ _____    ______ ____
ROOT
ATOM      1  C   UNL     1       0.571   8.601  21.381  0.00  0.00    +0.000 C 
ATOM      2  O   UNL     1      -0.534   8.117  21.171  0.00  0.00    +0.000 OA
ATOM      3  N   UNL     1       1.748   8.050  20.889  0.00  0.00    +0.000 N 
ATOM      4  H   UNL     1       2.630   8.475  21.144  0.00  0.00    +0.000 HD
ENDROOT
BRANCH   3   5
ATOM      5  C   UNL     1       1.811   6.859  20.074  0.00  0.00    +0.000 C 
ATOM      6  C   UNL     1       1.746   5.534  20.805  0.00  0.00    +0.000 C 
ATOM      7  C   UNL     1       1.018   4.333  20.261  0.00  0.00    +0.000 C 
ATOM      8  C   UNL     1       2.038   3.227  19.966  0.00  0.00    +0.000 C 
ATOM      9  C   UNL     1       2.940   3.710  18.852  0.00  0.00    +0.000 A 
ATOM     10  C   UNL     1       3.279   2.858  17.793  0.00  0.00    +0.000 A 
ATOM     11  C   UNL     1       4.046   3.339  16.739  0.00  0.00    +0.000 A 
ATOM     12  C   UNL     1       4.493   4.665  16.756  0.00  0.00    +0.000 A 
ATOM     13  C   UNL     1       4.175   5.507  17.825  0.00  0.00    +0.000 A 
ATOM     14  C   UNL     1       3.391   5.054  18.894  0.00  0.00    +0.000 A 
ATOM     15  C   UNL     1       3.017   5.942  20.078  0.00  0.00    +0.000 C 
ENDBRANCH   3   5
BRANCH   1  17
ATOM     16  C   UNL     1       0.641  11.204  21.747  0.00  0.00    +0.000 C 
ATOM     17  C   UNL     1       0.814   9.798  22.302  0.00  0.00    +0.000 C 
ATOM     18  C   UNL     1      -0.251   9.781  23.416  0.00  0.00    +0.000 C 
ATOM     19  C   UNL     1      -1.296  10.779  22.943  0.00  0.00    +0.000 C 
ATOM     20  O   UNL     1      -2.370  10.969  23.486  0.00  0.00    +0.000 OA
ATOM     21  N   UNL     1      -0.770  11.477  21.866  0.00  0.00    +0.000 N 
ATOM     22  C   UNL     1      -1.399  12.648  21.287  0.00  0.00    +0.000 C 
BRANCH  16  25
ATOM     23  C   UNL     1       2.430  13.873  21.084  0.00  0.00    +0.000 C 
ATOM     24  C   UNL     1       1.963  12.777  20.193  0.00  0.00    +0.000 A 
ATOM     25  C   UNL     1       1.237  11.617  20.447  0.00  0.00    +0.000 A 
ATOM     26  C   UNL     1       1.093  11.024  19.170  0.00  0.00    +0.000 A 
ATOM     27  N   UNL     1       1.660  11.741  18.200  0.00  0.00    +0.000 NA
ATOM     28  N   UNL     1       2.146  12.817  18.833  0.00  0.00    +0.000 N 
ATOM     29  C   UNL     1       2.706  13.905  18.064  0.00  0.00    +0.000 C 
ENDBRANCH  16  25
ENDBRANCH   1  17
TORSDOF 3
ENDMDL
MODEL 6
REMARK VINA RESULT:      -8.0      2.753      8.305
REMARK  Name = 
REMARK  6 active torsions:
REMARK  status: ('A' for Active; 'I' for Inactive)
REMARK    1  A    between atoms: C_1  and  C_2
REMARK    2  A    between atoms: C_3  and  C_4
REMARK    3  A    between atoms: C_5  and  C_6
REMARK    4  A    between atoms: N_8  and  C_9
REMARK    5  A    between atoms: N_23  and  C_24
REMARK    6  A    between atoms: N_27  and  C_28
REMARK                            x       y       z     vdW  Elec       q    Type
REMARK                         _______ _______ _______ _____ _____    ______ ____
ROOT
ATOM      1  C   UNL     1       2.234   6.484  18.719  0.00  0.00    +0.000 C 
ATOM      2  O   UNL     1       2.085   6.304  19.921  0.00  0.00    +0.000 OA
ATOM      3  N   UNL     1       2.218   7.744  18.132  0.00  0.00    +0.000 N 
ATOM      4  H   UNL     1       2.297   7.814  17.126  0.00  0.00    +0.000 HD
ENDROOT
BRANCH   3   5
ATOM      5  C   UNL     1       2.032   8.978  18.858  0.00  0.00    +0.000 C 
ATOM      6  C   UNL     1       0.626   9.280  19.334  0.00  0.00    +0.000 C 
ATOM      7  C   UNL     1       0.332   9.938  20.656  0.00  0.00    +0.000 C 
ATOM      8  C   UNL     1      -0.303  11.309  20.396  0.00  0.00    +0.000 C 
ATOM      9  C   UNL     1       0.729  12.180  19.715  0.00  0.00    +0.000 A 
ATOM     10  C   UNL     1       0.913  13.509  20.117  0.00  0.00    +0.000 A 
ATOM     11  C   UNL     1       1.916  14.273  19.534  0.00  0.00    +0.000 A 
ATOM     12  C   UNL     1       2.719  13.715  18.532  0.00  0.00    +0.000 A 
ATOM     13  C   UNL     1       2.518  12.397  18.115  0.00  0.00    +0.000 A 
ATOM     14  C   UNL     1       1.525  11.598  18.695  0.00  0.00    +0.000 A 
ATOM     15  C   UNL     1       1.275  10.153  18.272  0.00  0.00    +0.000 C 
ENDBRANCH   3   5
BRANCH   1  17
ATOM     16  C   UNL     1       3.395   4.274  17.893  0.00  0.00    +0.000 C 
ATOM     17  C   UNL     1       2.340   5.352  17.696  0.00  0.00    +0.000 C 
ATOM     18  C   UNL     1       1.045   4.519  17.755  0.00  0.00    +0.000 C 
ATOM     19  C   UNL     1       1.413   3.324  18.620  0.00  0.00    +0.000 C 
ATOM     20  O   UNL     1       0.625   2.483  19.014  0.00  0.00    +0.000 OA
ATOM     21  N   UNL     1       2.790   3.323  18.792  0.00  0.00    +0.000 N 
ATOM     22  C   UNL     1       3.521   2.222  19.386  0.00  0.00    +0.000 C 
BRANCH  16  25
ATOM     23  C   UNL     1       6.054   3.917  16.004  0.00  0.00    +0.000 C 
ATOM     24  C   UNL     1       5.921   4.409  17.401  0.00  0.00    +0.000 A 
ATOM     25  C   UNL     1       4.810   4.607  18.217  0.00  0.00    +0.000 A 
ATOM     26  C   UNL     1       5.365   5.054  19.439  0.00  0.00    +0.000 A 
ATOM     27  N   UNL     1       6.696   5.122  19.409  0.00  0.00    +0.000 NA
ATOM     28  N   UNL     1       7.015   4.691  18.181  0.00  0.00    +0.000 N 
ATOM     29  C   UNL     1       8.403   4.483  17.836  0.00  0.00    +0.000 C 
ENDBRANCH  16  25
ENDBRANCH   1  17
TORSDOF 3
ENDMDL
MODEL 7
REMARK VINA RESULT:      -7.9      2.805      7.974
REMARK  Name = 
REMARK  6 active torsions:
REMARK  status: ('A' for Active; 'I' for Inactive)
REMARK    1  A    between atoms: C_1  and  C_2
REMARK    2  A    between atoms: C_3  and  C_4
REMARK    3  A    between atoms: C_5  and  C_6
REMARK    4  A    between atoms: N_8  and  C_9
REMARK    5  A    between atoms: N_23  and  C_24
REMARK    6  A    between atoms: N_27  and  C_28
REMARK                            x       y       z     vdW  Elec       q    Type
REMARK                         _______ _______ _______ _____ _____    ______ ____
ROOT
ATOM      1  C   UNL     1       2.139   6.431  19.015  0.00  0.00    +0.000 C 
ATOM      2  O   UNL     1       1.824   6.295  20.191  0.00  0.00    +0.000 OA
ATOM      3  N   UNL     1       2.159   7.663  18.372  0.00  0.00    +0.000 N 
ATOM      4  H   UNL     1       2.381   7.694  17.386  0.00  0.00    +0.000 HD
ENDROOT
BRANCH   3   5
ATOM      5  C   UNL     1       1.823   8.917  19.004  0.00  0.00    +0.000 C 
ATOM      6  C   UNL     1       0.348   9.216  19.174  0.00  0.00    +0.000 C 
ATOM      7  C   UNL     1      -0.213   9.912  20.386  0.00  0.00    +0.000 C 
ATOM      8  C   UNL     1      -0.790  11.266  19.957  0.00  0.00    +0.000 C 
ATOM      9  C   UNL     1       0.354  12.128  19.472  0.00  0.00    +0.000 A 
ATOM     10  C   UNL     1       0.445  13.471  19.859  0.00  0.00    +0.000 A 
ATOM     11  C   UNL     1       1.542  14.229  19.468  0.00  0.00    +0.000 A 
ATOM     12  C   UNL     1       2.535  13.650  18.669  0.00  0.00    +0.000 A 
ATOM     13  C   UNL     1       2.430  12.317  18.264  0.00  0.00    +0.000 A 
ATOM     14  C   UNL     1       1.345  11.524  18.655  0.00  0.00    +0.000 A 
ATOM     15  C   UNL     1       1.195  10.064  18.238  0.00  0.00    +0.000 C 
ENDBRANCH   3   5
BRANCH   1  17
ATOM     16  C   UNL     1       3.725   4.476  18.255  0.00  0.00    +0.000 C 
ATOM     17  C   UNL     1       2.436   5.263  18.074  0.00  0.00    +0.000 C 
ATOM     18  C   UNL     1       1.378   4.167  18.308  0.00  0.00    +0.000 C 
ATOM     19  C   UNL     1       2.075   3.172  19.223  0.00  0.00    +0.000 C 
ATOM     20  O   UNL     1       1.534   2.214  19.747  0.00  0.00    +0.000 OA
ATOM     21  N   UNL     1       3.422   3.500  19.272  0.00  0.00    +0.000 N 
ATOM     22  C   UNL     1       4.429   2.653  19.879  0.00  0.00    +0.000 C 
BRANCH  16  25
ATOM     23  C   UNL     1       5.066   6.826  16.400  0.00  0.00    +0.000 C 
ATOM     24  C   UNL     1       5.595   6.121  17.598  0.00  0.00    +0.000 A 
ATOM     25  C   UNL     1       5.041   5.150  18.427  0.00  0.00    +0.000 A 
ATOM     26  C   UNL     1       6.072   4.873  19.357  0.00  0.00    +0.000 A 
ATOM     27  N   UNL     1       7.175   5.589  19.135  0.00  0.00    +0.000 NA
ATOM     28  N   UNL     1       6.880   6.308  18.043  0.00  0.00    +0.000 N 
ATOM     29  C   UNL     1       7.911   7.100  17.412  0.00  0.00    +0.000 C 
ENDBRANCH  16  25
ENDBRANCH   1  17
TORSDOF 3
ENDMDL
MODEL 8
REMARK VINA RESULT:      -7.9      3.199      8.222
REMARK  Name = 
REMARK  6 active torsions:
REMARK  status: ('A' for Active; 'I' for Inactive)
REMARK    1  A    between atoms: C_1  and  C_2
REMARK    2  A    between atoms: C_3  and  C_4
REMARK    3  A    between atoms: C_5  and  C_6
REMARK    4  A    between atoms: N_8  and  C_9
REMARK    5  A    between atoms: N_23  and  C_24
REMARK    6  A    between atoms: N_27  and  C_28
REMARK                            x       y       z     vdW  Elec       q    Type
REMARK                         _______ _______ _______ _____ _____    ______ ____
ROOT
ATOM      1  C   UNL     1       2.009   5.819  18.826  0.00  0.00    +0.000 C 
ATOM      2  O   UNL     1       2.613   6.475  17.987  0.00  0.00    +0.000 OA
ATOM      3  N   UNL     1       1.525   6.361  20.010  0.00  0.00    +0.000 N 
ATOM      4  H   UNL     1       1.079   5.749  20.680  0.00  0.00    +0.000 HD
ENDROOT
BRANCH   3   5
ATOM      5  C   UNL     1       1.667   7.747  20.389  0.00  0.00    +0.000 C 
ATOM      6  C   UNL     1       0.638   8.295  21.356  0.00  0.00    +0.000 C 
ATOM      7  C   UNL     1       0.978   9.281  22.442  0.00  0.00    +0.000 C 
ATOM      8  C   UNL     1       0.258  10.604  22.152  0.00  0.00    +0.000 C 
ATOM      9  C   UNL     1       0.830  11.175  20.874  0.00  0.00    +0.000 A 
ATOM     10  C   UNL     1       1.146  12.537  20.784  0.00  0.00    +0.000 A 
ATOM     11  C   UNL     1       1.741  13.032  19.630  0.00  0.00    +0.000 A 
ATOM     12  C   UNL     1       1.998  12.170  18.558  0.00  0.00    +0.000 A 
ATOM     13  C   UNL     1       1.660  10.816  18.641  0.00  0.00    +0.000 A 
ATOM     14  C   UNL     1       1.074  10.286  19.796  0.00  0.00    +0.000 A 
ATOM     15  C   UNL     1       0.694   8.814  19.928  0.00  0.00    +0.000 C 
ENDBRANCH   3   5
BRANCH   1  17
ATOM     16  C   UNL     1       3.030   3.396  18.741  0.00  0.00    +0.000 C 
ATOM     17  C   UNL     1       1.809   4.305  18.739  0.00  0.00    +0.000 C 
ATOM     18  C   UNL     1       1.082   3.835  20.014  0.00  0.00    +0.000 C 
ATOM     19  C   UNL     1       2.198   3.303  20.900  0.00  0.00    +0.000 C 
ATOM     20  O   UNL     1       2.056   2.947  22.057  0.00  0.00    +0.000 OA
ATOM     21  N   UNL     1       3.351   3.213  20.135  0.00  0.00    +0.000 N 
ATOM     22  C   UNL     1       4.561   2.554  20.585  0.00  0.00    +0.000 C 
BRANCH  16  25
ATOM     23  C   UNL     1       5.577   5.384  19.309  0.00  0.00    +0.000 C 
ATOM     24  C   UNL     1       5.256   4.539  18.128  0.00  0.00    +0.000 A 
ATOM     25  C   UNL     1       4.208   3.659  17.870  0.00  0.00    +0.000 A 
ATOM     26  C   UNL     1       4.465   3.206  16.554  0.00  0.00    +0.000 A 
ATOM     27  N   UNL     1       5.561   3.751  16.024  0.00  0.00    +0.000 NA
ATOM     28  N   UNL     1       6.002   4.583  16.977  0.00  0.00    +0.000 N 
ATOM     29  C   UNL     1       7.105   5.472  16.692  0.00  0.00    +0.000 C 
ENDBRANCH  16  25
ENDBRANCH   1  17
TORSDOF 3
ENDMDL
MODEL 9
REMARK VINA RESULT:      -7.8      2.480      4.377
REMARK  Name = 
REMARK  6 active torsions:
REMARK  status: ('A' for Active; 'I' for Inactive)
REMARK    1  A    between atoms: C_1  and  C_2
REMARK    2  A    between atoms: C_3  and  C_4
REMARK    3  A    between atoms: C_5  and  C_6
REMARK    4  A    between atoms: N_8  and  C_9
REMARK    5  A    between atoms: N_23  and  C_24
REMARK    6  A    between atoms: N_27  and  C_28
REMARK                            x       y       z     vdW  Elec       q    Type
REMARK                         _______ _______ _______ _____ _____    ______ ____
ROOT
ATOM      1  C   UNL     1       1.098   9.144  19.540  0.00  0.00    +0.000 C 
ATOM      2  O   UNL     1       1.030   8.920  20.742  0.00  0.00    +0.000 OA
ATOM      3  N   UNL     1       1.833   8.358  18.661  0.00  0.00    +0.000 N 
ATOM      4  H   UNL     1       1.885   8.632  17.688  0.00  0.00    +0.000 HD
ENDROOT
BRANCH   3   5
ATOM      5  C   UNL     1       2.592   7.193  19.051  0.00  0.00    +0.000 C 
ATOM      6  C   UNL     1       3.261   6.416  17.936  0.00  0.00    +0.000 C 
ATOM      7  C   UNL     1       4.619   5.781  18.080  0.00  0.00    +0.000 C 
ATOM      8  C   UNL     1       4.465   4.258  17.988  0.00  0.00    +0.000 C 
ATOM      9  C   UNL     1       3.659   3.798  19.182  0.00  0.00    +0.000 A 
ATOM     10  C   UNL     1       4.048   2.663  19.906  0.00  0.00    +0.000 A 
ATOM     11  C   UNL     1       3.341   2.297  21.045  0.00  0.00    +0.000 A 
ATOM     12  C   UNL     1       2.232   3.051  21.445  0.00  0.00    +0.000 A 
ATOM     13  C   UNL     1       1.831   4.168  20.707  0.00  0.00    +0.000 A 
ATOM     14  C   UNL     1       2.532   4.570  19.564  0.00  0.00    +0.000 A 
ATOM     15  C   UNL     1       2.130   5.785  18.733  0.00  0.00    +0.000 C 
ENDBRANCH   3   5
BRANCH   1  17
ATOM     16  C   UNL     1       0.150  11.591  19.717  0.00  0.00    +0.000 C 
ATOM     17  C   UNL     1       0.484  10.373  18.868  0.00  0.00    +0.000 C 
ATOM     18  C   UNL     1       1.519  10.963  17.891  0.00  0.00    +0.000 C 
ATOM     19  C   UNL     1       2.146  12.112  18.665  0.00  0.00    +0.000 C 
ATOM     20  O   UNL     1       3.104  12.763  18.288  0.00  0.00    +0.000 OA
ATOM     21  N   UNL     1       1.384  12.331  19.804  0.00  0.00    +0.000 N 
ATOM     22  C   UNL     1       1.558  13.477  20.675  0.00  0.00    +0.000 C 
BRANCH  16  25
ATOM     23  C   UNL     1      -2.838  12.721  20.464  0.00  0.00    +0.000 C 
ATOM     24  C   UNL     1      -1.842  11.998  21.299  0.00  0.00    +0.000 A 
ATOM     25  C   UNL     1      -0.586  11.474  21.005  0.00  0.00    +0.000 A 
ATOM     26  C   UNL     1      -0.143  10.948  22.243  0.00  0.00    +0.000 A 
ATOM     27  N   UNL     1      -1.025  11.129  23.227  0.00  0.00    +0.000 NA
ATOM     28  N   UNL     1      -2.027  11.800  22.645  0.00  0.00    +0.000 N 
ATOM     29  C   UNL     1      -3.110  12.310  23.456  0.00  0.00    +0.000 C 
ENDBRANCH  16  25
ENDBRANCH   1  17
TORSDOF 3
ENDMDL
