MODEL 1
REMARK VINA RESULT:      -8.9      0.000      0.000
REMARK  Name = 
REMARK  7 active torsions:
REMARK  status: ('A' for Active; 'I' for Inactive)
REMARK    1  A    between atoms: S_2  and  N_4
REMARK    2  A    between atoms: S_2  and  C_19
REMARK    3  A    between atoms: N_4  and  C_5
REMARK    4  A    between atoms: C_9  and  C_10
REMARK    5  A    between atoms: N_14  and  C_15
REMARK    6  A    between atoms: C_22  and  O_23
REMARK    7  A    between atoms: O_23  and  C_24
REMARK                            x       y       z     vdW  Elec       q    Type
REMARK                         _______ _______ _______ _____ _____    ______ ____
ROOT
ATOM      1  N   UNL     1       4.053   2.722  17.803  0.00  0.00    +0.000 N 
ATOM      2  H   UNL     1       4.208   1.791  17.421  0.00  0.00    +0.000 HD
ENDROOT
BRANCH   1   3
ATOM      3  C   UNL     1       5.016   3.727  17.503  0.00  0.00    +0.000 A 
ATOM      4  C   UNL     1       5.646   4.420  18.530  0.00  0.00    +0.000 A 
ATOM      5  C   UNL     1       6.661   5.318  18.220  0.00  0.00    +0.000 A 
ATOM      6  C   UNL     1       7.059   5.491  16.891  0.00  0.00    +0.000 A 
ATOM      7  C   UNL     1       6.457   4.772  15.840  0.00  0.00    +0.000 A 
ATOM      8  C   UNL     1       5.394   3.925  16.169  0.00  0.00    +0.000 A 
BRANCH   7   9
ATOM      9  C   UNL     1       6.993   4.954  14.481  0.00  0.00    +0.000 A 
ATOM     10  N   UNL     1       8.023   5.743  14.203  0.00  0.00    +0.000 NA
ATOM     11  N   UNL     1       8.308   5.593  12.876  0.00  0.00    +0.000 NA
ATOM     12  N   UNL     1       7.474   4.743  12.307  0.00  0.00    +0.000 NA
ATOM     13  N   UNL     1       6.648   4.333  13.289  0.00  0.00    +0.000 N 
BRANCH  13  14
ATOM     14  C   UNL     1       5.611   3.347  13.037  0.00  0.00    +0.000 C 
ATOM     15  C   UNL     1       5.611   2.467  11.799  0.00  0.00    +0.000 C 
ATOM     16  C   UNL     1       4.597   3.550  11.915  0.00  0.00    +0.000 C 
ENDBRANCH  13  14
ENDBRANCH   7   9
ENDBRANCH   1   3
BRANCH   1  18
ATOM     17  O   UNL     1       2.119   3.476  16.371  0.00  0.00    +0.000 OA
ATOM     18  S   UNL     1       2.415   3.161  17.757  0.00  0.00    +0.000 S 
ATOM     19  O   UNL     1       1.641   2.181  18.485  0.00  0.00    +0.000 OA
BRANCH  18  20
ATOM     20  C   UNL     1       2.358   4.696  18.662  0.00  0.00    +0.000 A 
ATOM     21  C   UNL     1       2.501   5.913  17.986  0.00  0.00    +0.000 A 
ATOM     22  C   UNL     1       2.380   7.120  18.687  0.00  0.00    +0.000 A 
ATOM     23  C   UNL     1       2.062   7.116  20.046  0.00  0.00    +0.000 A 
ATOM     24  C   UNL     1       1.951   5.893  20.718  0.00  0.00    +0.000 A 
ATOM     25  C   UNL     1       2.083   4.683  20.031  0.00  0.00    +0.000 A 
BRANCH  23  26
ATOM     26  O   UNL     1       1.888   8.215  20.831  0.00  0.00    +0.000 OA
BRANCH  26  27
ATOM     27  C   UNL     1       0.605   8.821  20.930  0.00  0.00    +0.000 C 
ATOM     28  F   UNL     1      -0.358   8.014  21.423  0.00  0.00    +0.000 F 
ATOM     29  F   UNL     1       0.696   9.897  21.743  0.00  0.00    +0.000 F 
ATOM     30  F   UNL     1       0.226   9.248  19.706  0.00  0.00    +0.000 F 
ENDBRANCH  26  27
ENDBRANCH  23  26
ENDBRANCH  18  20
ENDBRANCH   1  18
TORSDOF 7
ENDMDL
MODEL 2
REMARK VINA RESULT:      -8.4      5.431      8.450
REMARK  Name = 
REMARK  7 active torsions:
REMARK  status: ('A' for Active; 'I' for Inactive)
REMARK    1  A    between atoms: S_2  and  N_4
REMARK    2  A    between atoms: S_2  and  C_19
REMARK    3  A    between atoms: N_4  and  C_5
REMARK    4  A    between atoms: C_9  and  C_10
REMARK    5  A    between atoms: N_14  and  C_15
REMARK    6  A    between atoms: C_22  and  O_23
REMARK    7  A    between atoms: O_23  and  C_24
REMARK                            x       y       z     vdW  Elec       q    Type
REMARK                         _______ _______ _______ _____ _____    ______ ____
ROOT
ATOM      1  N   UNL     1       2.442   6.320  20.908  0.00  0.00    +0.000 N 
ATOM      2  H   UNL     1       3.371   6.340  21.326  0.00  0.00    +0.000 HD
ENDROOT
BRANCH   1   3
ATOM      3  C   UNL     1       2.084   7.393  20.044  0.00  0.00    +0.000 A 
ATOM      4  C   UNL     1       2.487   7.385  18.714  0.00  0.00    +0.000 A 
ATOM      5  C   UNL     1       2.036   8.386  17.861  0.00  0.00    +0.000 A 
ATOM      6  C   UNL     1       1.161   9.367  18.336  0.00  0.00    +0.000 A 
ATOM      7  C   UNL     1       0.712   9.372  19.672  0.00  0.00    +0.000 A 
ATOM      8  C   UNL     1       1.233   8.395  20.527  0.00  0.00    +0.000 A 
BRANCH   7   9
ATOM      9  C   UNL     1      -0.272  10.392  20.067  0.00  0.00    +0.000 A 
ATOM     10  N   UNL     1      -0.272  10.984  21.255  0.00  0.00    +0.000 NA
ATOM     11  N   UNL     1      -1.250  11.936  21.239  0.00  0.00    +0.000 NA
ATOM     12  N   UNL     1      -1.879  11.949  20.078  0.00  0.00    +0.000 NA
ATOM     13  N   UNL     1      -1.284  10.996  19.334  0.00  0.00    +0.000 N 
BRANCH  13  14
ATOM     14  C   UNL     1      -1.692  10.751  17.962  0.00  0.00    +0.000 C 
ATOM     15  C   UNL     1      -3.033  11.211  17.419  0.00  0.00    +0.000 C 
ATOM     16  C   UNL     1      -2.805   9.757  17.644  0.00  0.00    +0.000 C 
ENDBRANCH  13  14
ENDBRANCH   7   9
ENDBRANCH   1   3
BRANCH   1  18
ATOM     17  O   UNL     1       2.324   3.888  21.564  0.00  0.00    +0.000 OA
ATOM     18  S   UNL     1       1.990   4.752  20.446  0.00  0.00    +0.000 S 
ATOM     19  O   UNL     1       0.652   4.787  19.899  0.00  0.00    +0.000 OA
BRANCH  18  20
ATOM     20  C   UNL     1       3.119   4.352  19.125  0.00  0.00    +0.000 A 
ATOM     21  C   UNL     1       2.628   3.898  17.896  0.00  0.00    +0.000 A 
ATOM     22  C   UNL     1       3.511   3.658  16.836  0.00  0.00    +0.000 A 
ATOM     23  C   UNL     1       4.873   3.923  16.981  0.00  0.00    +0.000 A 
ATOM     24  C   UNL     1       5.358   4.348  18.224  0.00  0.00    +0.000 A 
ATOM     25  C   UNL     1       4.487   4.579  19.293  0.00  0.00    +0.000 A 
BRANCH  23  26
ATOM     26  O   UNL     1       5.827   3.761  16.023  0.00  0.00    +0.000 OA
BRANCH  26  27
ATOM     27  C   UNL     1       5.879   4.650  14.915  0.00  0.00    +0.000 C 
ATOM     28  F   UNL     1       5.376   5.879  15.159  0.00  0.00    +0.000 F 
ATOM     29  F   UNL     1       7.169   4.801  14.540  0.00  0.00    +0.000 F 
ATOM     30  F   UNL     1       5.202   4.104  13.882  0.00  0.00    +0.000 F 
ENDBRANCH  26  27
ENDBRANCH  23  26
ENDBRANCH  18  20
ENDBRANCH   1  18
TORSDOF 7
ENDMDL
MODEL 3
REMARK VINA RESULT:      -8.2      5.937      8.848
REMARK  Name = 
REMARK  7 active torsions:
REMARK  status: ('A' for Active; 'I' for Inactive)
REMARK    1  A    between atoms: S_2  and  N_4
REMARK    2  A    between atoms: S_2  and  C_19
REMARK    3  A    between atoms: N_4  and  C_5
REMARK    4  A    between atoms: C_9  and  C_10
REMARK    5  A    between atoms: N_14  and  C_15
REMARK    6  A    between atoms: C_22  and  O_23
REMARK    7  A    between atoms: O_23  and  C_24
REMARK                            x       y       z     vdW  Elec       q    Type
REMARK                         _______ _______ _______ _____ _____    ______ ____
ROOT
ATOM      1  N   UNL     1       3.158   7.254  18.094  0.00  0.00    +0.000 N 
ATOM      2  H   UNL     1       3.174   7.474  17.100  0.00  0.00    +0.000 HD
ENDROOT
BRANCH   1   3
ATOM      3  C   UNL     1       2.229   7.959  18.910  0.00  0.00    +0.000 A 
ATOM      4  C   UNL     1       1.938   7.503  20.191  0.00  0.00    +0.000 A 
ATOM      5  C   UNL     1       1.113   8.265  21.012  0.00  0.00    +0.000 A 
ATOM      6  C   UNL     1       0.615   9.490  20.558  0.00  0.00    +0.000 A 
ATOM      7  C   UNL     1       0.928   9.986  19.278  0.00  0.00    +0.000 A 
ATOM      8  C   UNL     1       1.703   9.171  18.446  0.00  0.00    +0.000 A 
BRANCH   7   9
ATOM      9  C   UNL     1       0.429  11.321  18.911  0.00  0.00    +0.000 A 
ATOM     10  N   UNL     1       1.185  12.412  18.929  0.00  0.00    +0.000 NA
ATOM     11  N   UNL     1       0.431  13.441  18.439  0.00  0.00    +0.000 NA
ATOM     12  N   UNL     1      -0.784  13.030  18.129  0.00  0.00    +0.000 NA
ATOM     13  N   UNL     1      -0.806  11.713  18.414  0.00  0.00    +0.000 N 
BRANCH  13  14
ATOM     14  C   UNL     1      -1.987  10.908  18.158  0.00  0.00    +0.000 C 
ATOM     15  C   UNL     1      -2.043   9.880  17.041  0.00  0.00    +0.000 C 
ATOM     16  C   UNL     1      -2.831  11.135  16.907  0.00  0.00    +0.000 C 
ENDBRANCH  13  14
ENDBRANCH   7   9
ENDBRANCH   1   3
BRANCH   1  18
ATOM     17  O   UNL     1       4.104   5.479  19.615  0.00  0.00    +0.000 OA
ATOM     18  S   UNL     1       3.354   5.593  18.377  0.00  0.00    +0.000 S 
ATOM     19  O   UNL     1       2.081   4.930  18.209  0.00  0.00    +0.000 OA
BRANCH  18  20
ATOM     20  C   UNL     1       4.435   5.060  17.064  0.00  0.00    +0.000 A 
ATOM     21  C   UNL     1       4.654   3.695  16.846  0.00  0.00    +0.000 A 
ATOM     22  C   UNL     1       5.442   3.277  15.766  0.00  0.00    +0.000 A 
ATOM     23  C   UNL     1       5.966   4.212  14.873  0.00  0.00    +0.000 A 
ATOM     24  C   UNL     1       5.768   5.577  15.118  0.00  0.00    +0.000 A 
ATOM     25  C   UNL     1       4.993   6.006  16.200  0.00  0.00    +0.000 A 
BRANCH  23  26
ATOM     26  O   UNL     1       6.720   3.936  13.774  0.00  0.00    +0.000 OA
BRANCH  26  27
ATOM     27  C   UNL     1       6.088   3.588  12.549  0.00  0.00    +0.000 C 
ATOM     28  F   UNL     1       6.577   4.226  11.465  0.00  0.00    +0.000 F 
ATOM     29  F   UNL     1       6.237   2.260  12.346  0.00  0.00    +0.000 F 
ATOM     30  F   UNL     1       4.767   3.854  12.646  0.00  0.00    +0.000 F 
ENDBRANCH  26  27
ENDBRANCH  23  26
ENDBRANCH  18  20
ENDBRANCH   1  18
TORSDOF 7
ENDMDL
MODEL 4
REMARK VINA RESULT:      -8.2      5.947      9.009
REMARK  Name = 
REMARK  7 active torsions:
REMARK  status: ('A' for Active; 'I' for Inactive)
REMARK    1  A    between atoms: S_2  and  N_4
REMARK    2  A    between atoms: S_2  and  C_19
REMARK    3  A    between atoms: N_4  and  C_5
REMARK    4  A    between atoms: C_9  and  C_10
REMARK    5  A    between atoms: N_14  and  C_15
REMARK    6  A    between atoms: C_22  and  O_23
REMARK    7  A    between atoms: O_23  and  C_24
REMARK                            x       y       z     vdW  Elec       q    Type
REMARK                         _______ _______ _______ _____ _____    ______ ____
ROOT
ATOM      1  N   UNL     1       3.222   7.254  18.341  0.00  0.00    +0.000 N 
ATOM      2  H   UNL     1       3.443   7.609  17.412  0.00  0.00    +0.000 HD
ENDROOT
BRANCH   1   3
ATOM      3  C   UNL     1       2.193   7.913  19.071  0.00  0.00    +0.000 A 
ATOM      4  C   UNL     1       1.948   7.573  20.396  0.00  0.00    +0.000 A 
ATOM      5  C   UNL     1       1.014   8.303  21.124  0.00  0.00    +0.000 A 
ATOM      6  C   UNL     1       0.359   9.386  20.531  0.00  0.00    +0.000 A 
ATOM      7  C   UNL     1       0.619   9.769  19.201  0.00  0.00    +0.000 A 
ATOM      8  C   UNL     1       1.512   8.978  18.469  0.00  0.00    +0.000 A 
BRANCH   7   9
ATOM      9  C   UNL     1      -0.054  10.971  18.683  0.00  0.00    +0.000 A 
ATOM     10  N   UNL     1      -1.276  10.956  18.166  0.00  0.00    +0.000 NA
ATOM     11  N   UNL     1      -1.618  12.248  17.883  0.00  0.00    +0.000 NA
ATOM     12  N   UNL     1      -0.636  13.074  18.193  0.00  0.00    +0.000 NA
ATOM     13  N   UNL     1       0.346  12.300  18.694  0.00  0.00    +0.000 N 
BRANCH  13  14
ATOM     14  C   UNL     1       1.584  12.879  19.185  0.00  0.00    +0.000 C 
ATOM     15  C   UNL     1       1.985  14.312  18.884  0.00  0.00    +0.000 C 
ATOM     16  C   UNL     1       2.729  13.201  18.230  0.00  0.00    +0.000 C 
ENDBRANCH  13  14
ENDBRANCH   7   9
ENDBRANCH   1   3
BRANCH   1  18
ATOM     17  O   UNL     1       3.912   5.214  19.652  0.00  0.00    +0.000 OA
ATOM     18  S   UNL     1       3.267   5.559  18.398  0.00  0.00    +0.000 S 
ATOM     19  O   UNL     1       1.962   5.039  18.058  0.00  0.00    +0.000 OA
BRANCH  18  20
ATOM     20  C   UNL     1       4.399   5.118  17.093  0.00  0.00    +0.000 A 
ATOM     21  C   UNL     1       4.690   3.772  16.844  0.00  0.00    +0.000 A 
ATOM     22  C   UNL     1       5.519   3.424  15.770  0.00  0.00    +0.000 A 
ATOM     23  C   UNL     1       6.012   4.409  14.913  0.00  0.00    +0.000 A 
ATOM     24  C   UNL     1       5.739   5.754  15.189  0.00  0.00    +0.000 A 
ATOM     25  C   UNL     1       4.923   6.114  16.266  0.00  0.00    +0.000 A 
BRANCH  23  26
ATOM     26  O   UNL     1       6.800   4.200  13.822  0.00  0.00    +0.000 OA
BRANCH  26  27
ATOM     27  C   UNL     1       6.228   3.703  12.618  0.00  0.00    +0.000 C 
ATOM     28  F   UNL     1       4.893   3.873  12.520  0.00  0.00    +0.000 F 
ATOM     29  F   UNL     1       6.802   4.338  11.572  0.00  0.00    +0.000 F 
ATOM     30  F   UNL     1       6.504   2.385  12.513  0.00  0.00    +0.000 F 
ENDBRANCH  26  27
ENDBRANCH  23  26
ENDBRANCH  18  20
ENDBRANCH   1  18
TORSDOF 7
ENDMDL
MODEL 5
REMARK VINA RESULT:      -8.2      5.498      8.462
REMARK  Name = 
REMARK  7 active torsions:
REMARK  status: ('A' for Active; 'I' for Inactive)
REMARK    1  A    between atoms: S_2  and  N_4
REMARK    2  A    between atoms: S_2  and  C_19
REMARK    3  A    between atoms: N_4  and  C_5
REMARK    4  A    between atoms: C_9  and  C_10
REMARK    5  A    between atoms: N_14  and  C_15
REMARK    6  A    between atoms: C_22  and  O_23
REMARK    7  A    between atoms: O_23  and  C_24
REMARK                            x       y       z     vdW  Elec       q    Type
REMARK                         _______ _______ _______ _____ _____    ______ ____
ROOT
ATOM      1  N   UNL     1       2.316   6.432  20.971  0.00  0.00    +0.000 N 
ATOM      2  H   UNL     1       3.211   6.477  21.456  0.00  0.00    +0.000 HD
ENDROOT
BRANCH   1   3
ATOM      3  C   UNL     1       2.009   7.477  20.055  0.00  0.00    +0.000 A 
ATOM      4  C   UNL     1       2.508   7.439  18.759  0.00  0.00    +0.000 A 
ATOM      5  C   UNL     1       2.109   8.411  17.847  0.00  0.00    +0.000 A 
ATOM      6  C   UNL     1       1.190   9.392  18.231  0.00  0.00    +0.000 A 
ATOM      7  C   UNL     1       0.646   9.427  19.530  0.00  0.00    +0.000 A 
ATOM      8  C   UNL     1       1.114   8.480  20.447  0.00  0.00    +0.000 A 
BRANCH   7   9
ATOM      9  C   UNL     1      -0.376  10.444  19.825  0.00  0.00    +0.000 A 
ATOM     10  N   UNL     1      -0.369  11.188  20.924  0.00  0.00    +0.000 NA
ATOM     11  N   UNL     1      -1.395  12.084  20.820  0.00  0.00    +0.000 NA
ATOM     12  N   UNL     1      -2.059  11.912  19.692  0.00  0.00    +0.000 NA
ATOM     13  N   UNL     1      -1.440  10.897  19.057  0.00  0.00    +0.000 N 
BRANCH  13  14
ATOM     14  C   UNL     1      -1.878  10.453  17.746  0.00  0.00    +0.000 C 
ATOM     15  C   UNL     1      -3.053  11.088  17.023  0.00  0.00    +0.000 C 
ATOM     16  C   UNL     1      -3.200   9.713  17.573  0.00  0.00    +0.000 C 
ENDBRANCH  13  14
ENDBRANCH   7   9
ENDBRANCH   1   3
BRANCH   1  18
ATOM     17  O   UNL     1       2.319   3.997  21.628  0.00  0.00    +0.000 OA
ATOM     18  S   UNL     1       1.919   4.846  20.520  0.00  0.00    +0.000 S 
ATOM     19  O   UNL     1       0.567   4.824  20.008  0.00  0.00    +0.000 OA
BRANCH  18  20
ATOM     20  C   UNL     1       3.029   4.495  19.169  0.00  0.00    +0.000 A 
ATOM     21  C   UNL     1       4.410   4.631  19.344  0.00  0.00    +0.000 A 
ATOM     22  C   UNL     1       5.284   4.282  18.307  0.00  0.00    +0.000 A 
ATOM     23  C   UNL     1       4.787   3.746  17.118  0.00  0.00    +0.000 A 
ATOM     24  C   UNL     1       3.402   3.643  16.942  0.00  0.00    +0.000 A 
ATOM     25  C   UNL     1       2.520   4.001  17.966  0.00  0.00    +0.000 A 
BRANCH  23  26
ATOM     26  O   UNL     1       5.528   3.342  16.050  0.00  0.00    +0.000 OA
BRANCH  26  27
ATOM     27  C   UNL     1       6.089   4.307  15.169  0.00  0.00    +0.000 C 
ATOM     28  F   UNL     1       6.254   3.878  13.900  0.00  0.00    +0.000 F 
ATOM     29  F   UNL     1       5.277   5.387  15.135  0.00  0.00    +0.000 F 
ATOM     30  F   UNL     1       7.289   4.697  15.652  0.00  0.00    +0.000 F 
ENDBRANCH  26  27
ENDBRANCH  23  26
ENDBRANCH  18  20
ENDBRANCH   1  18
TORSDOF 7
ENDMDL
MODEL 6
REMARK VINA RESULT:      -8.1      5.224      8.659
REMARK  Name = 
REMARK  7 active torsions:
REMARK  status: ('A' for Active; 'I' for Inactive)
REMARK    1  A    between atoms: S_2  and  N_4
REMARK    2  A    between atoms: S_2  and  C_19
REMARK    3  A    between atoms: N_4  and  C_5
REMARK    4  A    between atoms: C_9  and  C_10
REMARK    5  A    between atoms: N_14  and  C_15
REMARK    6  A    between atoms: C_22  and  O_23
REMARK    7  A    between atoms: O_23  and  C_24
REMARK                            x       y       z     vdW  Elec       q    Type
REMARK                         _______ _______ _______ _____ _____    ______ ____
ROOT
ATOM      1  N   UNL     1       2.432   6.488  20.877  0.00  0.00    +0.000 N 
ATOM      2  H   UNL     1       3.342   6.525  21.334  0.00  0.00    +0.000 HD
ENDROOT
BRANCH   1   3
ATOM      3  C   UNL     1       2.143   7.484  19.902  0.00  0.00    +0.000 A 
ATOM      4  C   UNL     1       2.698   7.397  18.630  0.00  0.00    +0.000 A 
ATOM      5  C   UNL     1       2.317   8.318  17.659  0.00  0.00    +0.000 A 
ATOM      6  C   UNL     1       1.363   9.295  17.959  0.00  0.00    +0.000 A 
ATOM      7  C   UNL     1       0.764   9.377  19.231  0.00  0.00    +0.000 A 
ATOM      8  C   UNL     1       1.212   8.483  20.210  0.00  0.00    +0.000 A 
BRANCH   7   9
ATOM      9  C   UNL     1      -0.290  10.383  19.436  0.00  0.00    +0.000 A 
ATOM     10  N   UNL     1      -1.093  10.806  18.467  0.00  0.00    +0.000 NA
ATOM     11  N   UNL     1      -2.005  11.653  19.030  0.00  0.00    +0.000 NA
ATOM     12  N   UNL     1      -1.787  11.789  20.325  0.00  0.00    +0.000 NA
ATOM     13  N   UNL     1      -0.725  11.005  20.599  0.00  0.00    +0.000 N 
BRANCH  13  14
ATOM     14  C   UNL     1      -0.219  10.870  21.953  0.00  0.00    +0.000 C 
ATOM     15  C   UNL     1      -0.552   9.674  22.829  0.00  0.00    +0.000 C 
ATOM     16  C   UNL     1      -1.154  10.997  23.152  0.00  0.00    +0.000 C 
ENDBRANCH  13  14
ENDBRANCH   7   9
ENDBRANCH   1   3
BRANCH   1  18
ATOM     17  O   UNL     1       2.347   4.105  21.697  0.00  0.00    +0.000 OA
ATOM     18  S   UNL     1       1.954   4.895  20.544  0.00  0.00    +0.000 S 
ATOM     19  O   UNL     1       0.589   4.900  20.068  0.00  0.00    +0.000 OA
BRANCH  18  20
ATOM     20  C   UNL     1       3.011   4.406  19.194  0.00  0.00    +0.000 A 
ATOM     21  C   UNL     1       2.452   3.952  17.995  0.00  0.00    +0.000 A 
ATOM     22  C   UNL     1       3.281   3.641  16.910  0.00  0.00    +0.000 A 
ATOM     23  C   UNL     1       4.660   3.834  17.000  0.00  0.00    +0.000 A 
ATOM     24  C   UNL     1       5.213   4.259  18.214  0.00  0.00    +0.000 A 
ATOM     25  C   UNL     1       4.395   4.560  19.308  0.00  0.00    +0.000 A 
BRANCH  23  26
ATOM     26  O   UNL     1       5.568   3.599  16.013  0.00  0.00    +0.000 OA
BRANCH  26  27
ATOM     27  C   UNL     1       5.830   4.598  15.036  0.00  0.00    +0.000 C 
ATOM     28  F   UNL     1       7.136   4.900  14.879  0.00  0.00    +0.000 F 
ATOM     29  F   UNL     1       5.360   4.171  13.843  0.00  0.00    +0.000 F 
ATOM     30  F   UNL     1       5.164   5.725  15.372  0.00  0.00    +0.000 F 
ENDBRANCH  26  27
ENDBRANCH  23  26
ENDBRANCH  18  20
ENDBRANCH   1  18
TORSDOF 7
ENDMDL
MODEL 7
REMARK VINA RESULT:      -8.0      5.986      8.848
REMARK  Name = 
REMARK  7 active torsions:
REMARK  status: ('A' for Active; 'I' for Inactive)
REMARK    1  A    between atoms: S_2  and  N_4
REMARK    2  A    between atoms: S_2  and  C_19
REMARK    3  A    between atoms: N_4  and  C_5
REMARK    4  A    between atoms: C_9  and  C_10
REMARK    5  A    between atoms: N_14  and  C_15
REMARK    6  A    between atoms: C_22  and  O_23
REMARK    7  A    between atoms: O_23  and  C_24
REMARK                            x       y       z     vdW  Elec       q    Type
REMARK                         _______ _______ _______ _____ _____    ______ ____
ROOT
ATOM      1  N   UNL     1       2.875   7.314  17.942  0.00  0.00    +0.000 N 
ATOM      2  H   UNL     1       2.610   7.347  16.959  0.00  0.00    +0.000 HD
ENDROOT
BRANCH   1   3
ATOM      3  C   UNL     1       2.078   8.049  18.864  0.00  0.00    +0.000 A 
ATOM      4  C   UNL     1       1.932   7.603  20.172  0.00  0.00    +0.000 A 
ATOM      5  C   UNL     1       1.241   8.392  21.086  0.00  0.00    +0.000 A 
ATOM      6  C   UNL     1       0.732   9.633  20.693  0.00  0.00    +0.000 A 
ATOM      7  C   UNL     1       0.900  10.119  19.381  0.00  0.00    +0.000 A 
ATOM      8  C   UNL     1       1.540   9.278  18.464  0.00  0.00    +0.000 A 
BRANCH   7   9
ATOM      9  C   UNL     1       0.405  11.470  19.074  0.00  0.00    +0.000 A 
ATOM     10  N   UNL     1       1.140  12.566  19.217  0.00  0.00    +0.000 NA
ATOM     11  N   UNL     1       0.404  13.617  18.749  0.00  0.00    +0.000 NA
ATOM     12  N   UNL     1      -0.782  13.215  18.331  0.00  0.00    +0.000 NA
ATOM     13  N   UNL     1      -0.801  11.881  18.523  0.00  0.00    +0.000 N 
BRANCH  13  14
ATOM     14  C   UNL     1      -1.949  11.081  18.133  0.00  0.00    +0.000 C 
ATOM     15  C   UNL     1      -1.829   9.887  17.203  0.00  0.00    +0.000 C 
ATOM     16  C   UNL     1      -2.484  11.128  16.706  0.00  0.00    +0.000 C 
ENDBRANCH  13  14
ENDBRANCH   7   9
ENDBRANCH   1   3
BRANCH   1  18
ATOM     17  O   UNL     1       4.365   5.967  19.466  0.00  0.00    +0.000 OA
ATOM     18  S   UNL     1       3.393   5.767  18.406  0.00  0.00    +0.000 S 
ATOM     19  O   UNL     1       2.239   4.918  18.598  0.00  0.00    +0.000 OA
BRANCH  18  20
ATOM     20  C   UNL     1       4.290   5.171  16.985  0.00  0.00    +0.000 A 
ATOM     21  C   UNL     1       4.952   6.074  16.145  0.00  0.00    +0.000 A 
ATOM     22  C   UNL     1       5.718   5.598  15.074  0.00  0.00    +0.000 A 
ATOM     23  C   UNL     1       5.871   4.226  14.872  0.00  0.00    +0.000 A 
ATOM     24  C   UNL     1       5.180   3.333  15.698  0.00  0.00    +0.000 A 
ATOM     25  C   UNL     1       4.401   3.797  16.763  0.00  0.00    +0.000 A 
BRANCH  23  26
ATOM     26  O   UNL     1       6.609   3.639  13.890  0.00  0.00    +0.000 OA
BRANCH  26  27
ATOM     27  C   UNL     1       6.067   3.498  12.582  0.00  0.00    +0.000 C 
ATOM     28  F   UNL     1       6.021   2.228  12.128  0.00  0.00    +0.000 F 
ATOM     29  F   UNL     1       4.805   3.981  12.582  0.00  0.00    +0.000 F 
ATOM     30  F   UNL     1       6.801   4.238  11.722  0.00  0.00    +0.000 F 
ENDBRANCH  26  27
ENDBRANCH  23  26
ENDBRANCH  18  20
ENDBRANCH   1  18
TORSDOF 7
ENDMDL
MODEL 8
REMARK VINA RESULT:      -8.0      0.855      1.308
REMARK  Name = 
REMARK  7 active torsions:
REMARK  status: ('A' for Active; 'I' for Inactive)
REMARK    1  A    between atoms: S_2  and  N_4
REMARK    2  A    between atoms: S_2  and  C_19
REMARK    3  A    between atoms: N_4  and  C_5
REMARK    4  A    between atoms: C_9  and  C_10
REMARK    5  A    between atoms: N_14  and  C_15
REMARK    6  A    between atoms: C_22  and  O_23
REMARK    7  A    between atoms: O_23  and  C_24
REMARK                            x       y       z     vdW  Elec       q    Type
REMARK                         _______ _______ _______ _____ _____    ______ ____
ROOT
ATOM      1  N   UNL     1       3.153   3.273  17.372  0.00  0.00    +0.000 N 
ATOM      2  H   UNL     1       2.502   3.400  16.600  0.00  0.00    +0.000 HD
ENDROOT
BRANCH   1   3
ATOM      3  C   UNL     1       4.428   3.899  17.271  0.00  0.00    +0.000 A 
ATOM      4  C   UNL     1       5.198   4.105  18.409  0.00  0.00    +0.000 A 
ATOM      5  C   UNL     1       6.484   4.617  18.276  0.00  0.00    +0.000 A 
ATOM      6  C   UNL     1       7.000   4.887  17.005  0.00  0.00    +0.000 A 
ATOM      7  C   UNL     1       6.248   4.652  15.837  0.00  0.00    +0.000 A 
ATOM      8  C   UNL     1       4.934   4.200  16.000  0.00  0.00    +0.000 A 
BRANCH   7   9
ATOM      9  C   UNL     1       6.897   4.886  14.537  0.00  0.00    +0.000 A 
ATOM     10  N   UNL     1       7.926   5.708  14.373  0.00  0.00    +0.000 NA
ATOM     11  N   UNL     1       8.332   5.604  13.073  0.00  0.00    +0.000 NA
ATOM     12  N   UNL     1       7.575   4.750  12.409  0.00  0.00    +0.000 NA
ATOM     13  N   UNL     1       6.677   4.290  13.303  0.00  0.00    +0.000 N 
BRANCH  13  14
ATOM     14  C   UNL     1       5.695   3.287  12.933  0.00  0.00    +0.000 C 
ATOM     15  C   UNL     1       5.732   2.568  11.595  0.00  0.00    +0.000 C 
ATOM     16  C   UNL     1       4.660   3.570  11.848  0.00  0.00    +0.000 C 
ENDBRANCH  13  14
ENDBRANCH   7   9
ENDBRANCH   1   3
BRANCH   1  18
ATOM     17  O   UNL     1       1.060   2.727  18.669  0.00  0.00    +0.000 OA
ATOM     18  S   UNL     1       2.370   3.320  18.876  0.00  0.00    +0.000 S 
ATOM     19  O   UNL     1       3.267   2.820  19.893  0.00  0.00    +0.000 OA
BRANCH  18  20
ATOM     20  C   UNL     1       2.111   5.060  19.169  0.00  0.00    +0.000 A 
ATOM     21  C   UNL     1       1.877   5.524  20.468  0.00  0.00    +0.000 A 
ATOM     22  C   UNL     1       1.751   6.899  20.706  0.00  0.00    +0.000 A 
ATOM     23  C   UNL     1       1.912   7.812  19.664  0.00  0.00    +0.000 A 
ATOM     24  C   UNL     1       2.115   7.335  18.363  0.00  0.00    +0.000 A 
ATOM     25  C   UNL     1       2.231   5.965  18.112  0.00  0.00    +0.000 A 
BRANCH  23  26
ATOM     26  O   UNL     1       1.843   9.168  19.768  0.00  0.00    +0.000 OA
BRANCH  26  27
ATOM     27  C   UNL     1       0.725   9.774  20.404  0.00  0.00    +0.000 C 
ATOM     28  F   UNL     1      -0.314   8.942  20.625  0.00  0.00    +0.000 F 
ATOM     29  F   UNL     1       1.120  10.266  21.599  0.00  0.00    +0.000 F 
ATOM     30  F   UNL     1       0.296  10.807  19.645  0.00  0.00    +0.000 F 
ENDBRANCH  26  27
ENDBRANCH  23  26
ENDBRANCH  18  20
ENDBRANCH   1  18
TORSDOF 7
ENDMDL
MODEL 9
REMARK VINA RESULT:      -8.0      5.388      8.320
REMARK  Name = 
REMARK  7 active torsions:
REMARK  status: ('A' for Active; 'I' for Inactive)
REMARK    1  A    between atoms: S_2  and  N_4
REMARK    2  A    between atoms: S_2  and  C_19
REMARK    3  A    between atoms: N_4  and  C_5
REMARK    4  A    between atoms: C_9  and  C_10
REMARK    5  A    between atoms: N_14  and  C_15
REMARK    6  A    between atoms: C_22  and  O_23
REMARK    7  A    between atoms: O_23  and  C_24
REMARK                            x       y       z     vdW  Elec       q    Type
REMARK                         _______ _______ _______ _____ _____    ______ ____
ROOT
ATOM      1  N   UNL     1       2.412   6.372  20.887  0.00  0.00    +0.000 N 
ATOM      2  H   UNL     1       3.285   6.397  21.411  0.00  0.00    +0.000 HD
ENDROOT
BRANCH   1   3
ATOM      3  C   UNL     1       2.217   7.362  19.883  0.00  0.00    +0.000 A 
ATOM      4  C   UNL     1       2.713   7.163  18.600  0.00  0.00    +0.000 A 
ATOM      5  C   UNL     1       2.419   8.091  17.606  0.00  0.00    +0.000 A 
ATOM      6  C   UNL     1       1.604   9.189  17.895  0.00  0.00    +0.000 A 
ATOM      7  C   UNL     1       1.062   9.389  19.180  0.00  0.00    +0.000 A 
ATOM      8  C   UNL     1       1.428   8.480  20.178  0.00  0.00    +0.000 A 
BRANCH   7   9
ATOM      9  C   UNL     1       0.148  10.526  19.376  0.00  0.00    +0.000 A 
ATOM     10  N   UNL     1      -1.165  10.391  19.515  0.00  0.00    +0.000 NA
ATOM     11  N   UNL     1      -1.679  11.628  19.777  0.00  0.00    +0.000 NA
ATOM     12  N   UNL     1      -0.727  12.543  19.791  0.00  0.00    +0.000 NA
ATOM     13  N   UNL     1       0.419  11.877  19.546  0.00  0.00    +0.000 N 
BRANCH  13  14
ATOM     14  C   UNL     1       1.698  12.564  19.527  0.00  0.00    +0.000 C 
ATOM     15  C   UNL     1       1.830  14.024  19.131  0.00  0.00    +0.000 C 
ATOM     16  C   UNL     1       2.344  12.976  18.208  0.00  0.00    +0.000 C 
ENDBRANCH  13  14
ENDBRANCH   7   9
ENDBRANCH   1   3
BRANCH   1  18
ATOM     17  O   UNL     1       2.302   3.982  21.685  0.00  0.00    +0.000 OA
ATOM     18  S   UNL     1       1.930   4.785  20.533  0.00  0.00    +0.000 S 
ATOM     19  O   UNL     1       0.572   4.801  20.038  0.00  0.00    +0.000 OA
BRANCH  18  20
ATOM     20  C   UNL     1       3.003   4.301  19.194  0.00  0.00    +0.000 A 
ATOM     21  C   UNL     1       2.458   3.857  17.985  0.00  0.00    +0.000 A 
ATOM     22  C   UNL     1       3.300   3.550  16.909  0.00  0.00    +0.000 A 
ATOM     23  C   UNL     1       4.679   3.737  17.018  0.00  0.00    +0.000 A 
ATOM     24  C   UNL     1       5.217   4.153  18.242  0.00  0.00    +0.000 A 
ATOM     25  C   UNL     1       4.385   4.450  19.327  0.00  0.00    +0.000 A 
BRANCH  23  26
ATOM     26  O   UNL     1       5.599   3.505  16.042  0.00  0.00    +0.000 OA
BRANCH  26  27
ATOM     27  C   UNL     1       6.059   4.579  15.231  0.00  0.00    +0.000 C 
ATOM     28  F   UNL     1       5.232   5.645  15.190  0.00  0.00    +0.000 F 
ATOM     29  F   UNL     1       7.251   5.002  15.707  0.00  0.00    +0.000 F 
ATOM     30  F   UNL     1       6.245   4.128  13.971  0.00  0.00    +0.000 F 
ENDBRANCH  26  27
ENDBRANCH  23  26
ENDBRANCH  18  20
ENDBRANCH   1  18
TORSDOF 7
ENDMDL
