MODEL 1
REMARK VINA RESULT:      -7.3      0.000      0.000
REMARK  Name = 
REMARK  8 active torsions:
REMARK  status: ('A' for Active; 'I' for Inactive)
REMARK    1  A    between atoms: C_1  and  C_2
REMARK    2  A    between atoms: C_5  and  S_6
REMARK    3  A    between atoms: S_6  and  N_9
REMARK    4  A    between atoms: N_9  and  C_10
REMARK    5  A    between atoms: C_12  and  S_13
REMARK    6  A    between atoms: S_13  and  N_16
REMARK    7  A    between atoms: N_16  and  C_17
REMARK    8  A    between atoms: C_26  and  O_27
REMARK                            x       y       z     vdW  Elec       q    Type
REMARK                         _______ _______ _______ _____ _____    ______ ____
ROOT
ATOM      1  C   UNL     1       2.837   4.341  17.888  0.00  0.00    +0.000 A 
ATOM      2  C   UNL     1       3.696   4.917  16.946  0.00  0.00    +0.000 A 
ATOM      3  C   UNL     1       4.656   4.117  16.308  0.00  0.00    +0.000 A 
ATOM      4  C   UNL     1       4.754   2.751  16.598  0.00  0.00    +0.000 A 
ATOM      5  C   UNL     1       3.919   2.189  17.568  0.00  0.00    +0.000 A 
ATOM      6  C   UNL     1       2.976   2.987  18.218  0.00  0.00    +0.000 A 
ENDROOT
BRANCH   3   7
ATOM      7  S   UNL     1       5.649   4.803  14.993  0.00  0.00    +0.000 S 
ATOM      8  O   UNL     1       5.590   3.882  13.878  0.00  0.00    +0.000 OA
ATOM      9  O   UNL     1       5.252   6.186  14.842  0.00  0.00    +0.000 OA
BRANCH   7  10
ATOM     10  N   UNL     1       7.215   4.827  15.603  0.00  0.00    +0.000 N 
ATOM     11  H   UNL     1       7.946   4.754  14.899  0.00  0.00    +0.000 HD
BRANCH  10  12
ATOM     12  C   UNL     1       7.488   5.501  16.819  0.00  0.00    +0.000 A 
ATOM     13  C   UNL     1       7.641   4.771  17.997  0.00  0.00    +0.000 A 
ATOM     14  C   UNL     1       7.962   5.429  19.185  0.00  0.00    +0.000 A 
ATOM     15  C   UNL     1       8.111   6.817  19.196  0.00  0.00    +0.000 A 
ATOM     16  C   UNL     1       7.937   7.541  18.015  0.00  0.00    +0.000 A 
ATOM     17 CL   UNL     1       8.104   9.254  18.039  0.00  0.00    +0.000 Cl
ATOM     18  C   UNL     1       7.633   6.889  16.823  0.00  0.00    +0.000 A 
ENDBRANCH  10  12
ENDBRANCH   7  10
ENDBRANCH   3   7
BRANCH   1  19
ATOM     19  N   UNL     1       1.837   5.144  18.540  0.00  0.00    +0.000 N 
ATOM     20  H   UNL     1       1.360   5.792  17.915  0.00  0.00    +0.000 HD
BRANCH  19  21
ATOM     21  S   UNL     1       2.341   6.015  19.906  0.00  0.00    +0.000 S 
ATOM     22  O   UNL     1       3.788   5.987  19.846  0.00  0.00    +0.000 OA
ATOM     23  O   UNL     1       1.629   5.553  21.075  0.00  0.00    +0.000 OA
BRANCH  21  28
ATOM     24  C   UNL     1       0.813  11.793  18.747  0.00  0.00    +0.000 C 
ATOM     25  C   UNL     1       1.165  10.366  19.057  0.00  0.00    +0.000 A 
ATOM     26  C   UNL     1       0.879   9.802  20.309  0.00  0.00    +0.000 A 
ATOM     27  C   UNL     1       1.225   8.474  20.595  0.00  0.00    +0.000 A 
ATOM     28  C   UNL     1       1.864   7.705  19.623  0.00  0.00    +0.000 A 
ATOM     29  C   UNL     1       2.140   8.254  18.363  0.00  0.00    +0.000 A 
ATOM     30  C   UNL     1       1.793   9.578  18.084  0.00  0.00    +0.000 A 
ENDBRANCH  21  28
ENDBRANCH  19  21
ENDBRANCH   1  19
BRANCH   6  31
ATOM     31  O   UNL     1       2.146   2.439  19.156  0.00  0.00    +0.000 OA
ATOM     32  H   UNL     1       1.797   3.148  19.721  0.00  0.00    +0.000 HD
ENDBRANCH   6  31
TORSDOF 7
ENDMDL
MODEL 2
REMARK VINA RESULT:      -7.2      3.193      4.633
REMARK  Name = 
REMARK  8 active torsions:
REMARK  status: ('A' for Active; 'I' for Inactive)
REMARK    1  A    between atoms: C_1  and  C_2
REMARK    2  A    between atoms: C_5  and  S_6
REMARK    3  A    between atoms: S_6  and  N_9
REMARK    4  A    between atoms: N_9  and  C_10
REMARK    5  A    between atoms: C_12  and  S_13
REMARK    6  A    between atoms: S_13  and  N_16
REMARK    7  A    between atoms: N_16  and  C_17
REMARK    8  A    between atoms: C_26  and  O_27
REMARK                            x       y       z     vdW  Elec       q    Type
REMARK                         _______ _______ _______ _____ _____    ______ ____
ROOT
ATOM      1  C   UNL     1       1.980   7.201  20.231  0.00  0.00    +0.000 A 
ATOM      2  C   UNL     1       1.775   5.843  20.498  0.00  0.00    +0.000 A 
ATOM      3  C   UNL     1       1.772   4.925  19.438  0.00  0.00    +0.000 A 
ATOM      4  C   UNL     1       1.982   5.352  18.122  0.00  0.00    +0.000 A 
ATOM      5  C   UNL     1       2.149   6.714  17.856  0.00  0.00    +0.000 A 
ATOM      6  C   UNL     1       2.133   7.633  18.907  0.00  0.00    +0.000 A 
ENDROOT
BRANCH   3   7
ATOM      7  S   UNL     1       1.670   3.176  19.782  0.00  0.00    +0.000 S 
ATOM      8  O   UNL     1       1.428   3.025  21.201  0.00  0.00    +0.000 OA
ATOM      9  O   UNL     1       0.767   2.606  18.805  0.00  0.00    +0.000 OA
BRANCH   7  10
ATOM     10  N   UNL     1       3.198   2.575  19.418  0.00  0.00    +0.000 N 
ATOM     11  H   UNL     1       3.229   1.573  19.244  0.00  0.00    +0.000 HD
BRANCH  10  12
ATOM     12  C   UNL     1       4.158   3.417  18.804  0.00  0.00    +0.000 A 
ATOM     13  C   UNL     1       4.944   4.259  19.589  0.00  0.00    +0.000 A 
ATOM     14  C   UNL     1       5.927   5.049  18.990  0.00  0.00    +0.000 A 
ATOM     15  C   UNL     1       6.107   5.008  17.606  0.00  0.00    +0.000 A 
ATOM     16  C   UNL     1       5.303   4.176  16.827  0.00  0.00    +0.000 A 
ATOM     17 CL   UNL     1       5.518   4.144  15.119  0.00  0.00    +0.000 Cl
ATOM     18  C   UNL     1       4.331   3.373  17.420  0.00  0.00    +0.000 A 
ENDBRANCH  10  12
ENDBRANCH   7  10
ENDBRANCH   3   7
BRANCH   1  19
ATOM     19  N   UNL     1       2.001   8.154  21.307  0.00  0.00    +0.000 N 
ATOM     20  H   UNL     1       2.463   7.814  22.149  0.00  0.00    +0.000 HD
BRANCH  19  21
ATOM     21  S   UNL     1       0.503   8.808  21.766  0.00  0.00    +0.000 S 
ATOM     22  O   UNL     1       0.735   9.363  23.085  0.00  0.00    +0.000 OA
ATOM     23  O   UNL     1      -0.548   7.846  21.531  0.00  0.00    +0.000 OA
BRANCH  21  28
ATOM     24  C   UNL     1      -0.368  13.670  18.208  0.00  0.00    +0.000 C 
ATOM     25  C   UNL     1      -0.163  12.451  19.061  0.00  0.00    +0.000 A 
ATOM     26  C   UNL     1      -0.877  11.267  18.819  0.00  0.00    +0.000 A 
ATOM     27  C   UNL     1      -0.691  10.138  19.628  0.00  0.00    +0.000 A 
ATOM     28  C   UNL     1       0.212  10.193  20.689  0.00  0.00    +0.000 A 
ATOM     29  C   UNL     1       0.941  11.366  20.930  0.00  0.00    +0.000 A 
ATOM     30  C   UNL     1       0.752  12.488  20.120  0.00  0.00    +0.000 A 
ENDBRANCH  21  28
ENDBRANCH  19  21
ENDBRANCH   1  19
BRANCH   6  31
ATOM     31  O   UNL     1       2.311   8.965  18.654  0.00  0.00    +0.000 OA
ATOM     32  H   UNL     1       3.149   9.086  18.179  0.00  0.00    +0.000 HD
ENDBRANCH   6  31
TORSDOF 7
ENDMDL
MODEL 3
REMARK VINA RESULT:      -7.1      3.486      4.496
REMARK  Name = 
REMARK  8 active torsions:
REMARK  status: ('A' for Active; 'I' for Inactive)
REMARK    1  A    between atoms: C_1  and  C_2
REMARK    2  A    between atoms: C_5  and  S_6
REMARK    3  A    between atoms: S_6  and  N_9
REMARK    4  A    between atoms: N_9  and  C_10
REMARK    5  A    between atoms: C_12  and  S_13
REMARK    6  A    between atoms: S_13  and  N_16
REMARK    7  A    between atoms: N_16  and  C_17
REMARK    8  A    between atoms: C_26  and  O_27
REMARK                            x       y       z     vdW  Elec       q    Type
REMARK                         _______ _______ _______ _____ _____    ______ ____
ROOT
ATOM      1  C   UNL     1       2.576   7.009  18.403  0.00  0.00    +0.000 A 
ATOM      2  C   UNL     1       3.740   6.996  17.627  0.00  0.00    +0.000 A 
ATOM      3  C   UNL     1       4.798   6.147  17.985  0.00  0.00    +0.000 A 
ATOM      4  C   UNL     1       4.695   5.309  19.102  0.00  0.00    +0.000 A 
ATOM      5  C   UNL     1       3.546   5.354  19.895  0.00  0.00    +0.000 A 
ATOM      6  C   UNL     1       2.499   6.212  19.553  0.00  0.00    +0.000 A 
ENDROOT
BRANCH   3   7
ATOM      7  S   UNL     1       6.220   6.005  16.916  0.00  0.00    +0.000 S 
ATOM      8  O   UNL     1       6.151   7.084  15.953  0.00  0.00    +0.000 OA
ATOM      9  O   UNL     1       7.375   5.838  17.770  0.00  0.00    +0.000 OA
BRANCH   7  10
ATOM     10  N   UNL     1       6.012   4.541  16.114  0.00  0.00    +0.000 N 
ATOM     11  H   UNL     1       5.308   3.931  16.523  0.00  0.00    +0.000 HD
BRANCH  10  12
ATOM     12  C   UNL     1       6.289   4.451  14.728  0.00  0.00    +0.000 A 
ATOM     13  C   UNL     1       7.467   4.996  14.219  0.00  0.00    +0.000 A 
ATOM     14  C   UNL     1       7.765   4.860  12.862  0.00  0.00    +0.000 A 
ATOM     15  C   UNL     1       6.875   4.197  12.015  0.00  0.00    +0.000 A 
ATOM     16  C   UNL     1       5.690   3.672  12.530  0.00  0.00    +0.000 A 
ATOM     17 CL   UNL     1       4.588   2.871  11.477  0.00  0.00    +0.000 Cl
ATOM     18  C   UNL     1       5.393   3.789  13.886  0.00  0.00    +0.000 A 
ENDBRANCH  10  12
ENDBRANCH   7  10
ENDBRANCH   3   7
BRANCH   1  19
ATOM     19  N   UNL     1       1.476   7.862  18.042  0.00  0.00    +0.000 N 
ATOM     20  H   UNL     1       1.374   7.997  17.037  0.00  0.00    +0.000 HD
BRANCH  19  21
ATOM     21  S   UNL     1       1.433   9.391  18.777  0.00  0.00    +0.000 S 
ATOM     22  O   UNL     1       2.326  10.207  17.979  0.00  0.00    +0.000 OA
ATOM     23  O   UNL     1       1.612   9.257  20.204  0.00  0.00    +0.000 OA
BRANCH  21  28
ATOM     24  C   UNL     1      -4.152  11.692  18.018  0.00  0.00    +0.000 C 
ATOM     25  C   UNL     1      -2.773  11.117  18.172  0.00  0.00    +0.000 A 
ATOM     26  C   UNL     1      -2.293  10.135  17.291  0.00  0.00    +0.000 A 
ATOM     27  C   UNL     1      -1.011   9.593  17.451  0.00  0.00    +0.000 A 
ATOM     28  C   UNL     1      -0.204  10.031  18.501  0.00  0.00    +0.000 A 
ATOM     29  C   UNL     1      -0.668  11.021  19.377  0.00  0.00    +0.000 A 
ATOM     30  C   UNL     1      -1.947  11.559  19.213  0.00  0.00    +0.000 A 
ENDBRANCH  21  28
ENDBRANCH  19  21
ENDBRANCH   1  19
BRANCH   6  31
ATOM     31  O   UNL     1       1.366   6.249  20.317  0.00  0.00    +0.000 OA
ATOM     32  H   UNL     1       1.327   5.446  20.862  0.00  0.00    +0.000 HD
ENDBRANCH   6  31
TORSDOF 7
ENDMDL
MODEL 4
REMARK VINA RESULT:      -7.1      5.902      8.677
REMARK  Name = 
REMARK  8 active torsions:
REMARK  status: ('A' for Active; 'I' for Inactive)
REMARK    1  A    between atoms: C_1  and  C_2
REMARK    2  A    between atoms: C_5  and  S_6
REMARK    3  A    between atoms: S_6  and  N_9
REMARK    4  A    between atoms: N_9  and  C_10
REMARK    5  A    between atoms: C_12  and  S_13
REMARK    6  A    between atoms: S_13  and  N_16
REMARK    7  A    between atoms: N_16  and  C_17
REMARK    8  A    between atoms: C_26  and  O_27
REMARK                            x       y       z     vdW  Elec       q    Type
REMARK                         _______ _______ _______ _____ _____    ______ ____
ROOT
ATOM      1  C   UNL     1       1.414  13.255  18.425  0.00  0.00    +0.000 A 
ATOM      2  C   UNL     1       2.741  13.699  18.426  0.00  0.00    +0.000 A 
ATOM      3  C   UNL     1       3.015  15.051  18.679  0.00  0.00    +0.000 A 
ATOM      4  C   UNL     1       1.978  15.954  18.940  0.00  0.00    +0.000 A 
ATOM      5  C   UNL     1       0.652  15.513  18.900  0.00  0.00    +0.000 A 
ATOM      6  C   UNL     1       0.375  14.172  18.629  0.00  0.00    +0.000 A 
ENDROOT
BRANCH   3   7
ATOM      7  S   UNL     1       4.707  15.597  18.839  0.00  0.00    +0.000 S 
ATOM      8  O   UNL     1       4.732  17.020  18.577  0.00  0.00    +0.000 OA
ATOM      9  O   UNL     1       5.208  15.058  20.085  0.00  0.00    +0.000 OA
BRANCH   7  10
ATOM     10  N   UNL     1       5.535  14.798  17.613  0.00  0.00    +0.000 N 
ATOM     11  H   UNL     1       5.097  14.858  16.697  0.00  0.00    +0.000 HD
BRANCH  10  12
ATOM     12  C   UNL     1       6.940  14.635  17.701  0.00  0.00    +0.000 A 
ATOM     13  C   UNL     1       7.761  15.754  17.833  0.00  0.00    +0.000 A 
ATOM     14  C   UNL     1       9.140  15.591  17.973  0.00  0.00    +0.000 A 
ATOM     15  C   UNL     1       9.696  14.310  17.961  0.00  0.00    +0.000 A 
ATOM     16  C   UNL     1       8.868  13.197  17.809  0.00  0.00    +0.000 A 
ATOM     17 CL   UNL     1       9.561  11.621  17.777  0.00  0.00    +0.000 Cl
ATOM     18  C   UNL     1       7.489  13.352  17.686  0.00  0.00    +0.000 A 
ENDBRANCH  10  12
ENDBRANCH   7  10
ENDBRANCH   3   7
BRANCH   1  19
ATOM     19  N   UNL     1       1.116  11.869  18.182  0.00  0.00    +0.000 N 
ATOM     20  H   UNL     1       0.423  11.720  17.450  0.00  0.00    +0.000 HD
BRANCH  19  21
ATOM     21  S   UNL     1       0.652  10.949  19.531  0.00  0.00    +0.000 S 
ATOM     22  O   UNL     1      -0.779  10.777  19.382  0.00  0.00    +0.000 OA
ATOM     23  O   UNL     1       1.218  11.516  20.733  0.00  0.00    +0.000 OA
BRANCH  21  28
ATOM     24  C   UNL     1       3.094   5.400  18.980  0.00  0.00    +0.000 C 
ATOM     25  C   UNL     1       2.486   6.769  19.082  0.00  0.00    +0.000 A 
ATOM     26  C   UNL     1       2.474   7.643  17.984  0.00  0.00    +0.000 A 
ATOM     27  C   UNL     1       1.918   8.925  18.092  0.00  0.00    +0.000 A 
ATOM     28  C   UNL     1       1.373   9.338  19.307  0.00  0.00    +0.000 A 
ATOM     29  C   UNL     1       1.365   8.468  20.406  0.00  0.00    +0.000 A 
ATOM     30  C   UNL     1       1.921   7.191  20.292  0.00  0.00    +0.000 A 
ENDBRANCH  21  28
ENDBRANCH  19  21
ENDBRANCH   1  19
BRANCH   6  31
ATOM     31  O   UNL     1      -0.919  13.732  18.604  0.00  0.00    +0.000 OA
ATOM     32  H   UNL     1      -1.496  14.429  18.958  0.00  0.00    +0.000 HD
ENDBRANCH   6  31
TORSDOF 7
ENDMDL
MODEL 5
REMARK VINA RESULT:      -7.1      3.388      4.442
REMARK  Name = 
REMARK  8 active torsions:
REMARK  status: ('A' for Active; 'I' for Inactive)
REMARK    1  A    between atoms: C_1  and  C_2
REMARK    2  A    between atoms: C_5  and  S_6
REMARK    3  A    between atoms: S_6  and  N_9
REMARK    4  A    between atoms: N_9  and  C_10
REMARK    5  A    between atoms: C_12  and  S_13
REMARK    6  A    between atoms: S_13  and  N_16
REMARK    7  A    between atoms: N_16  and  C_17
REMARK    8  A    between atoms: C_26  and  O_27
REMARK                            x       y       z     vdW  Elec       q    Type
REMARK                         _______ _______ _______ _____ _____    ______ ____
ROOT
ATOM      1  C   UNL     1       2.652   7.095  19.051  0.00  0.00    +0.000 A 
ATOM      2  C   UNL     1       3.642   7.305  18.084  0.00  0.00    +0.000 A 
ATOM      3  C   UNL     1       4.422   6.223  17.651  0.00  0.00    +0.000 A 
ATOM      4  C   UNL     1       4.213   4.938  18.167  0.00  0.00    +0.000 A 
ATOM      5  C   UNL     1       3.249   4.742  19.160  0.00  0.00    +0.000 A 
ATOM      6  C   UNL     1       2.483   5.821  19.607  0.00  0.00    +0.000 A 
ENDROOT
BRANCH   3   7
ATOM      7  S   UNL     1       5.577   6.445  16.307  0.00  0.00    +0.000 S 
ATOM      8  O   UNL     1       4.869   7.102  15.229  0.00  0.00    +0.000 OA
ATOM      9  O   UNL     1       6.777   7.020  16.874  0.00  0.00    +0.000 OA
BRANCH   7  10
ATOM     10  N   UNL     1       5.983   4.885  15.827  0.00  0.00    +0.000 N 
ATOM     11  H   UNL     1       5.535   4.146  16.364  0.00  0.00    +0.000 HD
BRANCH  10  12
ATOM     12  C   UNL     1       6.360   4.637  14.484  0.00  0.00    +0.000 A 
ATOM     13  C   UNL     1       7.463   5.294  13.941  0.00  0.00    +0.000 A 
ATOM     14  C   UNL     1       7.867   5.009  12.636  0.00  0.00    +0.000 A 
ATOM     15  C   UNL     1       7.155   4.083  11.871  0.00  0.00    +0.000 A 
ATOM     16  C   UNL     1       6.040   3.445  12.417  0.00  0.00    +0.000 A 
ATOM     17 CL   UNL     1       5.155   2.318  11.463  0.00  0.00    +0.000 Cl
ATOM     18  C   UNL     1       5.642   3.712  13.725  0.00  0.00    +0.000 A 
ENDBRANCH  10  12
ENDBRANCH   7  10
ENDBRANCH   3   7
BRANCH   1  19
ATOM     19  N   UNL     1       1.833   8.191  19.495  0.00  0.00    +0.000 N 
ATOM     20  H   UNL     1       0.978   7.899  19.967  0.00  0.00    +0.000 HD
BRANCH  19  21
ATOM     21  S   UNL     1       1.411   9.343  18.322  0.00  0.00    +0.000 S 
ATOM     22  O   UNL     1       0.738   8.583  17.288  0.00  0.00    +0.000 OA
ATOM     23  O   UNL     1       2.551  10.177  18.019  0.00  0.00    +0.000 OA
BRANCH  21  28
ATOM     24  C   UNL     1      -2.707  12.907  21.041  0.00  0.00    +0.000 C 
ATOM     25  C   UNL     1      -1.705  12.035  20.340  0.00  0.00    +0.000 A 
ATOM     26  C   UNL     1      -2.001  11.435  19.106  0.00  0.00    +0.000 A 
ATOM     27  C   UNL     1      -1.067  10.611  18.466  0.00  0.00    +0.000 A 
ATOM     28  C   UNL     1       0.171  10.380  19.065  0.00  0.00    +0.000 A 
ATOM     29  C   UNL     1       0.483  10.985  20.290  0.00  0.00    +0.000 A 
ATOM     30  C   UNL     1      -0.453  11.807  20.923  0.00  0.00    +0.000 A 
ENDBRANCH  21  28
ENDBRANCH  19  21
ENDBRANCH   1  19
BRANCH   6  31
ATOM     31  O   UNL     1       1.528   5.632  20.567  0.00  0.00    +0.000 OA
ATOM     32  H   UNL     1       1.023   4.830  20.354  0.00  0.00    +0.000 HD
ENDBRANCH   6  31
TORSDOF 7
ENDMDL
MODEL 6
REMARK VINA RESULT:      -7.1      3.254      5.361
REMARK  Name = 
REMARK  8 active torsions:
REMARK  status: ('A' for Active; 'I' for Inactive)
REMARK    1  A    between atoms: C_1  and  C_2
REMARK    2  A    between atoms: C_5  and  S_6
REMARK    3  A    between atoms: S_6  and  N_9
REMARK    4  A    between atoms: N_9  and  C_10
REMARK    5  A    between atoms: C_12  and  S_13
REMARK    6  A    between atoms: S_13  and  N_16
REMARK    7  A    between atoms: N_16  and  C_17
REMARK    8  A    between atoms: C_26  and  O_27
REMARK                            x       y       z     vdW  Elec       q    Type
REMARK                         _______ _______ _______ _____ _____    ______ ____
ROOT
ATOM      1  C   UNL     1       1.504   9.257  20.297  0.00  0.00    +0.000 A 
ATOM      2  C   UNL     1       1.871   7.908  20.357  0.00  0.00    +0.000 A 
ATOM      3  C   UNL     1       2.049   7.189  19.166  0.00  0.00    +0.000 A 
ATOM      4  C   UNL     1       1.872   7.809  17.923  0.00  0.00    +0.000 A 
ATOM      5  C   UNL     1       1.469   9.146  17.870  0.00  0.00    +0.000 A 
ATOM      6  C   UNL     1       1.273   9.859  19.054  0.00  0.00    +0.000 A 
ENDROOT
BRANCH   3   7
ATOM      7  S   UNL     1       2.669   5.516  19.225  0.00  0.00    +0.000 S 
ATOM      8  O   UNL     1       3.894   5.533  19.997  0.00  0.00    +0.000 OA
ATOM      9  O   UNL     1       1.560   4.667  19.602  0.00  0.00    +0.000 OA
BRANCH   7  10
ATOM     10  N   UNL     1       3.033   5.135  17.628  0.00  0.00    +0.000 N 
ATOM     11  H   UNL     1       2.293   5.349  16.963  0.00  0.00    +0.000 HD
BRANCH  10  12
ATOM     12  C   UNL     1       4.381   5.136  17.192  0.00  0.00    +0.000 A 
ATOM     13  C   UNL     1       4.871   4.059  16.456  0.00  0.00    +0.000 A 
ATOM     14  C   UNL     1       6.183   4.083  15.980  0.00  0.00    +0.000 A 
ATOM     15  C   UNL     1       7.007   5.175  16.260  0.00  0.00    +0.000 A 
ATOM     16  C   UNL     1       6.512   6.240  17.015  0.00  0.00    +0.000 A 
ATOM     17 CL   UNL     1       7.538   7.576  17.372  0.00  0.00    +0.000 Cl
ATOM     18  C   UNL     1       5.198   6.229  17.478  0.00  0.00    +0.000 A 
ENDBRANCH  10  12
ENDBRANCH   7  10
ENDBRANCH   3   7
BRANCH   1  19
ATOM     19  N   UNL     1       1.332  10.013  21.508  0.00  0.00    +0.000 N 
ATOM     20  H   UNL     1       2.135   9.973  22.135  0.00  0.00    +0.000 HD
BRANCH  19  21
ATOM     21  S   UNL     1      -0.056   9.671  22.423  0.00  0.00    +0.000 S 
ATOM     22  O   UNL     1       0.432   9.489  23.775  0.00  0.00    +0.000 OA
ATOM     23  O   UNL     1      -0.840   8.651  21.765  0.00  0.00    +0.000 OA
BRANCH  21  28
ATOM     24  C   UNL     1      -3.230  14.864  22.332  0.00  0.00    +0.000 C 
ATOM     25  C   UNL     1      -2.474  13.567  22.368  0.00  0.00    +0.000 A 
ATOM     26  C   UNL     1      -2.798  12.562  23.292  0.00  0.00    +0.000 A 
ATOM     27  C   UNL     1      -2.078  11.361  23.329  0.00  0.00    +0.000 A 
ATOM     28  C   UNL     1      -1.023  11.163  22.439  0.00  0.00    +0.000 A 
ATOM     29  C   UNL     1      -0.701  12.154  21.501  0.00  0.00    +0.000 A 
ATOM     30  C   UNL     1      -1.423  13.349  21.469  0.00  0.00    +0.000 A 
ENDBRANCH  21  28
ENDBRANCH  19  21
ENDBRANCH   1  19
BRANCH   6  31
ATOM     31  O   UNL     1       0.893  11.172  19.008  0.00  0.00    +0.000 OA
ATOM     32  H   UNL     1       1.611  11.694  18.614  0.00  0.00    +0.000 HD
ENDBRANCH   6  31
TORSDOF 7
ENDMDL
MODEL 7
REMARK VINA RESULT:      -7.0      2.964      3.833
REMARK  Name = 
REMARK  8 active torsions:
REMARK  status: ('A' for Active; 'I' for Inactive)
REMARK    1  A    between atoms: C_1  and  C_2
REMARK    2  A    between atoms: C_5  and  S_6
REMARK    3  A    between atoms: S_6  and  N_9
REMARK    4  A    between atoms: N_9  and  C_10
REMARK    5  A    between atoms: C_12  and  S_13
REMARK    6  A    between atoms: S_13  and  N_16
REMARK    7  A    between atoms: N_16  and  C_17
REMARK    8  A    between atoms: C_26  and  O_27
REMARK                            x       y       z     vdW  Elec       q    Type
REMARK                         _______ _______ _______ _____ _____    ______ ____
ROOT
ATOM      1  C   UNL     1       3.890   3.171  18.972  0.00  0.00    +0.000 A 
ATOM      2  C   UNL     1       4.857   4.112  18.604  0.00  0.00    +0.000 A 
ATOM      3  C   UNL     1       5.183   4.270  17.249  0.00  0.00    +0.000 A 
ATOM      4  C   UNL     1       4.545   3.505  16.266  0.00  0.00    +0.000 A 
ATOM      5  C   UNL     1       3.607   2.539  16.643  0.00  0.00    +0.000 A 
ATOM      6  C   UNL     1       3.294   2.366  17.992  0.00  0.00    +0.000 A 
ENDROOT
BRANCH   3   7
ATOM      7  S   UNL     1       6.297   5.574  16.751  0.00  0.00    +0.000 S 
ATOM      8  O   UNL     1       5.551   6.486  15.910  0.00  0.00    +0.000 OA
ATOM      9  O   UNL     1       6.965   6.037  17.948  0.00  0.00    +0.000 OA
BRANCH   7  10
ATOM     10  N   UNL     1       7.471   4.807  15.824  0.00  0.00    +0.000 N 
ATOM     11  H   UNL     1       7.982   4.073  16.309  0.00  0.00    +0.000 HD
BRANCH  10  12
ATOM     12  C   UNL     1       7.322   4.734  14.417  0.00  0.00    +0.000 A 
ATOM     13  C   UNL     1       8.038   5.606  13.598  0.00  0.00    +0.000 A 
ATOM     14  C   UNL     1       7.933   5.500  12.211  0.00  0.00    +0.000 A 
ATOM     15  C   UNL     1       7.097   4.535  11.646  0.00  0.00    +0.000 A 
ATOM     16  C   UNL     1       6.369   3.679  12.474  0.00  0.00    +0.000 A 
ATOM     17 CL   UNL     1       5.326   2.503  11.772  0.00  0.00    +0.000 Cl
ATOM     18  C   UNL     1       6.483   3.769  13.860  0.00  0.00    +0.000 A 
ENDBRANCH  10  12
ENDBRANCH   7  10
ENDBRANCH   3   7
BRANCH   1  19
ATOM     19  N   UNL     1       3.533   3.006  20.356  0.00  0.00    +0.000 N 
ATOM     20  H   UNL     1       3.527   2.036  20.666  0.00  0.00    +0.000 HD
BRANCH  19  21
ATOM     21  S   UNL     1       2.072   3.717  20.848  0.00  0.00    +0.000 S 
ATOM     22  O   UNL     1       2.232   3.934  22.272  0.00  0.00    +0.000 OA
ATOM     23  O   UNL     1       0.956   2.963  20.325  0.00  0.00    +0.000 OA
BRANCH  21  28
ATOM     24  C   UNL     1       1.944   9.146  18.098  0.00  0.00    +0.000 C 
ATOM     25  C   UNL     1       1.959   7.820  18.803  0.00  0.00    +0.000 A 
ATOM     26  C   UNL     1       1.929   7.742  20.204  0.00  0.00    +0.000 A 
ATOM     27  C   UNL     1       1.960   6.501  20.855  0.00  0.00    +0.000 A 
ATOM     28  C   UNL     1       2.025   5.330  20.101  0.00  0.00    +0.000 A 
ATOM     29  C   UNL     1       2.040   5.396  18.701  0.00  0.00    +0.000 A 
ATOM     30  C   UNL     1       2.009   6.636  18.057  0.00  0.00    +0.000 A 
ENDBRANCH  21  28
ENDBRANCH  19  21
ENDBRANCH   1  19
BRANCH   6  31
ATOM     31  O   UNL     1       2.366   1.434  18.366  0.00  0.00    +0.000 OA
ATOM     32  H   UNL     1       1.486   1.739  18.092  0.00  0.00    +0.000 HD
ENDBRANCH   6  31
TORSDOF 7
ENDMDL
MODEL 8
REMARK VINA RESULT:      -7.0      3.215      7.177
REMARK  Name = 
REMARK  8 active torsions:
REMARK  status: ('A' for Active; 'I' for Inactive)
REMARK    1  A    between atoms: C_1  and  C_2
REMARK    2  A    between atoms: C_5  and  S_6
REMARK    3  A    between atoms: S_6  and  N_9
REMARK    4  A    between atoms: N_9  and  C_10
REMARK    5  A    between atoms: C_12  and  S_13
REMARK    6  A    between atoms: S_13  and  N_16
REMARK    7  A    between atoms: N_16  and  C_17
REMARK    8  A    between atoms: C_26  and  O_27
REMARK                            x       y       z     vdW  Elec       q    Type
REMARK                         _______ _______ _______ _____ _____    ______ ____
ROOT
ATOM      1  C   UNL     1       4.654   4.393  18.588  0.00  0.00    +0.000 A 
ATOM      2  C   UNL     1       4.227   5.720  18.460  0.00  0.00    +0.000 A 
ATOM      3  C   UNL     1       2.865   5.989  18.263  0.00  0.00    +0.000 A 
ATOM      4  C   UNL     1       1.931   4.948  18.204  0.00  0.00    +0.000 A 
ATOM      5  C   UNL     1       2.368   3.623  18.295  0.00  0.00    +0.000 A 
ATOM      6  C   UNL     1       3.725   3.351  18.472  0.00  0.00    +0.000 A 
ENDROOT
BRANCH   3   7
ATOM      7  S   UNL     1       2.288   7.679  18.256  0.00  0.00    +0.000 S 
ATOM      8  O   UNL     1       3.393   8.514  17.833  0.00  0.00    +0.000 OA
ATOM      9  O   UNL     1       1.027   7.691  17.547  0.00  0.00    +0.000 OA
BRANCH   7  10
ATOM     10  N   UNL     1       1.928   8.017  19.863  0.00  0.00    +0.000 N 
ATOM     11  H   UNL     1       2.629   7.702  20.530  0.00  0.00    +0.000 HD
BRANCH  10  12
ATOM     12  C   UNL     1       1.118   9.135  20.184  0.00  0.00    +0.000 A 
ATOM     13  C   UNL     1       0.919  10.141  19.240  0.00  0.00    +0.000 A 
ATOM     14  C   UNL     1       0.078  11.215  19.537  0.00  0.00    +0.000 A 
ATOM     15  C   UNL     1      -0.544  11.289  20.784  0.00  0.00    +0.000 A 
ATOM     16  C   UNL     1      -0.324  10.287  21.730  0.00  0.00    +0.000 A 
ATOM     17 CL   UNL     1      -1.080  10.395  23.272  0.00  0.00    +0.000 Cl
ATOM     18  C   UNL     1       0.501   9.204  21.434  0.00  0.00    +0.000 A 
ENDBRANCH  10  12
ENDBRANCH   7  10
ENDBRANCH   3   7
BRANCH   1  19
ATOM     19  N   UNL     1       6.044   4.100  18.806  0.00  0.00    +0.000 N 
ATOM     20  H   UNL     1       6.341   4.210  19.774  0.00  0.00    +0.000 HD
BRANCH  19  21
ATOM     21  S   UNL     1       7.154   4.929  17.826  0.00  0.00    +0.000 S 
ATOM     22  O   UNL     1       8.431   4.304  18.108  0.00  0.00    +0.000 OA
ATOM     23  O   UNL     1       6.968   6.355  17.968  0.00  0.00    +0.000 OA
BRANCH  21  28
ATOM     24  C   UNL     1       5.915   3.626  12.010  0.00  0.00    +0.000 C 
ATOM     25  C   UNL     1       6.209   3.917  13.454  0.00  0.00    +0.000 A 
ATOM     26  C   UNL     1       5.492   3.287  14.482  0.00  0.00    +0.000 A 
ATOM     27  C   UNL     1       5.761   3.575  15.827  0.00  0.00    +0.000 A 
ATOM     28  C   UNL     1       6.753   4.503  16.146  0.00  0.00    +0.000 A 
ATOM     29  C   UNL     1       7.486   5.126  15.127  0.00  0.00    +0.000 A 
ATOM     30  C   UNL     1       7.212   4.834  13.788  0.00  0.00    +0.000 A 
ENDBRANCH  21  28
ENDBRANCH  19  21
ENDBRANCH   1  19
BRANCH   6  31
ATOM     31  O   UNL     1       4.156   2.057  18.577  0.00  0.00    +0.000 OA
ATOM     32  H   UNL     1       5.123   2.039  18.485  0.00  0.00    +0.000 HD
ENDBRANCH   6  31
TORSDOF 7
ENDMDL
MODEL 9
REMARK VINA RESULT:      -6.9      2.979      4.926
REMARK  Name = 
REMARK  8 active torsions:
REMARK  status: ('A' for Active; 'I' for Inactive)
REMARK    1  A    between atoms: C_1  and  C_2
REMARK    2  A    between atoms: C_5  and  S_6
REMARK    3  A    between atoms: S_6  and  N_9
REMARK    4  A    between atoms: N_9  and  C_10
REMARK    5  A    between atoms: C_12  and  S_13
REMARK    6  A    between atoms: S_13  and  N_16
REMARK    7  A    between atoms: N_16  and  C_17
REMARK    8  A    between atoms: C_26  and  O_27
REMARK                            x       y       z     vdW  Elec       q    Type
REMARK                         _______ _______ _______ _____ _____    ______ ____
ROOT
ATOM      1  C   UNL     1       1.768   8.195  20.140  0.00  0.00    +0.000 A 
ATOM      2  C   UNL     1       1.924   6.837  20.438  0.00  0.00    +0.000 A 
ATOM      3  C   UNL     1       2.293   5.946  19.420  0.00  0.00    +0.000 A 
ATOM      4  C   UNL     1       2.516   6.403  18.116  0.00  0.00    +0.000 A 
ATOM      5  C   UNL     1       2.322   7.754  17.815  0.00  0.00    +0.000 A 
ATOM      6  C   UNL     1       1.936   8.641  18.822  0.00  0.00    +0.000 A 
ENDROOT
BRANCH   3   7
ATOM      7  S   UNL     1       2.649   4.242  19.820  0.00  0.00    +0.000 S 
ATOM      8  O   UNL     1       2.250   4.026  21.194  0.00  0.00    +0.000 OA
ATOM      9  O   UNL     1       2.106   3.436  18.748  0.00  0.00    +0.000 OA
BRANCH   7  10
ATOM     10  N   UNL     1       4.321   4.114  19.706  0.00  0.00    +0.000 N 
ATOM     11  H   UNL     1       4.726   3.360  20.256  0.00  0.00    +0.000 HD
BRANCH  10  12
ATOM     12  C   UNL     1       4.985   4.551  18.533  0.00  0.00    +0.000 A 
ATOM     13  C   UNL     1       4.732   3.917  17.318  0.00  0.00    +0.000 A 
ATOM     14  C   UNL     1       5.345   4.382  16.153  0.00  0.00    +0.000 A 
ATOM     15  C   UNL     1       6.223   5.466  16.210  0.00  0.00    +0.000 A 
ATOM     16  C   UNL     1       6.484   6.082  17.435  0.00  0.00    +0.000 A 
ATOM     17 CL   UNL     1       7.581   7.406  17.503  0.00  0.00    +0.000 Cl
ATOM     18  C   UNL     1       5.863   5.633  18.599  0.00  0.00    +0.000 A 
ENDBRANCH  10  12
ENDBRANCH   7  10
ENDBRANCH   3   7
BRANCH   1  19
ATOM     19  N   UNL     1       1.405   9.125  21.175  0.00  0.00    +0.000 N 
ATOM     20  H   UNL     1       1.738   8.861  22.101  0.00  0.00    +0.000 HD
BRANCH  19  21
ATOM     21  S   UNL     1      -0.244   9.503  21.306  0.00  0.00    +0.000 S 
ATOM     22  O   UNL     1      -0.706   8.737  22.446  0.00  0.00    +0.000 OA
ATOM     23  O   UNL     1      -0.882   9.385  20.015  0.00  0.00    +0.000 OA
BRANCH  21  28
ATOM     24  C   UNL     1      -0.364  15.397  22.824  0.00  0.00    +0.000 C 
ATOM     25  C   UNL     1      -0.366  13.940  22.462  0.00  0.00    +0.000 A 
ATOM     26  C   UNL     1      -1.178  13.022  23.146  0.00  0.00    +0.000 A 
ATOM     27  C   UNL     1      -1.163  11.661  22.812  0.00  0.00    +0.000 A 
ATOM     28  C   UNL     1      -0.328  11.213  21.789  0.00  0.00    +0.000 A 
ATOM     29  C   UNL     1       0.476  12.123  21.089  0.00  0.00    +0.000 A 
ATOM     30  C   UNL     1       0.456  13.479  21.426  0.00  0.00    +0.000 A 
ENDBRANCH  21  28
ENDBRANCH  19  21
ENDBRANCH   1  19
BRANCH   6  31
ATOM     31  O   UNL     1       1.760   9.966  18.537  0.00  0.00    +0.000 OA
ATOM     32  H   UNL     1       2.571  10.311  18.128  0.00  0.00    +0.000 HD
ENDBRANCH   6  31
TORSDOF 7
ENDMDL
