MODEL 1
REMARK VINA RESULT:      -9.3      0.000      0.000
REMARK  Name = 
REMARK  7 active torsions:
REMARK  status: ('A' for Active; 'I' for Inactive)
REMARK    1  A    between atoms: C_1  and  O_2
REMARK    2  A    between atoms: O_2  and  C_3
REMARK    3  A    between atoms: C_7  and  C_8
REMARK    4  A    between atoms: C_11  and  C_12
REMARK    5  A    between atoms: C_12  and  N_13
REMARK    6  A    between atoms: C_17  and  C_18
REMARK    7  A    between atoms: C_17  and  C_19
REMARK                            x       y       z     vdW  Elec       q    Type
REMARK                         _______ _______ _______ _____ _____    ______ ____
ROOT
ATOM      1  N   UNL     1       6.096   5.713  17.440  0.00  0.00    +0.000 N 
ATOM      2  C   UNL     1       5.200   6.427  16.709  0.00  0.00    +0.000 C 
ATOM      3  O   UNL     1       5.319   6.809  15.561  0.00  0.00    +0.000 OA
ATOM      4  N   UNL     1       4.073   6.616  17.476  0.00  0.00    +0.000 N 
ATOM      5  C   UNL     1       4.053   5.704  18.610  0.00  0.00    +0.000 C 
ATOM      6  C   UNL     1       3.547   6.417  19.856  0.00  0.00    +0.000 C 
ATOM      7  C   UNL     1       5.575   5.413  18.670  0.00  0.00    +0.000 C 
ATOM      8  O   UNL     1       6.182   4.889  19.594  0.00  0.00    +0.000 OA
ATOM      9  H   UNL     1       3.243   7.000  17.042  0.00  0.00    +0.000 HD
ENDROOT
BRANCH   5  10
ATOM     10  C   UNL     1       3.339   4.390  18.263  0.00  0.00    +0.000 A 
ATOM     11  C   UNL     1       3.992   3.142  18.334  0.00  0.00    +0.000 A 
ATOM     12  C   UNL     1       3.274   1.953  18.223  0.00  0.00    +0.000 A 
ATOM     13  F   UNL     1       3.920   0.786  18.337  0.00  0.00    +0.000 F 
ATOM     14  C   UNL     1       1.902   1.960  18.027  0.00  0.00    +0.000 A 
ATOM     15  C   UNL     1       1.239   3.179  17.914  0.00  0.00    +0.000 A 
ATOM     16  C   UNL     1       1.955   4.374  18.028  0.00  0.00    +0.000 A 
ATOM     17  F   UNL     1       1.272   5.522  17.947  0.00  0.00    +0.000 F 
ENDBRANCH   5  10
BRANCH   1  18
ATOM     18  C   UNL     1       7.304   5.136  16.913  0.00  0.00    +0.000 C 
BRANCH  18  22
ATOM     19  C   UNL     1       6.591   4.372  13.498  0.00  0.00    +0.000 A 
ATOM     20  N   UNL     1       7.581   5.259  13.303  0.00  0.00    +0.000 NA
ATOM     21  O   UNL     1       7.940   5.646  14.601  0.00  0.00    +0.000 OA
ATOM     22  C   UNL     1       7.131   4.947  15.447  0.00  0.00    +0.000 A 
ATOM     23  N   UNL     1       6.262   4.192  14.823  0.00  0.00    +0.000 NA
BRANCH  19  28
ATOM     24  C   UNL     1       5.882   1.472  11.188  0.00  0.00    +0.000 A 
ATOM     25  C   UNL     1       4.590   1.797  10.769  0.00  0.00    +0.000 A 
ATOM     26  C   UNL     1       4.000   2.992  11.174  0.00  0.00    +0.000 A 
ATOM     27  C   UNL     1       4.693   3.854  12.019  0.00  0.00    +0.000 A 
ATOM     28  C   UNL     1       5.980   3.532  12.475  0.00  0.00    +0.000 A 
ATOM     29  C   UNL     1       6.582   2.351  12.024  0.00  0.00    +0.000 A 
BRANCH  24  31
ATOM     30  C   UNL     1       5.997  -0.892  11.382  0.00  0.00    +0.000 C 
ATOM     31  O   UNL     1       6.550   0.319  10.872  0.00  0.00    +0.000 OA
ENDBRANCH  24  31
ENDBRANCH  19  28
ENDBRANCH  18  22
ENDBRANCH   1  18
TORSDOF 5
ENDMDL
MODEL 2
REMARK VINA RESULT:      -9.2      0.954      1.650
REMARK  Name = 
REMARK  7 active torsions:
REMARK  status: ('A' for Active; 'I' for Inactive)
REMARK    1  A    between atoms: C_1  and  O_2
REMARK    2  A    between atoms: O_2  and  C_3
REMARK    3  A    between atoms: C_7  and  C_8
REMARK    4  A    between atoms: C_11  and  C_12
REMARK    5  A    between atoms: C_12  and  N_13
REMARK    6  A    between atoms: C_17  and  C_18
REMARK    7  A    between atoms: C_17  and  C_19
REMARK                            x       y       z     vdW  Elec       q    Type
REMARK                         _______ _______ _______ _____ _____    ______ ____
ROOT
ATOM      1  N   UNL     1       6.071   5.769  17.543  0.00  0.00    +0.000 N 
ATOM      2  C   UNL     1       5.170   6.470  16.805  0.00  0.00    +0.000 C 
ATOM      3  O   UNL     1       5.302   6.876  15.667  0.00  0.00    +0.000 OA
ATOM      4  N   UNL     1       4.021   6.613  17.551  0.00  0.00    +0.000 N 
ATOM      5  C   UNL     1       4.004   5.680  18.668  0.00  0.00    +0.000 C 
ATOM      6  C   UNL     1       3.451   6.355  19.915  0.00  0.00    +0.000 C 
ATOM      7  C   UNL     1       5.533   5.432  18.756  0.00  0.00    +0.000 C 
ATOM      8  O   UNL     1       6.135   4.909  19.683  0.00  0.00    +0.000 OA
ATOM      9  H   UNL     1       3.190   6.980  17.105  0.00  0.00    +0.000 HD
ENDROOT
BRANCH   5  10
ATOM     10  C   UNL     1       3.337   4.352  18.283  0.00  0.00    +0.000 A 
ATOM     11  C   UNL     1       3.993   3.113  18.431  0.00  0.00    +0.000 A 
ATOM     12  C   UNL     1       3.300   1.914  18.278  0.00  0.00    +0.000 A 
ATOM     13  F   UNL     1       3.946   0.757  18.468  0.00  0.00    +0.000 F 
ATOM     14  C   UNL     1       1.950   1.902  17.964  0.00  0.00    +0.000 A 
ATOM     15  C   UNL     1       1.288   3.112  17.773  0.00  0.00    +0.000 A 
ATOM     16  C   UNL     1       1.979   4.316  17.928  0.00  0.00    +0.000 A 
ATOM     17  F   UNL     1       1.294   5.455  17.769  0.00  0.00    +0.000 F 
ENDBRANCH   5  10
BRANCH   1  18
ATOM     18  C   UNL     1       7.306   5.237  17.032  0.00  0.00    +0.000 C 
BRANCH  18  22
ATOM     19  C   UNL     1       6.626   4.286  13.658  0.00  0.00    +0.000 A 
ATOM     20  N   UNL     1       7.548   5.235  13.418  0.00  0.00    +0.000 NA
ATOM     21  O   UNL     1       7.886   5.698  14.696  0.00  0.00    +0.000 OA
ATOM     22  C   UNL     1       7.137   4.977  15.577  0.00  0.00    +0.000 A 
ATOM     23  N   UNL     1       6.321   4.136  14.992  0.00  0.00    +0.000 NA
BRANCH  19  28
ATOM     24  C   UNL     1       4.363   2.746  11.058  0.00  0.00    +0.000 A 
ATOM     25  C   UNL     1       5.209   1.761  10.543  0.00  0.00    +0.000 A 
ATOM     26  C   UNL     1       6.468   1.554  11.103  0.00  0.00    +0.000 A 
ATOM     27  C   UNL     1       6.894   2.349  12.163  0.00  0.00    +0.000 A 
ATOM     28  C   UNL     1       6.071   3.364  12.675  0.00  0.00    +0.000 A 
ATOM     29  C   UNL     1       4.789   3.532  12.138  0.00  0.00    +0.000 A 
BRANCH  24  31
ATOM     30  C   UNL     1       3.025   4.220   9.766  0.00  0.00    +0.000 C 
ATOM     31  O   UNL     1       3.118   3.051  10.576  0.00  0.00    +0.000 OA
ENDBRANCH  24  31
ENDBRANCH  19  28
ENDBRANCH  18  22
ENDBRANCH   1  18
TORSDOF 5
ENDMDL
MODEL 3
REMARK VINA RESULT:      -9.0      4.073      8.207
REMARK  Name = 
REMARK  7 active torsions:
REMARK  status: ('A' for Active; 'I' for Inactive)
REMARK    1  A    between atoms: C_1  and  O_2
REMARK    2  A    between atoms: O_2  and  C_3
REMARK    3  A    between atoms: C_7  and  C_8
REMARK    4  A    between atoms: C_11  and  C_12
REMARK    5  A    between atoms: C_12  and  N_13
REMARK    6  A    between atoms: C_17  and  C_18
REMARK    7  A    between atoms: C_17  and  C_19
REMARK                            x       y       z     vdW  Elec       q    Type
REMARK                         _______ _______ _______ _____ _____    ______ ____
ROOT
ATOM      1  N   UNL     1       4.779   5.054  17.690  0.00  0.00    +0.000 N 
ATOM      2  C   UNL     1       5.736   4.675  18.578  0.00  0.00    +0.000 C 
ATOM      3  O   UNL     1       6.592   5.372  19.085  0.00  0.00    +0.000 OA
ATOM      4  N   UNL     1       5.549   3.342  18.868  0.00  0.00    +0.000 N 
ATOM      5  C   UNL     1       4.225   2.897  18.457  0.00  0.00    +0.000 C 
ATOM      6  C   UNL     1       4.299   1.507  17.843  0.00  0.00    +0.000 C 
ATOM      7  C   UNL     1       3.954   3.999  17.401  0.00  0.00    +0.000 C 
ATOM      8  O   UNL     1       3.078   3.992  16.547  0.00  0.00    +0.000 OA
ATOM      9  H   UNL     1       6.078   2.926  19.625  0.00  0.00    +0.000 HD
ENDROOT
BRANCH   5  10
ATOM     10  C   UNL     1       3.199   3.069  19.586  0.00  0.00    +0.000 A 
ATOM     11  C   UNL     1       1.928   3.638  19.362  0.00  0.00    +0.000 A 
ATOM     12  C   UNL     1       0.940   3.589  20.344  0.00  0.00    +0.000 A 
ATOM     13  F   UNL     1      -0.268   4.103  20.081  0.00  0.00    +0.000 F 
ATOM     14  C   UNL     1       1.180   2.994  21.572  0.00  0.00    +0.000 A 
ATOM     15  C   UNL     1       2.439   2.460  21.833  0.00  0.00    +0.000 A 
ATOM     16  C   UNL     1       3.431   2.504  20.850  0.00  0.00    +0.000 A 
ATOM     17  F   UNL     1       4.615   1.947  21.132  0.00  0.00    +0.000 F 
ENDBRANCH   5  10
BRANCH   1  18
ATOM     18  C   UNL     1       4.511   6.415  17.310  0.00  0.00    +0.000 C 
BRANCH  18  22
ATOM     19  C   UNL     1       1.965   8.042  19.213  0.00  0.00    +0.000 A 
ATOM     20  N   UNL     1       2.317   7.104  20.109  0.00  0.00    +0.000 NA
ATOM     21  O   UNL     1       3.323   6.382  19.454  0.00  0.00    +0.000 OA
ATOM     22  C   UNL     1       3.478   6.963  18.230  0.00  0.00    +0.000 A 
ATOM     23  N   UNL     1       2.643   7.948  18.019  0.00  0.00    +0.000 NA
BRANCH  19  28
ATOM     24  C   UNL     1       0.145  10.871  20.927  0.00  0.00    +0.000 A 
ATOM     25  C   UNL     1      -0.367  11.547  19.817  0.00  0.00    +0.000 A 
ATOM     26  C   UNL     1      -0.188  11.029  18.536  0.00  0.00    +0.000 A 
ATOM     27  C   UNL     1       0.526   9.848  18.360  0.00  0.00    +0.000 A 
ATOM     28  C   UNL     1       1.075   9.170  19.459  0.00  0.00    +0.000 A 
ATOM     29  C   UNL     1       0.849   9.672  20.746  0.00  0.00    +0.000 A 
BRANCH  24  31
ATOM     30  C   UNL     1      -0.921  10.636  23.035  0.00  0.00    +0.000 C 
ATOM     31  O   UNL     1       0.050  11.295  22.225  0.00  0.00    +0.000 OA
ENDBRANCH  24  31
ENDBRANCH  19  28
ENDBRANCH  18  22
ENDBRANCH   1  18
TORSDOF 5
ENDMDL
MODEL 4
REMARK VINA RESULT:      -9.0      4.041      7.835
REMARK  Name = 
REMARK  7 active torsions:
REMARK  status: ('A' for Active; 'I' for Inactive)
REMARK    1  A    between atoms: C_1  and  O_2
REMARK    2  A    between atoms: O_2  and  C_3
REMARK    3  A    between atoms: C_7  and  C_8
REMARK    4  A    between atoms: C_11  and  C_12
REMARK    5  A    between atoms: C_12  and  N_13
REMARK    6  A    between atoms: C_17  and  C_18
REMARK    7  A    between atoms: C_17  and  C_19
REMARK                            x       y       z     vdW  Elec       q    Type
REMARK                         _______ _______ _______ _____ _____    ______ ____
ROOT
ATOM      1  N   UNL     1       4.717   5.075  17.540  0.00  0.00    +0.000 N 
ATOM      2  C   UNL     1       5.708   4.721  18.400  0.00  0.00    +0.000 C 
ATOM      3  O   UNL     1       6.586   5.431  18.849  0.00  0.00    +0.000 OA
ATOM      4  N   UNL     1       5.530   3.398  18.739  0.00  0.00    +0.000 N 
ATOM      5  C   UNL     1       4.190   2.946  18.396  0.00  0.00    +0.000 C 
ATOM      6  C   UNL     1       4.236   1.536  17.824  0.00  0.00    +0.000 C 
ATOM      7  C   UNL     1       3.878   4.015  17.317  0.00  0.00    +0.000 C 
ATOM      8  O   UNL     1       2.969   3.984  16.501  0.00  0.00    +0.000 OA
ATOM      9  H   UNL     1       6.088   3.005  19.487  0.00  0.00    +0.000 HD
ENDROOT
BRANCH   5  10
ATOM     10  C   UNL     1       3.210   3.157  19.559  0.00  0.00    +0.000 A 
ATOM     11  C   UNL     1       1.971   3.808  19.387  0.00  0.00    +0.000 A 
ATOM     12  C   UNL     1       1.012   3.799  20.398  0.00  0.00    +0.000 A 
ATOM     13  F   UNL     1      -0.169   4.392  20.183  0.00  0.00    +0.000 F 
ATOM     14  C   UNL     1       1.250   3.164  21.606  0.00  0.00    +0.000 A 
ATOM     15  C   UNL     1       2.481   2.548  21.817  0.00  0.00    +0.000 A 
ATOM     16  C   UNL     1       3.444   2.551  20.804  0.00  0.00    +0.000 A 
ATOM     17  F   UNL     1       4.599   1.917  21.038  0.00  0.00    +0.000 F 
ENDBRANCH   5  10
BRANCH   1  18
ATOM     18  C   UNL     1       4.437   6.425  17.128  0.00  0.00    +0.000 C 
BRANCH  18  22
ATOM     19  C   UNL     1       1.940   8.094  19.060  0.00  0.00    +0.000 A 
ATOM     20  N   UNL     1       2.399   7.257  20.005  0.00  0.00    +0.000 NA
ATOM     21  O   UNL     1       3.396   6.527  19.345  0.00  0.00    +0.000 OA
ATOM     22  C   UNL     1       3.439   7.003  18.068  0.00  0.00    +0.000 A 
ATOM     23  N   UNL     1       2.541   7.926  17.833  0.00  0.00    +0.000 NA
BRANCH  19  28
ATOM     24  C   UNL     1      -0.798  10.635  18.513  0.00  0.00    +0.000 A 
ATOM     25  C   UNL     1      -0.998  11.072  19.824  0.00  0.00    +0.000 A 
ATOM     26  C   UNL     1      -0.186  10.600  20.853  0.00  0.00    +0.000 A 
ATOM     27  C   UNL     1       0.812   9.670  20.577  0.00  0.00    +0.000 A 
ATOM     28  C   UNL     1       1.010   9.196  19.271  0.00  0.00    +0.000 A 
ATOM     29  C   UNL     1       0.221   9.713  18.236  0.00  0.00    +0.000 A 
BRANCH  24  31
ATOM     30  C   UNL     1      -2.352   9.999  16.835  0.00  0.00    +0.000 C 
ATOM     31  O   UNL     1      -1.546  11.013  17.430  0.00  0.00    +0.000 OA
ENDBRANCH  24  31
ENDBRANCH  19  28
ENDBRANCH  18  22
ENDBRANCH   1  18
TORSDOF 5
ENDMDL
MODEL 5
REMARK VINA RESULT:      -8.8      4.571      9.441
REMARK  Name = 
REMARK  7 active torsions:
REMARK  status: ('A' for Active; 'I' for Inactive)
REMARK    1  A    between atoms: C_1  and  O_2
REMARK    2  A    between atoms: O_2  and  C_3
REMARK    3  A    between atoms: C_7  and  C_8
REMARK    4  A    between atoms: C_11  and  C_12
REMARK    5  A    between atoms: C_12  and  N_13
REMARK    6  A    between atoms: C_17  and  C_18
REMARK    7  A    between atoms: C_17  and  C_19
REMARK                            x       y       z     vdW  Elec       q    Type
REMARK                         _______ _______ _______ _____ _____    ______ ____
ROOT
ATOM      1  N   UNL     1       3.011   5.812  18.353  0.00  0.00    +0.000 N 
ATOM      2  C   UNL     1       2.314   4.764  17.840  0.00  0.00    +0.000 C 
ATOM      3  O   UNL     1       1.246   4.798  17.262  0.00  0.00    +0.000 OA
ATOM      4  N   UNL     1       3.054   3.620  18.037  0.00  0.00    +0.000 N 
ATOM      5  C   UNL     1       4.437   3.939  18.356  0.00  0.00    +0.000 C 
ATOM      6  C   UNL     1       4.959   3.011  19.444  0.00  0.00    +0.000 C 
ATOM      7  C   UNL     1       4.204   5.384  18.870  0.00  0.00    +0.000 C 
ATOM      8  O   UNL     1       4.993   6.068  19.507  0.00  0.00    +0.000 OA
ATOM      9  H   UNL     1       2.759   2.762  17.586  0.00  0.00    +0.000 HD
ENDROOT
BRANCH   5  10
ATOM     10  C   UNL     1       5.302   4.027  17.090  0.00  0.00    +0.000 A 
ATOM     11  C   UNL     1       4.756   3.881  15.798  0.00  0.00    +0.000 A 
ATOM     12  C   UNL     1       5.512   4.175  14.665  0.00  0.00    +0.000 A 
ATOM     13  F   UNL     1       4.947   4.065  13.457  0.00  0.00    +0.000 F 
ATOM     14  C   UNL     1       6.825   4.606  14.772  0.00  0.00    +0.000 A 
ATOM     15  C   UNL     1       7.400   4.720  16.035  0.00  0.00    +0.000 A 
ATOM     16  C   UNL     1       6.644   4.430  17.173  0.00  0.00    +0.000 A 
ATOM     17  F   UNL     1       7.228   4.587  18.368  0.00  0.00    +0.000 F 
ENDBRANCH   5  10
BRANCH   1  18
ATOM     18  C   UNL     1       2.669   7.195  18.153  0.00  0.00    +0.000 C 
BRANCH  18  22
ATOM     19  C   UNL     1       0.909   8.744  20.846  0.00  0.00    +0.000 A 
ATOM     20  N   UNL     1       1.139   7.550  21.417  0.00  0.00    +0.000 NA
ATOM     21  O   UNL     1       1.829   6.837  20.427  0.00  0.00    +0.000 OA
ATOM     22  C   UNL     1       1.948   7.679  19.361  0.00  0.00    +0.000 A 
ATOM     23  N   UNL     1       1.364   8.835  19.550  0.00  0.00    +0.000 NA
BRANCH  19  28
ATOM     24  C   UNL     1      -0.083  12.311  21.585  0.00  0.00    +0.000 A 
ATOM     25  C   UNL     1      -0.971  12.109  22.643  0.00  0.00    +0.000 A 
ATOM     26  C   UNL     1      -1.171  10.829  23.157  0.00  0.00    +0.000 A 
ATOM     27  C   UNL     1      -0.501   9.746  22.597  0.00  0.00    +0.000 A 
ATOM     28  C   UNL     1       0.373   9.924  21.514  0.00  0.00    +0.000 A 
ATOM     29  C   UNL     1       0.603  11.219  21.036  0.00  0.00    +0.000 A 
BRANCH  24  31
ATOM     30  C   UNL     1       1.533  13.947  20.995  0.00  0.00    +0.000 C 
ATOM     31  O   UNL     1       0.175  13.516  20.987  0.00  0.00    +0.000 OA
ENDBRANCH  24  31
ENDBRANCH  19  28
ENDBRANCH  18  22
ENDBRANCH   1  18
TORSDOF 5
ENDMDL
MODEL 6
REMARK VINA RESULT:      -8.7      4.793      9.509
REMARK  Name = 
REMARK  7 active torsions:
REMARK  status: ('A' for Active; 'I' for Inactive)
REMARK    1  A    between atoms: C_1  and  O_2
REMARK    2  A    between atoms: O_2  and  C_3
REMARK    3  A    between atoms: C_7  and  C_8
REMARK    4  A    between atoms: C_11  and  C_12
REMARK    5  A    between atoms: C_12  and  N_13
REMARK    6  A    between atoms: C_17  and  C_18
REMARK    7  A    between atoms: C_17  and  C_19
REMARK                            x       y       z     vdW  Elec       q    Type
REMARK                         _______ _______ _______ _____ _____    ______ ____
ROOT
ATOM      1  N   UNL     1       3.141   5.977  18.506  0.00  0.00    +0.000 N 
ATOM      2  C   UNL     1       2.359   5.014  17.951  0.00  0.00    +0.000 C 
ATOM      3  O   UNL     1       1.299   5.163  17.375  0.00  0.00    +0.000 OA
ATOM      4  N   UNL     1       2.997   3.803  18.101  0.00  0.00    +0.000 N 
ATOM      5  C   UNL     1       4.402   3.990  18.432  0.00  0.00    +0.000 C 
ATOM      6  C   UNL     1       4.839   2.977  19.481  0.00  0.00    +0.000 C 
ATOM      7  C   UNL     1       4.292   5.428  19.004  0.00  0.00    +0.000 C 
ATOM      8  O   UNL     1       5.134   6.015  19.668  0.00  0.00    +0.000 OA
ATOM      9  H   UNL     1       2.631   2.993  17.616  0.00  0.00    +0.000 HD
ENDROOT
BRANCH   5  10
ATOM     10  C   UNL     1       5.274   4.055  17.171  0.00  0.00    +0.000 A 
ATOM     11  C   UNL     1       4.729   3.941  15.875  0.00  0.00    +0.000 A 
ATOM     12  C   UNL     1       5.500   4.214  14.748  0.00  0.00    +0.000 A 
ATOM     13  F   UNL     1       4.937   4.136  13.536  0.00  0.00    +0.000 F 
ATOM     14  C   UNL     1       6.828   4.594  14.863  0.00  0.00    +0.000 A 
ATOM     15  C   UNL     1       7.402   4.675  16.129  0.00  0.00    +0.000 A 
ATOM     16  C   UNL     1       6.631   4.405  17.262  0.00  0.00    +0.000 A 
ATOM     17  F   UNL     1       7.215   4.529  18.460  0.00  0.00    +0.000 F 
ENDBRANCH   5  10
BRANCH   1  18
ATOM     18  C   UNL     1       2.920   7.391  18.362  0.00  0.00    +0.000 C 
BRANCH  18  22
ATOM     19  C   UNL     1       0.669   8.829  20.733  0.00  0.00    +0.000 A 
ATOM     20  N   UNL     1       0.939   7.683  21.381  0.00  0.00    +0.000 NA
ATOM     21  O   UNL     1       1.823   7.017  20.522  0.00  0.00    +0.000 OA
ATOM     22  C   UNL     1       1.999   7.833  19.444  0.00  0.00    +0.000 A 
ATOM     23  N   UNL     1       1.282   8.927  19.505  0.00  0.00    +0.000 NA
BRANCH  19  28
ATOM     24  C   UNL     1      -1.521  11.893  20.990  0.00  0.00    +0.000 A 
ATOM     25  C   UNL     1      -1.751  11.920  22.367  0.00  0.00    +0.000 A 
ATOM     26  C   UNL     1      -1.125  10.997  23.202  0.00  0.00    +0.000 A 
ATOM     27  C   UNL     1      -0.287  10.028  22.658  0.00  0.00    +0.000 A 
ATOM     28  C   UNL     1      -0.066   9.965  21.273  0.00  0.00    +0.000 A 
ATOM     29  C   UNL     1      -0.662  10.927  20.449  0.00  0.00    +0.000 A 
BRANCH  24  31
ATOM     30  C   UNL     1      -3.395  13.225  20.397  0.00  0.00    +0.000 C 
ATOM     31  O   UNL     1      -2.097  12.733  20.074  0.00  0.00    +0.000 OA
ENDBRANCH  24  31
ENDBRANCH  19  28
ENDBRANCH  18  22
ENDBRANCH   1  18
TORSDOF 5
ENDMDL
MODEL 7
REMARK VINA RESULT:      -8.7      4.472      8.927
REMARK  Name = 
REMARK  7 active torsions:
REMARK  status: ('A' for Active; 'I' for Inactive)
REMARK    1  A    between atoms: C_1  and  O_2
REMARK    2  A    between atoms: O_2  and  C_3
REMARK    3  A    between atoms: C_7  and  C_8
REMARK    4  A    between atoms: C_11  and  C_12
REMARK    5  A    between atoms: C_12  and  N_13
REMARK    6  A    between atoms: C_17  and  C_18
REMARK    7  A    between atoms: C_17  and  C_19
REMARK                            x       y       z     vdW  Elec       q    Type
REMARK                         _______ _______ _______ _____ _____    ______ ____
ROOT
ATOM      1  N   UNL     1       1.967   3.253  19.745  0.00  0.00    +0.000 N 
ATOM      2  C   UNL     1       1.538   3.252  18.456  0.00  0.00    +0.000 C 
ATOM      3  O   UNL     1       0.528   3.763  18.013  0.00  0.00    +0.000 OA
ATOM      4  N   UNL     1       2.480   2.604  17.690  0.00  0.00    +0.000 N 
ATOM      5  C   UNL     1       3.743   2.485  18.403  0.00  0.00    +0.000 C 
ATOM      6  C   UNL     1       4.366   1.118  18.156  0.00  0.00    +0.000 C 
ATOM      7  C   UNL     1       3.184   2.631  19.842  0.00  0.00    +0.000 C 
ATOM      8  O   UNL     1       3.769   2.366  20.883  0.00  0.00    +0.000 OA
ATOM      9  H   UNL     1       2.399   2.638  16.681  0.00  0.00    +0.000 HD
ENDROOT
BRANCH   5  10
ATOM     10  C   UNL     1       4.658   3.688  18.133  0.00  0.00    +0.000 A 
ATOM     11  C   UNL     1       5.469   4.254  19.139  0.00  0.00    +0.000 A 
ATOM     12  C   UNL     1       6.442   5.200  18.824  0.00  0.00    +0.000 A 
ATOM     13  F   UNL     1       7.222   5.684  19.799  0.00  0.00    +0.000 F 
ATOM     14  C   UNL     1       6.635   5.623  17.518  0.00  0.00    +0.000 A 
ATOM     15  C   UNL     1       5.820   5.110  16.512  0.00  0.00    +0.000 A 
ATOM     16  C   UNL     1       4.845   4.158  16.824  0.00  0.00    +0.000 A 
ATOM     17  F   UNL     1       4.109   3.667  15.819  0.00  0.00    +0.000 F 
ENDBRANCH   5  10
BRANCH   1  18
ATOM     18  C   UNL     1       1.365   4.015  20.806  0.00  0.00    +0.000 C 
BRANCH  18  22
ATOM     19  C   UNL     1       1.559   7.557  20.396  0.00  0.00    +0.000 A 
ATOM     20  N   UNL     1       2.578   7.206  19.593  0.00  0.00    +0.000 NA
ATOM     21  O   UNL     1       2.606   5.808  19.686  0.00  0.00    +0.000 OA
ATOM     22  C   UNL     1       1.596   5.459  20.533  0.00  0.00    +0.000 A 
ATOM     23  N   UNL     1       0.959   6.491  21.027  0.00  0.00    +0.000 NA
BRANCH  19  28
ATOM     24  C   UNL     1       0.046  10.691  21.859  0.00  0.00    +0.000 A 
ATOM     25  C   UNL     1       0.235  11.578  20.797  0.00  0.00    +0.000 A 
ATOM     26  C   UNL     1       0.772  11.128  19.593  0.00  0.00    +0.000 A 
ATOM     27  C   UNL     1       1.144   9.794  19.457  0.00  0.00    +0.000 A 
ATOM     28  C   UNL     1       0.990   8.893  20.521  0.00  0.00    +0.000 A 
ATOM     29  C   UNL     1       0.405   9.344  21.711  0.00  0.00    +0.000 A 
BRANCH  24  31
ATOM     30  C   UNL     1      -1.604  11.863  23.101  0.00  0.00    +0.000 C 
ATOM     31  O   UNL     1      -0.451  11.024  23.091  0.00  0.00    +0.000 OA
ENDBRANCH  24  31
ENDBRANCH  19  28
ENDBRANCH  18  22
ENDBRANCH   1  18
TORSDOF 5
ENDMDL
MODEL 8
REMARK VINA RESULT:      -8.6      4.000      8.055
REMARK  Name = 
REMARK  7 active torsions:
REMARK  status: ('A' for Active; 'I' for Inactive)
REMARK    1  A    between atoms: C_1  and  O_2
REMARK    2  A    between atoms: O_2  and  C_3
REMARK    3  A    between atoms: C_7  and  C_8
REMARK    4  A    between atoms: C_11  and  C_12
REMARK    5  A    between atoms: C_12  and  N_13
REMARK    6  A    between atoms: C_17  and  C_18
REMARK    7  A    between atoms: C_17  and  C_19
REMARK                            x       y       z     vdW  Elec       q    Type
REMARK                         _______ _______ _______ _____ _____    ______ ____
ROOT
ATOM      1  N   UNL     1       4.925   4.928  17.850  0.00  0.00    +0.000 N 
ATOM      2  C   UNL     1       5.711   4.505  18.875  0.00  0.00    +0.000 C 
ATOM      3  O   UNL     1       6.445   5.178  19.571  0.00  0.00    +0.000 OA
ATOM      4  N   UNL     1       5.504   3.154  19.045  0.00  0.00    +0.000 N 
ATOM      5  C   UNL     1       4.288   2.722  18.372  0.00  0.00    +0.000 C 
ATOM      6  C   UNL     1       4.504   1.374  17.700  0.00  0.00    +0.000 C 
ATOM      7  C   UNL     1       4.190   3.886  17.351  0.00  0.00    +0.000 C 
ATOM      8  O   UNL     1       3.486   3.923  16.353  0.00  0.00    +0.000 OA
ATOM      9  H   UNL     1       5.894   2.698  19.860  0.00  0.00    +0.000 HD
ENDROOT
BRANCH   5  10
ATOM     10  C   UNL     1       3.068   2.812  19.301  0.00  0.00    +0.000 A 
ATOM     11  C   UNL     1       3.190   3.133  20.669  0.00  0.00    +0.000 A 
ATOM     12  C   UNL     1       2.064   3.417  21.439  0.00  0.00    +0.000 A 
ATOM     13  F   UNL     1       2.221   3.759  22.724  0.00  0.00    +0.000 F 
ATOM     14  C   UNL     1       0.792   3.381  20.889  0.00  0.00    +0.000 A 
ATOM     15  C   UNL     1       0.642   3.028  19.551  0.00  0.00    +0.000 A 
ATOM     16  C   UNL     1       1.768   2.745  18.775  0.00  0.00    +0.000 A 
ATOM     17  F   UNL     1       1.579   2.444  17.484  0.00  0.00    +0.000 F 
ENDBRANCH   5  10
BRANCH   1  18
ATOM     18  C   UNL     1       4.701   6.308  17.510  0.00  0.00    +0.000 C 
BRANCH  18  22
ATOM     19  C   UNL     1       2.029   7.897  19.265  0.00  0.00    +0.000 A 
ATOM     20  N   UNL     1       2.191   6.832  20.068  0.00  0.00    +0.000 NA
ATOM     21  O   UNL     1       3.228   6.113  19.459  0.00  0.00    +0.000 OA
ATOM     22  C   UNL     1       3.589   6.823  18.352  0.00  0.00    +0.000 A 
ATOM     23  N   UNL     1       2.858   7.893  18.167  0.00  0.00    +0.000 NA
BRANCH  19  28
ATOM     24  C   UNL     1       0.156  10.620  21.090  0.00  0.00    +0.000 A 
ATOM     25  C   UNL     1      -0.127  11.483  20.028  0.00  0.00    +0.000 A 
ATOM     26  C   UNL     1       0.218  11.129  18.726  0.00  0.00    +0.000 A 
ATOM     27  C   UNL     1       0.869   9.923  18.485  0.00  0.00    +0.000 A 
ATOM     28  C   UNL     1       1.189   9.056  19.541  0.00  0.00    +0.000 A 
ATOM     29  C   UNL     1       0.796   9.399  20.840  0.00  0.00    +0.000 A 
BRANCH  24  31
ATOM     30  C   UNL     1      -0.218   9.734  23.260  0.00  0.00    +0.000 C 
ATOM     31  O   UNL     1      -0.116  10.872  22.408  0.00  0.00    +0.000 OA
ENDBRANCH  24  31
ENDBRANCH  19  28
ENDBRANCH  18  22
ENDBRANCH   1  18
TORSDOF 5
ENDMDL
MODEL 9
REMARK VINA RESULT:      -8.5      3.704      6.596
REMARK  Name = 
REMARK  7 active torsions:
REMARK  status: ('A' for Active; 'I' for Inactive)
REMARK    1  A    between atoms: C_1  and  O_2
REMARK    2  A    between atoms: O_2  and  C_3
REMARK    3  A    between atoms: C_7  and  C_8
REMARK    4  A    between atoms: C_11  and  C_12
REMARK    5  A    between atoms: C_12  and  N_13
REMARK    6  A    between atoms: C_17  and  C_18
REMARK    7  A    between atoms: C_17  and  C_19
REMARK                            x       y       z     vdW  Elec       q    Type
REMARK                         _______ _______ _______ _____ _____    ______ ____
ROOT
ATOM      1  N   UNL     1       3.883   2.990  18.020  0.00  0.00    +0.000 N 
ATOM      2  C   UNL     1       4.198   2.907  19.339  0.00  0.00    +0.000 C 
ATOM      3  O   UNL     1       5.285   2.663  19.826  0.00  0.00    +0.000 OA
ATOM      4  N   UNL     1       3.070   3.203  20.070  0.00  0.00    +0.000 N 
ATOM      5  C   UNL     1       2.067   3.858  19.242  0.00  0.00    +0.000 C 
ATOM      6  C   UNL     1       0.677   3.338  19.581  0.00  0.00    +0.000 C 
ATOM      7  C   UNL     1       2.571   3.352  17.865  0.00  0.00    +0.000 C 
ATOM      8  O   UNL     1       1.961   3.389  16.806  0.00  0.00    +0.000 OA
ATOM      9  H   UNL     1       3.154   3.336  21.070  0.00  0.00    +0.000 HD
ENDROOT
BRANCH   5  10
ATOM     10  C   UNL     1       2.227   5.384  19.266  0.00  0.00    +0.000 A 
ATOM     11  C   UNL     1       2.479   6.130  18.095  0.00  0.00    +0.000 A 
ATOM     12  C   UNL     1       2.409   7.521  18.105  0.00  0.00    +0.000 A 
ATOM     13  F   UNL     1       2.613   8.194  16.965  0.00  0.00    +0.000 F 
ATOM     14  C   UNL     1       2.101   8.215  19.265  0.00  0.00    +0.000 A 
ATOM     15  C   UNL     1       1.887   7.505  20.443  0.00  0.00    +0.000 A 
ATOM     16  C   UNL     1       1.954   6.110  20.437  0.00  0.00    +0.000 A 
ATOM     17  F   UNL     1       1.707   5.467  21.585  0.00  0.00    +0.000 F 
ENDBRANCH   5  10
BRANCH   1  18
ATOM     18  C   UNL     1       4.842   2.959  16.948  0.00  0.00    +0.000 C 
BRANCH  18  22
ATOM     19  C   UNL     1       6.489   6.127  16.941  0.00  0.00    +0.000 A 
ATOM     20  N   UNL     1       5.604   6.358  15.957  0.00  0.00    +0.000 NA
ATOM     21  O   UNL     1       4.895   5.154  15.860  0.00  0.00    +0.000 OA
ATOM     22  C   UNL     1       5.423   4.320  16.800  0.00  0.00    +0.000 A 
ATOM     23  N   UNL     1       6.426   4.851  17.453  0.00  0.00    +0.000 NA
BRANCH  19  28
ATOM     24  C   UNL     1       8.078   9.420  17.882  0.00  0.00    +0.000 A 
ATOM     25  C   UNL     1       8.787   9.037  19.023  0.00  0.00    +0.000 A 
ATOM     26  C   UNL     1       8.809   7.703  19.422  0.00  0.00    +0.000 A 
ATOM     27  C   UNL     1       8.101   6.751  18.694  0.00  0.00    +0.000 A 
ATOM     28  C   UNL     1       7.358   7.119  17.562  0.00  0.00    +0.000 A 
ATOM     29  C   UNL     1       7.381   8.455  17.142  0.00  0.00    +0.000 A 
BRANCH  24  31
ATOM     30  C   UNL     1       8.852  11.662  17.981  0.00  0.00    +0.000 C 
ATOM     31  O   UNL     1       7.968  10.701  17.410  0.00  0.00    +0.000 OA
ENDBRANCH  24  31
ENDBRANCH  19  28
ENDBRANCH  18  22
ENDBRANCH   1  18
TORSDOF 5
ENDMDL
