MODEL 1
REMARK VINA RESULT:      -8.4      0.000      0.000
REMARK  Name = 
REMARK  8 active torsions:
REMARK  status: ('A' for Active; 'I' for Inactive)
REMARK    1  A    between atoms: C_1  and  C_2
REMARK    2  A    between atoms: C_3  and  C_4
REMARK    3  A    between atoms: C_5  and  C_6
REMARK    4  A    between atoms: C_6  and  N_7
REMARK    5  A    between atoms: N_7  and  C_8
REMARK    6  A    between atoms: C_8  and  C_9
REMARK    7  A    between atoms: N_23  and  C_24
REMARK    8  A    between atoms: N_27  and  C_28
REMARK                            x       y       z     vdW  Elec       q    Type
REMARK                         _______ _______ _______ _____ _____    ______ ____
ROOT
ATOM      1  C   UNL     1       1.794   5.867  20.349  0.00  0.00    +0.000 C 
ENDROOT
BRANCH   1   3
ATOM      2  C   UNL     1       3.768   4.442  19.685  0.00  0.00    +0.000 C 
ATOM      3  C   UNL     1       2.472   5.105  19.199  0.00  0.00    +0.000 C 
ATOM      4  C   UNL     1       1.619   3.956  18.642  0.00  0.00    +0.000 C 
ATOM      5  C   UNL     1       2.230   2.713  19.217  0.00  0.00    +0.000 C 
ATOM      6  O   UNL     1       1.702   1.612  19.209  0.00  0.00    +0.000 OA
ATOM      7  N   UNL     1       3.479   3.025  19.712  0.00  0.00    +0.000 N 
ATOM      8  C   UNL     1       4.308   2.073  20.415  0.00  0.00    +0.000 C 
BRANCH   2  11
ATOM      9  C   UNL     1       4.415   3.915  16.414  0.00  0.00    +0.000 C 
ATOM     10  C   UNL     1       5.206   4.579  17.482  0.00  0.00    +0.000 A 
ATOM     11  C   UNL     1       4.944   4.793  18.829  0.00  0.00    +0.000 A 
ATOM     12  C   UNL     1       6.064   5.541  19.274  0.00  0.00    +0.000 A 
ATOM     13  N   UNL     1       6.973   5.733  18.324  0.00  0.00    +0.000 NA
ATOM     14  N   UNL     1       6.453   5.110  17.254  0.00  0.00    +0.000 N 
ATOM     15  C   UNL     1       7.238   5.020  16.044  0.00  0.00    +0.000 C 
ENDBRANCH   2  11
ENDBRANCH   1   3
BRANCH   1  16
ATOM     16  N   UNL     1       2.435   7.167  20.490  0.00  0.00    +0.000 NA
ATOM     17  H   UNL     1       3.384   7.123  20.115  0.00  0.00    +0.000 HD
BRANCH  16  18
ATOM     18  C   UNL     1       1.761   8.216  19.731  0.00  0.00    +0.000 C 
BRANCH  18  19
ATOM     19  C   UNL     1       0.894   9.001  20.691  0.00  0.00    +0.000 A 
ATOM     20  C   UNL     1       1.063   8.797  22.074  0.00  0.00    +0.000 A 
ATOM     21  C   UNL     1       0.352   9.564  22.985  0.00  0.00    +0.000 A 
ATOM     22  C   UNL     1      -0.511  10.542  22.514  0.00  0.00    +0.000 A 
ATOM     23  F   UNL     1      -1.181  11.287  23.406  0.00  0.00    +0.000 F 
ATOM     24  C   UNL     1      -0.670  10.787  21.141  0.00  0.00    +0.000 A 
ATOM     25  C   UNL     1      -1.501  11.810  20.662  0.00  0.00    +0.000 A 
ATOM     26  C   UNL     1      -1.598  12.047  19.298  0.00  0.00    +0.000 A 
ATOM     27  C   UNL     1      -0.861  11.243  18.452  0.00  0.00    +0.000 A 
ATOM     28  N   UNL     1      -0.060  10.241  18.877  0.00  0.00    +0.000 NA
ATOM     29  C   UNL     1       0.043  10.005  20.204  0.00  0.00    +0.000 A 
ENDBRANCH  18  19
ENDBRANCH  16  18
ENDBRANCH   1  16
TORSDOF 5
ENDMDL
MODEL 2
REMARK VINA RESULT:      -8.3      1.385      2.072
REMARK  Name = 
REMARK  8 active torsions:
REMARK  status: ('A' for Active; 'I' for Inactive)
REMARK    1  A    between atoms: C_1  and  C_2
REMARK    2  A    between atoms: C_3  and  C_4
REMARK    3  A    between atoms: C_5  and  C_6
REMARK    4  A    between atoms: C_6  and  N_7
REMARK    5  A    between atoms: N_7  and  C_8
REMARK    6  A    between atoms: C_8  and  C_9
REMARK    7  A    between atoms: N_23  and  C_24
REMARK    8  A    between atoms: N_27  and  C_28
REMARK                            x       y       z     vdW  Elec       q    Type
REMARK                         _______ _______ _______ _____ _____    ______ ____
ROOT
ATOM      1  C   UNL     1       1.970   5.919  20.440  0.00  0.00    +0.000 C 
ENDROOT
BRANCH   1   3
ATOM      2  C   UNL     1       3.866   4.458  19.642  0.00  0.00    +0.000 C 
ATOM      3  C   UNL     1       2.581   5.189  19.234  0.00  0.00    +0.000 C 
ATOM      4  C   UNL     1       1.668   4.100  18.652  0.00  0.00    +0.000 C 
ATOM      5  C   UNL     1       2.251   2.810  19.146  0.00  0.00    +0.000 C 
ATOM      6  O   UNL     1       1.681   1.731  19.104  0.00  0.00    +0.000 OA
ATOM      7  N   UNL     1       3.526   3.053  19.612  0.00  0.00    +0.000 N 
ATOM      8  C   UNL     1       4.342   2.038  20.240  0.00  0.00    +0.000 C 
BRANCH   2  11
ATOM      9  C   UNL     1       4.427   3.978  16.348  0.00  0.00    +0.000 C 
ATOM     10  C   UNL     1       5.252   4.613  17.407  0.00  0.00    +0.000 A 
ATOM     11  C   UNL     1       5.026   4.808  18.763  0.00  0.00    +0.000 A 
ATOM     12  C   UNL     1       6.167   5.533  19.194  0.00  0.00    +0.000 A 
ATOM     13  N   UNL     1       7.056   5.729  18.224  0.00  0.00    +0.000 NA
ATOM     14  N   UNL     1       6.501   5.131  17.157  0.00  0.00    +0.000 N 
ATOM     15  C   UNL     1       7.255   5.052  15.927  0.00  0.00    +0.000 C 
ENDBRANCH   2  11
ENDBRANCH   1   3
BRANCH   1  16
ATOM     16  N   UNL     1       2.179   7.351  20.276  0.00  0.00    +0.000 NA
ATOM     17  H   UNL     1       1.851   7.641  19.353  0.00  0.00    +0.000 HD
BRANCH  16  18
ATOM     18  C   UNL     1       1.414   8.147  21.232  0.00  0.00    +0.000 C 
BRANCH  18  19
ATOM     19  C   UNL     1       0.827   9.327  20.489  0.00  0.00    +0.000 A 
ATOM     20  C   UNL     1       1.056   9.434  19.104  0.00  0.00    +0.000 A 
ATOM     21  C   UNL     1       0.458  10.451  18.373  0.00  0.00    +0.000 A 
ATOM     22  C   UNL     1      -0.379  11.345  19.024  0.00  0.00    +0.000 A 
ATOM     23  F   UNL     1      -0.962  12.314  18.303  0.00  0.00    +0.000 F 
ATOM     24  C   UNL     1      -0.649  11.237  20.397  0.00  0.00    +0.000 A 
ATOM     25  C   UNL     1      -1.537  12.107  21.049  0.00  0.00    +0.000 A 
ATOM     26  C   UNL     1      -1.809  11.941  22.398  0.00  0.00    +0.000 A 
ATOM     27  C   UNL     1      -1.177  10.908  23.059  0.00  0.00    +0.000 A 
ATOM     28  N   UNL     1      -0.307  10.058  22.468  0.00  0.00    +0.000 NA
ATOM     29  C   UNL     1      -0.038  10.211  21.152  0.00  0.00    +0.000 A 
ENDBRANCH  18  19
ENDBRANCH  16  18
ENDBRANCH   1  16
TORSDOF 5
ENDMDL
MODEL 3
REMARK VINA RESULT:      -8.3      0.925      1.338
REMARK  Name = 
REMARK  8 active torsions:
REMARK  status: ('A' for Active; 'I' for Inactive)
REMARK    1  A    between atoms: C_1  and  C_2
REMARK    2  A    between atoms: C_3  and  C_4
REMARK    3  A    between atoms: C_5  and  C_6
REMARK    4  A    between atoms: C_6  and  N_7
REMARK    5  A    between atoms: N_7  and  C_8
REMARK    6  A    between atoms: C_8  and  C_9
REMARK    7  A    between atoms: N_23  and  C_24
REMARK    8  A    between atoms: N_27  and  C_28
REMARK                            x       y       z     vdW  Elec       q    Type
REMARK                         _______ _______ _______ _____ _____    ______ ____
ROOT
ATOM      1  C   UNL     1       1.534   5.808  20.509  0.00  0.00    +0.000 C 
ENDROOT
BRANCH   1   3
ATOM      2  C   UNL     1       3.606   4.915  19.379  0.00  0.00    +0.000 C 
ATOM      3  C   UNL     1       2.157   5.376  19.173  0.00  0.00    +0.000 C 
ATOM      4  C   UNL     1       1.444   4.180  18.525  0.00  0.00    +0.000 C 
ATOM      5  C   UNL     1       2.341   3.008  18.797  0.00  0.00    +0.000 C 
ATOM      6  O   UNL     1       2.016   1.840  18.658  0.00  0.00    +0.000 OA
ATOM      7  N   UNL     1       3.575   3.481  19.190  0.00  0.00    +0.000 N 
ATOM      8  C   UNL     1       4.652   2.615  19.613  0.00  0.00    +0.000 C 
BRANCH   2  11
ATOM      9  C   UNL     1       6.936   5.434  19.573  0.00  0.00    +0.000 C 
ATOM     10  C   UNL     1       5.935   5.823  18.547  0.00  0.00    +0.000 A 
ATOM     11  C   UNL     1       4.564   5.614  18.467  0.00  0.00    +0.000 A 
ATOM     12  C   UNL     1       4.212   6.171  17.211  0.00  0.00    +0.000 A 
ATOM     13  N   UNL     1       5.242   6.728  16.581  0.00  0.00    +0.000 NA
ATOM     14  N   UNL     1       6.270   6.540  17.424  0.00  0.00    +0.000 N 
ATOM     15  C   UNL     1       7.553   7.126  17.107  0.00  0.00    +0.000 C 
ENDBRANCH   2  11
ENDBRANCH   1   3
BRANCH   1  16
ATOM     16  N   UNL     1       2.056   7.120  20.866  0.00  0.00    +0.000 NA
ATOM     17  H   UNL     1       3.066   7.139  20.717  0.00  0.00    +0.000 HD
BRANCH  16  18
ATOM     18  C   UNL     1       1.517   8.190  20.032  0.00  0.00    +0.000 C 
BRANCH  18  19
ATOM     19  C   UNL     1       0.634   9.057  20.903  0.00  0.00    +0.000 A 
ATOM     20  C   UNL     1       0.686   8.886  22.300  0.00  0.00    +0.000 A 
ATOM     21  C   UNL     1      -0.039   9.725  23.134  0.00  0.00    +0.000 A 
ATOM     22  C   UNL     1      -0.798  10.740  22.573  0.00  0.00    +0.000 A 
ATOM     23  F   UNL     1      -1.483  11.553  23.392  0.00  0.00    +0.000 F 
ATOM     24  C   UNL     1      -0.839  10.952  21.186  0.00  0.00    +0.000 A 
ATOM     25  C   UNL     1      -1.563  12.011  20.618  0.00  0.00    +0.000 A 
ATOM     26  C   UNL     1      -1.543  12.210  19.246  0.00  0.00    +0.000 A 
ATOM     27  C   UNL     1      -0.799  11.336  18.480  0.00  0.00    +0.000 A 
ATOM     28  N   UNL     1      -0.100  10.299  18.990  0.00  0.00    +0.000 NA
ATOM     29  C   UNL     1      -0.111  10.098  20.326  0.00  0.00    +0.000 A 
ENDBRANCH  18  19
ENDBRANCH  16  18
ENDBRANCH   1  16
TORSDOF 5
ENDMDL
MODEL 4
REMARK VINA RESULT:      -8.3      3.820      8.766
REMARK  Name = 
REMARK  8 active torsions:
REMARK  status: ('A' for Active; 'I' for Inactive)
REMARK    1  A    between atoms: C_1  and  C_2
REMARK    2  A    between atoms: C_3  and  C_4
REMARK    3  A    between atoms: C_5  and  C_6
REMARK    4  A    between atoms: C_6  and  N_7
REMARK    5  A    between atoms: N_7  and  C_8
REMARK    6  A    between atoms: C_8  and  C_9
REMARK    7  A    between atoms: N_23  and  C_24
REMARK    8  A    between atoms: N_27  and  C_28
REMARK                            x       y       z     vdW  Elec       q    Type
REMARK                         _______ _______ _______ _____ _____    ______ ____
ROOT
ATOM      1  C   UNL     1       0.893   9.059  20.524  0.00  0.00    +0.000 C 
ENDROOT
BRANCH   1   3
ATOM      2  C   UNL     1      -0.296  10.869  19.228  0.00  0.00    +0.000 C 
ATOM      3  C   UNL     1       0.525   9.576  19.125  0.00  0.00    +0.000 C 
ATOM      4  C   UNL     1       1.746   9.945  18.270  0.00  0.00    +0.000 C 
ATOM      5  C   UNL     1       1.801  11.443  18.308  0.00  0.00    +0.000 C 
ATOM      6  O   UNL     1       2.759  12.111  17.953  0.00  0.00    +0.000 OA
ATOM      7  N   UNL     1       0.592  11.916  18.772  0.00  0.00    +0.000 N 
ATOM      8  C   UNL     1       0.335  13.318  19.014  0.00  0.00    +0.000 C 
BRANCH   2  11
ATOM      9  C   UNL     1      -3.264  12.426  19.627  0.00  0.00    +0.000 C 
ATOM     10  C   UNL     1      -2.794  11.442  18.619  0.00  0.00    +0.000 A 
ATOM     11  C   UNL     1      -1.575  10.796  18.456  0.00  0.00    +0.000 A 
ATOM     12  C   UNL     1      -1.752  10.040  17.269  0.00  0.00    +0.000 A 
ATOM     13  N   UNL     1      -2.976  10.147  16.761  0.00  0.00    +0.000 NA
ATOM     14  N   UNL     1      -3.605  10.971  17.614  0.00  0.00    +0.000 N 
ATOM     15  C   UNL     1      -5.015  11.229  17.430  0.00  0.00    +0.000 C 
ENDBRANCH   2  11
ENDBRANCH   1   3
BRANCH   1  16
ATOM     16  N   UNL     1       2.055   8.188  20.411  0.00  0.00    +0.000 NA
ATOM     17  H   UNL     1       2.711   8.393  21.167  0.00  0.00    +0.000 HD
BRANCH  16  18
ATOM     18  C   UNL     1       1.719   6.775  20.555  0.00  0.00    +0.000 C 
BRANCH  18  19
ATOM     19  C   UNL     1       2.312   6.034  19.377  0.00  0.00    +0.000 A 
ATOM     20  C   UNL     1       3.302   6.673  18.607  0.00  0.00    +0.000 A 
ATOM     21  C   UNL     1       3.934   5.992  17.577  0.00  0.00    +0.000 A 
ATOM     22  C   UNL     1       3.588   4.672  17.331  0.00  0.00    +0.000 A 
ATOM     23  F   UNL     1       4.217   4.020  16.341  0.00  0.00    +0.000 F 
ATOM     24  C   UNL     1       2.629   4.004  18.107  0.00  0.00    +0.000 A 
ATOM     25  C   UNL     1       2.314   2.652  17.896  0.00  0.00    +0.000 A 
ATOM     26  C   UNL     1       1.391   2.017  18.712  0.00  0.00    +0.000 A 
ATOM     27  C   UNL     1       0.803   2.758  19.717  0.00  0.00    +0.000 A 
ATOM     28  N   UNL     1       1.071   4.064  19.942  0.00  0.00    +0.000 NA
ATOM     29  C   UNL     1       1.973   4.691  19.153  0.00  0.00    +0.000 A 
ENDBRANCH  18  19
ENDBRANCH  16  18
ENDBRANCH   1  16
TORSDOF 5
ENDMDL
MODEL 5
REMARK VINA RESULT:      -8.1      1.022      1.040
REMARK  Name = 
REMARK  8 active torsions:
REMARK  status: ('A' for Active; 'I' for Inactive)
REMARK    1  A    between atoms: C_1  and  C_2
REMARK    2  A    between atoms: C_3  and  C_4
REMARK    3  A    between atoms: C_5  and  C_6
REMARK    4  A    between atoms: C_6  and  N_7
REMARK    5  A    between atoms: N_7  and  C_8
REMARK    6  A    between atoms: C_8  and  C_9
REMARK    7  A    between atoms: N_23  and  C_24
REMARK    8  A    between atoms: N_27  and  C_28
REMARK                            x       y       z     vdW  Elec       q    Type
REMARK                         _______ _______ _______ _____ _____    ______ ____
ROOT
ATOM      1  C   UNL     1       1.728   5.932  20.319  0.00  0.00    +0.000 C 
ENDROOT
BRANCH   1   3
ATOM      2  C   UNL     1       3.785   4.771  19.432  0.00  0.00    +0.000 C 
ATOM      3  C   UNL     1       2.567   5.631  19.068  0.00  0.00    +0.000 C 
ATOM      4  C   UNL     1       1.809   4.822  18.005  0.00  0.00    +0.000 C 
ATOM      5  C   UNL     1       2.340   3.425  18.137  0.00  0.00    +0.000 C 
ATOM      6  O   UNL     1       1.825   2.437  17.639  0.00  0.00    +0.000 OA
ATOM      7  N   UNL     1       3.504   3.466  18.877  0.00  0.00    +0.000 N 
ATOM      8  C   UNL     1       4.231   2.278  19.266  0.00  0.00    +0.000 C 
BRANCH   2  11
ATOM      9  C   UNL     1       4.486   6.787  16.816  0.00  0.00    +0.000 C 
ATOM     10  C   UNL     1       5.354   6.195  17.867  0.00  0.00    +0.000 A 
ATOM     11  C   UNL     1       5.069   5.362  18.941  0.00  0.00    +0.000 A 
ATOM     12  C   UNL     1       6.319   5.219  19.595  0.00  0.00    +0.000 A 
ATOM     13  N   UNL     1       7.310   5.847  18.970  0.00  0.00    +0.000 NA
ATOM     14  N   UNL     1       6.712   6.402  17.903  0.00  0.00    +0.000 N 
ATOM     15  C   UNL     1       7.523   7.085  16.922  0.00  0.00    +0.000 C 
ENDBRANCH   2  11
ENDBRANCH   1   3
BRANCH   1  16
ATOM     16  N   UNL     1       2.093   7.250  20.820  0.00  0.00    +0.000 NA
ATOM     17  H   UNL     1       3.107   7.364  20.779  0.00  0.00    +0.000 HD
BRANCH  16  18
ATOM     18  C   UNL     1       1.544   8.335  20.012  0.00  0.00    +0.000 C 
BRANCH  18  19
ATOM     19  C   UNL     1       0.632   9.157  20.896  0.00  0.00    +0.000 A 
ATOM     20  C   UNL     1       0.657   8.934  22.286  0.00  0.00    +0.000 A 
ATOM     21  C   UNL     1      -0.095   9.731  23.136  0.00  0.00    +0.000 A 
ATOM     22  C   UNL     1      -0.857  10.757  22.598  0.00  0.00    +0.000 A 
ATOM     23  F   UNL     1      -1.569  11.529  23.433  0.00  0.00    +0.000 F 
ATOM     24  C   UNL     1      -0.871  11.021  21.220  0.00  0.00    +0.000 A 
ATOM     25  C   UNL     1      -1.598  12.092  20.677  0.00  0.00    +0.000 A 
ATOM     26  C   UNL     1      -1.553  12.344  19.314  0.00  0.00    +0.000 A 
ATOM     27  C   UNL     1      -0.782  11.509  18.531  0.00  0.00    +0.000 A 
ATOM     28  N   UNL     1      -0.079  10.461  19.016  0.00  0.00    +0.000 NA
ATOM     29  C   UNL     1      -0.115  10.210  20.344  0.00  0.00    +0.000 A 
ENDBRANCH  18  19
ENDBRANCH  16  18
ENDBRANCH   1  16
TORSDOF 5
ENDMDL
MODEL 6
REMARK VINA RESULT:      -8.0      1.321      2.089
REMARK  Name = 
REMARK  8 active torsions:
REMARK  status: ('A' for Active; 'I' for Inactive)
REMARK    1  A    between atoms: C_1  and  C_2
REMARK    2  A    between atoms: C_3  and  C_4
REMARK    3  A    between atoms: C_5  and  C_6
REMARK    4  A    between atoms: C_6  and  N_7
REMARK    5  A    between atoms: N_7  and  C_8
REMARK    6  A    between atoms: C_8  and  C_9
REMARK    7  A    between atoms: N_23  and  C_24
REMARK    8  A    between atoms: N_27  and  C_28
REMARK                            x       y       z     vdW  Elec       q    Type
REMARK                         _______ _______ _______ _____ _____    ______ ____
ROOT
ATOM      1  C   UNL     1       2.048   6.074  20.306  0.00  0.00    +0.000 C 
ENDROOT
BRANCH   1   3
ATOM      2  C   UNL     1       3.901   4.509  19.608  0.00  0.00    +0.000 C 
ATOM      3  C   UNL     1       2.652   5.270  19.144  0.00  0.00    +0.000 C 
ATOM      4  C   UNL     1       1.708   4.192  18.592  0.00  0.00    +0.000 C 
ATOM      5  C   UNL     1       2.232   2.903  19.152  0.00  0.00    +0.000 C 
ATOM      6  O   UNL     1       1.623   1.845  19.146  0.00  0.00    +0.000 OA
ATOM      7  N   UNL     1       3.507   3.118  19.632  0.00  0.00    +0.000 N 
ATOM      8  C   UNL     1       4.273   2.101  20.318  0.00  0.00    +0.000 C 
BRANCH   2  11
ATOM      9  C   UNL     1       4.467   3.950  16.327  0.00  0.00    +0.000 C 
ATOM     10  C   UNL     1       5.317   4.550  17.387  0.00  0.00    +0.000 A 
ATOM     11  C   UNL     1       5.089   4.776  18.738  0.00  0.00    +0.000 A 
ATOM     12  C   UNL     1       6.266   5.438  19.171  0.00  0.00    +0.000 A 
ATOM     13  N   UNL     1       7.175   5.567  18.210  0.00  0.00    +0.000 NA
ATOM     14  N   UNL     1       6.597   4.988  17.144  0.00  0.00    +0.000 N 
ATOM     15  C   UNL     1       7.358   4.847  15.924  0.00  0.00    +0.000 C 
ENDBRANCH   2  11
ENDBRANCH   1   3
BRANCH   1  16
ATOM     16  N   UNL     1       2.333   7.486  20.096  0.00  0.00    +0.000 NA
ATOM     17  H   UNL     1       3.292   7.596  19.761  0.00  0.00    +0.000 HD
BRANCH  16  18
ATOM     18  C   UNL     1       1.487   8.087  19.068  0.00  0.00    +0.000 C 
BRANCH  18  19
ATOM     19  C   UNL     1       1.243   9.530  19.453  0.00  0.00    +0.000 A 
ATOM     20  C   UNL     1       1.580  10.540  18.532  0.00  0.00    +0.000 A 
ATOM     21  C   UNL     1       1.286  11.867  18.812  0.00  0.00    +0.000 A 
ATOM     22  C   UNL     1       0.642  12.178  20.000  0.00  0.00    +0.000 A 
ATOM     23  F   UNL     1       0.351  13.463  20.252  0.00  0.00    +0.000 F 
ATOM     24  C   UNL     1       0.267  11.185  20.918  0.00  0.00    +0.000 A 
ATOM     25  C   UNL     1      -0.432  11.489  22.096  0.00  0.00    +0.000 A 
ATOM     26  C   UNL     1      -0.822  10.474  22.956  0.00  0.00    +0.000 A 
ATOM     27  C   UNL     1      -0.495   9.178  22.612  0.00  0.00    +0.000 A 
ATOM     28  N   UNL     1       0.187   8.848  21.493  0.00  0.00    +0.000 NA
ATOM     29  C   UNL     1       0.569   9.831  20.647  0.00  0.00    +0.000 A 
ENDBRANCH  18  19
ENDBRANCH  16  18
ENDBRANCH   1  16
TORSDOF 5
ENDMDL
MODEL 7
REMARK VINA RESULT:      -8.0      2.228      4.225
REMARK  Name = 
REMARK  8 active torsions:
REMARK  status: ('A' for Active; 'I' for Inactive)
REMARK    1  A    between atoms: C_1  and  C_2
REMARK    2  A    between atoms: C_3  and  C_4
REMARK    3  A    between atoms: C_5  and  C_6
REMARK    4  A    between atoms: C_6  and  N_7
REMARK    5  A    between atoms: N_7  and  C_8
REMARK    6  A    between atoms: C_8  and  C_9
REMARK    7  A    between atoms: N_23  and  C_24
REMARK    8  A    between atoms: N_27  and  C_28
REMARK                            x       y       z     vdW  Elec       q    Type
REMARK                         _______ _______ _______ _____ _____    ______ ____
ROOT
ATOM      1  C   UNL     1       4.663   7.235  17.784  0.00  0.00    +0.000 C 
ENDROOT
BRANCH   1   3
ATOM      2  C   UNL     1       4.521   4.787  17.189  0.00  0.00    +0.000 C 
ATOM      3  C   UNL     1       4.950   5.801  18.257  0.00  0.00    +0.000 C 
ATOM      4  C   UNL     1       6.442   5.525  18.496  0.00  0.00    +0.000 C 
ATOM      5  C   UNL     1       6.879   4.729  17.302  0.00  0.00    +0.000 C 
ATOM      6  O   UNL     1       8.042   4.519  16.996  0.00  0.00    +0.000 OA
ATOM      7  N   UNL     1       5.756   4.262  16.651  0.00  0.00    +0.000 N 
ATOM      8  C   UNL     1       5.816   3.527  15.407  0.00  0.00    +0.000 C 
BRANCH   2  11
ATOM      9  C   UNL     1       1.160   4.615  17.458  0.00  0.00    +0.000 C 
ATOM     10  C   UNL     1       2.231   3.660  17.842  0.00  0.00    +0.000 A 
ATOM     11  C   UNL     1       3.614   3.730  17.737  0.00  0.00    +0.000 A 
ATOM     12  C   UNL     1       4.052   2.470  18.218  0.00  0.00    +0.000 A 
ATOM     13  N   UNL     1       3.055   1.699  18.641  0.00  0.00    +0.000 NA
ATOM     14  N   UNL     1       1.962   2.452  18.440  0.00  0.00    +0.000 N 
ATOM     15  C   UNL     1       0.680   1.964  18.896  0.00  0.00    +0.000 C 
ENDBRANCH   2  11
ENDBRANCH   1   3
BRANCH   1  16
ATOM     16  N   UNL     1       3.221   7.435  17.744  0.00  0.00    +0.000 NA
ATOM     17  H   UNL     1       2.778   6.641  17.278  0.00  0.00    +0.000 HD
BRANCH  16  18
ATOM     18  C   UNL     1       2.621   7.493  19.074  0.00  0.00    +0.000 C 
BRANCH  18  19
ATOM     19  C   UNL     1       1.605   8.614  19.076  0.00  0.00    +0.000 A 
ATOM     20  C   UNL     1       1.106   9.075  17.843  0.00  0.00    +0.000 A 
ATOM     21  C   UNL     1       0.106  10.036  17.809  0.00  0.00    +0.000 A 
ATOM     22  C   UNL     1      -0.403  10.520  19.005  0.00  0.00    +0.000 A 
ATOM     23  F   UNL     1      -1.379  11.439  18.958  0.00  0.00    +0.000 F 
ATOM     24  C   UNL     1       0.055  10.051  20.246  0.00  0.00    +0.000 A 
ATOM     25  C   UNL     1      -0.495  10.499  21.457  0.00  0.00    +0.000 A 
ATOM     26  C   UNL     1      -0.043   9.979  22.661  0.00  0.00    +0.000 A 
ATOM     27  C   UNL     1       0.953   9.026  22.616  0.00  0.00    +0.000 A 
ATOM     28  N   UNL     1       1.515   8.579  21.470  0.00  0.00    +0.000 NA
ATOM     29  C   UNL     1       1.079   9.079  20.292  0.00  0.00    +0.000 A 
ENDBRANCH  18  19
ENDBRANCH  16  18
ENDBRANCH   1  16
TORSDOF 5
ENDMDL
MODEL 8
REMARK VINA RESULT:      -8.0      3.540      8.755
REMARK  Name = 
REMARK  8 active torsions:
REMARK  status: ('A' for Active; 'I' for Inactive)
REMARK    1  A    between atoms: C_1  and  C_2
REMARK    2  A    between atoms: C_3  and  C_4
REMARK    3  A    between atoms: C_5  and  C_6
REMARK    4  A    between atoms: C_6  and  N_7
REMARK    5  A    between atoms: N_7  and  C_8
REMARK    6  A    between atoms: C_8  and  C_9
REMARK    7  A    between atoms: N_23  and  C_24
REMARK    8  A    between atoms: N_27  and  C_28
REMARK                            x       y       z     vdW  Elec       q    Type
REMARK                         _______ _______ _______ _____ _____    ______ ____
ROOT
ATOM      1  C   UNL     1       1.134   8.942  20.078  0.00  0.00    +0.000 C 
ENDROOT
BRANCH   1   3
ATOM      2  C   UNL     1      -0.171  10.936  19.250  0.00  0.00    +0.000 C 
ATOM      3  C   UNL     1       0.678   9.726  18.838  0.00  0.00    +0.000 C 
ATOM      4  C   UNL     1       1.840  10.312  18.023  0.00  0.00    +0.000 C 
ATOM      5  C   UNL     1       1.857  11.770  18.374  0.00  0.00    +0.000 C 
ATOM      6  O   UNL     1       2.776  12.533  18.124  0.00  0.00    +0.000 OA
ATOM      7  N   UNL     1       0.662  12.088  18.985  0.00  0.00    +0.000 N 
ATOM      8  C   UNL     1       0.381  13.398  19.529  0.00  0.00    +0.000 C 
BRANCH   2  11
ATOM      9  C   UNL     1      -3.062  12.531  19.954  0.00  0.00    +0.000 C 
ATOM     10  C   UNL     1      -2.675  11.640  18.831  0.00  0.00    +0.000 A 
ATOM     11  C   UNL     1      -1.488  10.979  18.542  0.00  0.00    +0.000 A 
ATOM     12  C   UNL     1      -1.748  10.352  17.296  0.00  0.00    +0.000 A 
ATOM     13  N   UNL     1      -2.990  10.545  16.865  0.00  0.00    +0.000 NA
ATOM     14  N   UNL     1      -3.549  11.297  17.827  0.00  0.00    +0.000 N 
ATOM     15  C   UNL     1      -4.957  11.613  17.743  0.00  0.00    +0.000 C 
ENDBRANCH   2  11
ENDBRANCH   1   3
BRANCH   1  16
ATOM     16  N   UNL     1       1.938   7.807  19.644  0.00  0.00    +0.000 NA
ATOM     17  H   UNL     1       2.881   8.125  19.412  0.00  0.00    +0.000 HD
BRANCH  16  18
ATOM     18  C   UNL     1       2.108   6.801  20.688  0.00  0.00    +0.000 C 
BRANCH  18  19
ATOM     19  C   UNL     1       2.055   5.439  20.033  0.00  0.00    +0.000 A 
ATOM     20  C   UNL     1       1.046   4.539  20.428  0.00  0.00    +0.000 A 
ATOM     21  C   UNL     1       0.909   3.317  19.786  0.00  0.00    +0.000 A 
ATOM     22  C   UNL     1       1.767   3.005  18.742  0.00  0.00    +0.000 A 
ATOM     23  F   UNL     1       1.615   1.826  18.120  0.00  0.00    +0.000 F 
ATOM     24  C   UNL     1       2.758   3.900  18.309  0.00  0.00    +0.000 A 
ATOM     25  C   UNL     1       3.593   3.610  17.219  0.00  0.00    +0.000 A 
ATOM     26  C   UNL     1       4.532   4.539  16.796  0.00  0.00    +0.000 A 
ATOM     27  C   UNL     1       4.611   5.733  17.483  0.00  0.00    +0.000 A 
ATOM     28  N   UNL     1       3.832   6.042  18.544  0.00  0.00    +0.000 NA
ATOM     29  C   UNL     1       2.912   5.143  18.962  0.00  0.00    +0.000 A 
ENDBRANCH  18  19
ENDBRANCH  16  18
ENDBRANCH   1  16
TORSDOF 5
ENDMDL
MODEL 9
REMARK VINA RESULT:      -8.0      2.028      3.530
REMARK  Name = 
REMARK  8 active torsions:
REMARK  status: ('A' for Active; 'I' for Inactive)
REMARK    1  A    between atoms: C_1  and  C_2
REMARK    2  A    between atoms: C_3  and  C_4
REMARK    3  A    between atoms: C_5  and  C_6
REMARK    4  A    between atoms: C_6  and  N_7
REMARK    5  A    between atoms: N_7  and  C_8
REMARK    6  A    between atoms: C_8  and  C_9
REMARK    7  A    between atoms: N_23  and  C_24
REMARK    8  A    between atoms: N_27  and  C_28
REMARK                            x       y       z     vdW  Elec       q    Type
REMARK                         _______ _______ _______ _____ _____    ______ ____
ROOT
ATOM      1  C   UNL     1       3.400   7.628  17.295  0.00  0.00    +0.000 C 
ENDROOT
BRANCH   1   3
ATOM      2  C   UNL     1       4.180   5.236  17.487  0.00  0.00    +0.000 C 
ATOM      3  C   UNL     1       4.401   6.676  17.968  0.00  0.00    +0.000 C 
ATOM      4  C   UNL     1       5.865   6.990  17.631  0.00  0.00    +0.000 C 
ATOM      5  C   UNL     1       6.257   5.952  16.623  0.00  0.00    +0.000 C 
ATOM      6  O   UNL     1       7.260   6.002  15.929  0.00  0.00    +0.000 OA
ATOM      7  N   UNL     1       5.318   4.941  16.645  0.00  0.00    +0.000 N 
ATOM      8  C   UNL     1       5.346   3.820  15.733  0.00  0.00    +0.000 C 
BRANCH   2  11
ATOM      9  C   UNL     1       1.560   4.558  19.506  0.00  0.00    +0.000 C 
ATOM     10  C   UNL     1       2.933   3.993  19.447  0.00  0.00    +0.000 A 
ATOM     11  C   UNL     1       4.013   4.273  18.621  0.00  0.00    +0.000 A 
ATOM     12  C   UNL     1       5.001   3.343  19.033  0.00  0.00    +0.000 A 
ATOM     13  N   UNL     1       4.612   2.588  20.055  0.00  0.00    +0.000 NA
ATOM     14  N   UNL     1       3.368   3.023  20.317  0.00  0.00    +0.000 N 
ATOM     15  C   UNL     1       2.665   2.489  21.461  0.00  0.00    +0.000 C 
ENDBRANCH   2  11
ENDBRANCH   1   3
BRANCH   1  16
ATOM     16  N   UNL     1       2.255   7.804  18.178  0.00  0.00    +0.000 NA
ATOM     17  H   UNL     1       2.530   7.597  19.139  0.00  0.00    +0.000 HD
BRANCH  16  18
ATOM     18  C   UNL     1       1.762   9.179  18.198  0.00  0.00    +0.000 C 
BRANCH  18  19
ATOM     19  C   UNL     1       1.012   9.384  19.495  0.00  0.00    +0.000 A 
ATOM     20  C   UNL     1       1.305   8.542  20.585  0.00  0.00    +0.000 A 
ATOM     21  C   UNL     1       0.704   8.759  21.816  0.00  0.00    +0.000 A 
ATOM     22  C   UNL     1      -0.172   9.825  21.960  0.00  0.00    +0.000 A 
ATOM     23  F   UNL     1      -0.734  10.032  23.160  0.00  0.00    +0.000 F 
ATOM     24  C   UNL     1      -0.452  10.697  20.898  0.00  0.00    +0.000 A 
ATOM     25  C   UNL     1      -1.297  11.808  21.053  0.00  0.00    +0.000 A 
ATOM     26  C   UNL     1      -1.515  12.670  19.989  0.00  0.00    +0.000 A 
ATOM     27  C   UNL     1      -0.883  12.391  18.795  0.00  0.00    +0.000 A 
ATOM     28  N   UNL     1      -0.074  11.325  18.604  0.00  0.00    +0.000 NA
ATOM     29  C   UNL     1       0.147  10.480  19.636  0.00  0.00    +0.000 A 
ENDBRANCH  18  19
ENDBRANCH  16  18
ENDBRANCH   1  16
TORSDOF 5
ENDMDL
