MODEL 1
REMARK VINA RESULT:      -8.6      0.000      0.000
REMARK  Name = 
REMARK  3 active torsions:
REMARK  status: ('A' for Active; 'I' for Inactive)
REMARK    1  A    between atoms: C_2  and  C_16
REMARK    2  A    between atoms: N_3  and  C_4
REMARK    3  A    between atoms: N_11  and  C_12
REMARK                            x       y       z     vdW  Elec       q    Type
REMARK                         _______ _______ _______ _____ _____    ______ ____
ROOT
ATOM      1  O   UNL     1       1.448   5.888  20.617  0.00  0.00    +0.000 OA
ATOM      2  C   UNL     1       2.162   6.628  19.944  0.00  0.00    +0.000 C 
ATOM      3  N   UNL     1       2.051   8.005  19.840  0.00  0.00    +0.000 N 
ATOM      4  H   UNL     1       2.529   8.449  19.057  0.00  0.00    +0.000 HD
ENDROOT
BRANCH   2   5
ATOM      5  C   UNL     1       3.243   5.968  19.106  0.00  0.00    +0.000 A 
ATOM      6  N   UNL     1       3.581   4.756  19.458  0.00  0.00    +0.000 NA
ATOM      7  N   UNL     1       4.486   4.056  18.727  0.00  0.00    +0.000 N 
ATOM      8  C   UNL     1       4.828   4.442  17.420  0.00  0.00    +0.000 A 
ATOM      9  C   UNL     1       5.516   3.562  16.578  0.00  0.00    +0.000 A 
ATOM     10  C   UNL     1       5.941   3.979  15.316  0.00  0.00    +0.000 A 
ATOM     11  C   UNL     1       5.713   5.292  14.895  0.00  0.00    +0.000 A 
ATOM     12  C   UNL     1       5.042   6.184  15.731  0.00  0.00    +0.000 A 
ATOM     13  C   UNL     1       4.598   5.746  16.982  0.00  0.00    +0.000 A 
ATOM     14  C   UNL     1       3.865   6.623  17.901  0.00  0.00    +0.000 A 
ATOM     15  O   UNL     1       3.727   7.825  17.729  0.00  0.00    +0.000 OA
ATOM     16  H   UNL     1       4.501   3.050  18.899  0.00  0.00    +0.000 HD
ENDBRANCH   2   5
BRANCH   3  17
ATOM     17  C   UNL     1       1.190   8.800  20.631  0.00  0.00    +0.000 A 
ATOM     18  C   UNL     1       1.191   8.734  22.033  0.00  0.00    +0.000 A 
ATOM     19  C   UNL     1       0.329   9.525  22.808  0.00  0.00    +0.000 A 
ATOM     20  C   UNL     1      -0.551  10.411  22.200  0.00  0.00    +0.000 A 
ATOM     21  C   UNL     1      -0.548  10.484  20.816  0.00  0.00    +0.000 A 
ATOM     22  C   UNL     1       0.308   9.699  20.041  0.00  0.00    +0.000 A 
ATOM     23  C   UNL     1       0.041   9.984  18.598  0.00  0.00    +0.000 C 
ATOM     24  N   UNL     1      -1.112  10.927  18.542  0.00  0.00    +0.000 NA
ATOM     25  C   UNL     1      -1.401  11.341  19.939  0.00  0.00    +0.000 C 
BRANCH  24  26
ATOM     26  C   UNL     1      -2.292  10.336  17.882  0.00  0.00    +0.000 C 
ATOM     27  C   UNL     1      -2.206   9.926  16.436  0.00  0.00    +0.000 C 
ATOM     28  C   UNL     1      -3.005  11.135  16.822  0.00  0.00    +0.000 C 
ENDBRANCH  24  26
ENDBRANCH   3  17
TORSDOF 3
ENDMDL
MODEL 2
REMARK VINA RESULT:      -8.2      2.021      8.171
REMARK  Name = 
REMARK  3 active torsions:
REMARK  status: ('A' for Active; 'I' for Inactive)
REMARK    1  A    between atoms: C_2  and  C_16
REMARK    2  A    between atoms: N_3  and  C_4
REMARK    3  A    between atoms: N_11  and  C_12
REMARK                            x       y       z     vdW  Elec       q    Type
REMARK                         _______ _______ _______ _____ _____    ______ ____
ROOT
ATOM      1  O   UNL     1       1.468   8.672  17.287  0.00  0.00    +0.000 OA
ATOM      2  C   UNL     1       1.806   8.673  18.468  0.00  0.00    +0.000 C 
ATOM      3  N   UNL     1       2.662   7.771  19.079  0.00  0.00    +0.000 N 
ATOM      4  H   UNL     1       2.643   7.734  20.098  0.00  0.00    +0.000 HD
ENDROOT
BRANCH   2   5
ATOM      5  C   UNL     1       1.191   9.738  19.360  0.00  0.00    +0.000 A 
ATOM      6  N   UNL     1       0.923  10.881  18.788  0.00  0.00    +0.000 NA
ATOM      7  N   UNL     1       0.306  11.870  19.484  0.00  0.00    +0.000 N 
ATOM      8  C   UNL     1      -0.363  11.608  20.692  0.00  0.00    +0.000 A 
ATOM      9  C   UNL     1      -1.239  12.553  21.237  0.00  0.00    +0.000 A 
ATOM     10  C   UNL     1      -1.826  12.335  22.483  0.00  0.00    +0.000 A 
ATOM     11  C   UNL     1      -1.519  11.185  23.215  0.00  0.00    +0.000 A 
ATOM     12  C   UNL     1      -0.635  10.242  22.691  0.00  0.00    +0.000 A 
ATOM     13  C   UNL     1      -0.073  10.460  21.429  0.00  0.00    +0.000 A 
ATOM     14  C   UNL     1       0.844   9.500  20.807  0.00  0.00    +0.000 A 
ATOM     15  O   UNL     1       1.314   8.532  21.389  0.00  0.00    +0.000 OA
ATOM     16  H   UNL     1      -0.101  12.614  18.916  0.00  0.00    +0.000 HD
ENDBRANCH   2   5
BRANCH   3  17
ATOM     17  C   UNL     1       3.417   6.794  18.392  0.00  0.00    +0.000 A 
ATOM     18  C   UNL     1       4.038   7.060  17.161  0.00  0.00    +0.000 A 
ATOM     19  C   UNL     1       4.782   6.081  16.485  0.00  0.00    +0.000 A 
ATOM     20  C   UNL     1       4.932   4.811  17.028  0.00  0.00    +0.000 A 
ATOM     21  C   UNL     1       4.327   4.549  18.246  0.00  0.00    +0.000 A 
ATOM     22  C   UNL     1       3.587   5.520  18.923  0.00  0.00    +0.000 A 
ATOM     23  C   UNL     1       3.040   4.916  20.177  0.00  0.00    +0.000 C 
ATOM     24  N   UNL     1       3.415   3.473  20.170  0.00  0.00    +0.000 NA
ATOM     25  C   UNL     1       4.334   3.270  19.019  0.00  0.00    +0.000 C 
BRANCH  24  26
ATOM     26  C   UNL     1       2.239   2.585  20.106  0.00  0.00    +0.000 C 
ATOM     27  C   UNL     1       0.859   3.183  20.058  0.00  0.00    +0.000 C 
ATOM     28  C   UNL     1       1.332   2.497  21.304  0.00  0.00    +0.000 C 
ENDBRANCH  24  26
ENDBRANCH   3  17
TORSDOF 3
ENDMDL
MODEL 3
REMARK VINA RESULT:      -8.2      2.184      7.989
REMARK  Name = 
REMARK  3 active torsions:
REMARK  status: ('A' for Active; 'I' for Inactive)
REMARK    1  A    between atoms: C_2  and  C_16
REMARK    2  A    between atoms: N_3  and  C_4
REMARK    3  A    between atoms: N_11  and  C_12
REMARK                            x       y       z     vdW  Elec       q    Type
REMARK                         _______ _______ _______ _____ _____    ______ ____
ROOT
ATOM      1  O   UNL     1       1.328   7.413  17.567  0.00  0.00    +0.000 OA
ATOM      2  C   UNL     1       2.233   8.148  17.954  0.00  0.00    +0.000 C 
ATOM      3  N   UNL     1       3.573   7.811  18.067  0.00  0.00    +0.000 N 
ATOM      4  H   UNL     1       4.155   8.420  18.641  0.00  0.00    +0.000 HD
ENDROOT
BRANCH   2   5
ATOM      5  C   UNL     1       1.845   9.547  18.398  0.00  0.00    +0.000 A 
ATOM      6  N   UNL     1       2.285  10.527  17.654  0.00  0.00    +0.000 NA
ATOM      7  N   UNL     1       1.931  11.809  17.928  0.00  0.00    +0.000 N 
ATOM      8  C   UNL     1       0.844  12.106  18.767  0.00  0.00    +0.000 A 
ATOM      9  C   UNL     1       0.305  13.397  18.800  0.00  0.00    +0.000 A 
ATOM     10  C   UNL     1      -0.709  13.716  19.705  0.00  0.00    +0.000 A 
ATOM     11  C   UNL     1      -1.172  12.757  20.609  0.00  0.00    +0.000 A 
ATOM     12  C   UNL     1      -0.633  11.471  20.598  0.00  0.00    +0.000 A 
ATOM     13  C   UNL     1       0.364  11.157  19.669  0.00  0.00    +0.000 A 
ATOM     14  C   UNL     1       0.958   9.818  19.585  0.00  0.00    +0.000 A 
ATOM     15  O   UNL     1       0.758   8.932  20.403  0.00  0.00    +0.000 OA
ATOM     16  H   UNL     1       2.087  12.475  17.170  0.00  0.00    +0.000 HD
ENDBRANCH   2   5
BRANCH   3  17
ATOM     17  C   UNL     1       4.137   6.605  17.594  0.00  0.00    +0.000 A 
ATOM     18  C   UNL     1       4.802   6.525  16.360  0.00  0.00    +0.000 A 
ATOM     19  C   UNL     1       5.355   5.321  15.898  0.00  0.00    +0.000 A 
ATOM     20  C   UNL     1       5.265   4.165  16.663  0.00  0.00    +0.000 A 
ATOM     21  C   UNL     1       4.616   4.243  17.884  0.00  0.00    +0.000 A 
ATOM     22  C   UNL     1       4.065   5.439  18.349  0.00  0.00    +0.000 A 
ATOM     23  C   UNL     1       3.409   5.182  19.668  0.00  0.00    +0.000 C 
ATOM     24  N   UNL     1       3.511   3.718  19.932  0.00  0.00    +0.000 NA
ATOM     25  C   UNL     1       4.381   3.146  18.871  0.00  0.00    +0.000 C 
BRANCH  24  26
ATOM     26  C   UNL     1       2.191   3.061  19.981  0.00  0.00    +0.000 C 
ATOM     27  C   UNL     1       0.980   3.857  20.390  0.00  0.00    +0.000 C 
ATOM     28  C   UNL     1       1.547   2.829  21.323  0.00  0.00    +0.000 C 
ENDBRANCH  24  26
ENDBRANCH   3  17
TORSDOF 3
ENDMDL
MODEL 4
REMARK VINA RESULT:      -8.0      2.211      8.171
REMARK  Name = 
REMARK  3 active torsions:
REMARK  status: ('A' for Active; 'I' for Inactive)
REMARK    1  A    between atoms: C_2  and  C_16
REMARK    2  A    between atoms: N_3  and  C_4
REMARK    3  A    between atoms: N_11  and  C_12
REMARK                            x       y       z     vdW  Elec       q    Type
REMARK                         _______ _______ _______ _____ _____    ______ ____
ROOT
ATOM      1  O   UNL     1       1.569   7.840  17.256  0.00  0.00    +0.000 OA
ATOM      2  C   UNL     1       1.956   7.751  18.419  0.00  0.00    +0.000 C 
ATOM      3  N   UNL     1       2.681   6.705  18.965  0.00  0.00    +0.000 N 
ATOM      4  H   UNL     1       2.703   6.639  19.982  0.00  0.00    +0.000 HD
ENDROOT
BRANCH   2   5
ATOM      5  C   UNL     1       1.562   8.872  19.365  0.00  0.00    +0.000 A 
ATOM      6  N   UNL     1       1.591  10.079  18.866  0.00  0.00    +0.000 NA
ATOM      7  N   UNL     1       1.186  11.139  19.612  0.00  0.00    +0.000 N 
ATOM      8  C   UNL     1       0.421  10.966  20.777  0.00  0.00    +0.000 A 
ATOM      9  C   UNL     1      -0.238  12.054  21.361  0.00  0.00    +0.000 A 
ATOM     10  C   UNL     1      -0.917  11.902  22.571  0.00  0.00    +0.000 A 
ATOM     11  C   UNL     1      -0.916  10.669  23.228  0.00  0.00    +0.000 A 
ATOM     12  C   UNL     1      -0.250   9.581  22.666  0.00  0.00    +0.000 A 
ATOM     13  C   UNL     1       0.404   9.739  21.440  0.00  0.00    +0.000 A 
ATOM     14  C   UNL     1       1.103   8.632  20.779  0.00  0.00    +0.000 A 
ATOM     15  O   UNL     1       1.311   7.548  21.305  0.00  0.00    +0.000 OA
ATOM     16  H   UNL     1       0.988  11.992  19.086  0.00  0.00    +0.000 HD
ENDBRANCH   2   5
BRANCH   3  17
ATOM     17  C   UNL     1       3.237   5.641  18.218  0.00  0.00    +0.000 A 
ATOM     18  C   UNL     1       2.706   4.342  18.261  0.00  0.00    +0.000 A 
ATOM     19  C   UNL     1       3.268   3.292  17.519  0.00  0.00    +0.000 A 
ATOM     20  C   UNL     1       4.371   3.516  16.706  0.00  0.00    +0.000 A 
ATOM     21  C   UNL     1       4.892   4.799  16.655  0.00  0.00    +0.000 A 
ATOM     22  C   UNL     1       4.335   5.847  17.391  0.00  0.00    +0.000 A 
ATOM     23  C   UNL     1       5.143   7.082  17.149  0.00  0.00    +0.000 C 
ATOM     24  N   UNL     1       6.296   6.692  16.288  0.00  0.00    +0.000 NA
ATOM     25  C   UNL     1       6.069   5.283  15.873  0.00  0.00    +0.000 C 
BRANCH  24  26
ATOM     26  C   UNL     1       7.593   6.868  16.969  0.00  0.00    +0.000 C 
ATOM     27  C   UNL     1       7.644   6.900  18.473  0.00  0.00    +0.000 C 
ATOM     28  C   UNL     1       7.862   8.162  17.692  0.00  0.00    +0.000 C 
ENDBRANCH  24  26
ENDBRANCH   3  17
TORSDOF 3
ENDMDL
MODEL 5
REMARK VINA RESULT:      -7.9      2.446      7.879
REMARK  Name = 
REMARK  3 active torsions:
REMARK  status: ('A' for Active; 'I' for Inactive)
REMARK    1  A    between atoms: C_2  and  C_16
REMARK    2  A    between atoms: N_3  and  C_4
REMARK    3  A    between atoms: N_11  and  C_12
REMARK                            x       y       z     vdW  Elec       q    Type
REMARK                         _______ _______ _______ _____ _____    ______ ____
ROOT
ATOM      1  O   UNL     1       1.913   6.793  20.504  0.00  0.00    +0.000 OA
ATOM      2  C   UNL     1       1.946   7.486  19.490  0.00  0.00    +0.000 C 
ATOM      3  N   UNL     1       2.391   7.091  18.239  0.00  0.00    +0.000 N 
ATOM      4  H   UNL     1       2.607   7.830  17.571  0.00  0.00    +0.000 HD
ENDROOT
BRANCH   2   5
ATOM      5  C   UNL     1       1.501   8.931  19.627  0.00  0.00    +0.000 A 
ATOM      6  N   UNL     1       0.943   9.253  20.764  0.00  0.00    +0.000 NA
ATOM      7  N   UNL     1       0.577  10.538  21.009  0.00  0.00    +0.000 N 
ATOM      8  C   UNL     1       1.074  11.602  20.238  0.00  0.00    +0.000 A 
ATOM      9  C   UNL     1       0.937  12.922  20.679  0.00  0.00    +0.000 A 
ATOM     10  C   UNL     1       1.342  13.984  19.868  0.00  0.00    +0.000 A 
ATOM     11  C   UNL     1       1.858  13.737  18.593  0.00  0.00    +0.000 A 
ATOM     12  C   UNL     1       1.984  12.427  18.134  0.00  0.00    +0.000 A 
ATOM     13  C   UNL     1       1.600  11.371  18.967  0.00  0.00    +0.000 A 
ATOM     14  C   UNL     1       1.729   9.969  18.559  0.00  0.00    +0.000 A 
ATOM     15  O   UNL     1       2.020   9.613  17.426  0.00  0.00    +0.000 OA
ATOM     16  H   UNL     1       0.399  10.760  21.990  0.00  0.00    +0.000 HD
ENDBRANCH   2   5
BRANCH   3  17
ATOM     17  C   UNL     1       2.727   5.762  17.893  0.00  0.00    +0.000 A 
ATOM     18  C   UNL     1       1.820   4.701  18.035  0.00  0.00    +0.000 A 
ATOM     19  C   UNL     1       2.166   3.385  17.692  0.00  0.00    +0.000 A 
ATOM     20  C   UNL     1       3.428   3.098  17.188  0.00  0.00    +0.000 A 
ATOM     21  C   UNL     1       4.323   4.145  17.039  0.00  0.00    +0.000 A 
ATOM     22  C   UNL     1       3.983   5.456  17.378  0.00  0.00    +0.000 A 
ATOM     23  C   UNL     1       5.168   6.334  17.137  0.00  0.00    +0.000 C 
ATOM     24  N   UNL     1       6.294   5.450  16.721  0.00  0.00    +0.000 NA
ATOM     25  C   UNL     1       5.728   4.088  16.535  0.00  0.00    +0.000 C 
BRANCH  24  26
ATOM     26  C   UNL     1       7.408   5.462  17.687  0.00  0.00    +0.000 C 
ATOM     27  C   UNL     1       7.129   5.743  19.139  0.00  0.00    +0.000 C 
ATOM     28  C   UNL     1       7.822   6.774  18.299  0.00  0.00    +0.000 C 
ENDBRANCH  24  26
ENDBRANCH   3  17
TORSDOF 3
ENDMDL
MODEL 6
REMARK VINA RESULT:      -7.6      2.312      8.250
REMARK  Name = 
REMARK  3 active torsions:
REMARK  status: ('A' for Active; 'I' for Inactive)
REMARK    1  A    between atoms: C_2  and  C_16
REMARK    2  A    between atoms: N_3  and  C_4
REMARK    3  A    between atoms: N_11  and  C_12
REMARK                            x       y       z     vdW  Elec       q    Type
REMARK                         _______ _______ _______ _____ _____    ______ ____
ROOT
ATOM      1  O   UNL     1       1.880  10.009  17.595  0.00  0.00    +0.000 OA
ATOM      2  C   UNL     1       1.413   9.629  18.666  0.00  0.00    +0.000 C 
ATOM      3  N   UNL     1       1.624   8.397  19.263  0.00  0.00    +0.000 N 
ATOM      4  H   UNL     1       0.976   8.124  20.001  0.00  0.00    +0.000 HD
ENDROOT
BRANCH   2   5
ATOM      5  C   UNL     1       0.473  10.581  19.386  0.00  0.00    +0.000 A 
ATOM      6  N   UNL     1      -0.300  11.308  18.624  0.00  0.00    +0.000 NA
ATOM      7  N   UNL     1      -1.224  12.136  19.176  0.00  0.00    +0.000 N 
ATOM      8  C   UNL     1      -1.622  12.001  20.516  0.00  0.00    +0.000 A 
ATOM      9  C   UNL     1      -2.772  12.646  20.983  0.00  0.00    +0.000 A 
ATOM     10  C   UNL     1      -3.113  12.592  22.335  0.00  0.00    +0.000 A 
ATOM     11  C   UNL     1      -2.289  11.920  23.242  0.00  0.00    +0.000 A 
ATOM     12  C   UNL     1      -1.130  11.287  22.793  0.00  0.00    +0.000 A 
ATOM     13  C   UNL     1      -0.815  11.326  21.431  0.00  0.00    +0.000 A 
ATOM     14  C   UNL     1       0.373  10.661  20.887  0.00  0.00    +0.000 A 
ATOM     15  O   UNL     1       1.255  10.169  21.577  0.00  0.00    +0.000 OA
ATOM     16  H   UNL     1      -1.952  12.462  18.538  0.00  0.00    +0.000 HD
ENDBRANCH   2   5
BRANCH   3  17
ATOM     17  C   UNL     1       2.554   7.435  18.806  0.00  0.00    +0.000 A 
ATOM     18  C   UNL     1       3.395   7.674  17.707  0.00  0.00    +0.000 A 
ATOM     19  C   UNL     1       4.311   6.710  17.259  0.00  0.00    +0.000 A 
ATOM     20  C   UNL     1       4.417   5.485  17.904  0.00  0.00    +0.000 A 
ATOM     21  C   UNL     1       3.594   5.250  18.994  0.00  0.00    +0.000 A 
ATOM     22  C   UNL     1       2.681   6.206  19.444  0.00  0.00    +0.000 A 
ATOM     23  C   UNL     1       1.925   5.637  20.602  0.00  0.00    +0.000 C 
ATOM     24  N   UNL     1       2.371   4.224  20.766  0.00  0.00    +0.000 NA
ATOM     25  C   UNL     1       3.512   4.019  19.836  0.00  0.00    +0.000 C 
BRANCH  24  26
ATOM     26  C   UNL     1       1.282   3.257  20.530  0.00  0.00    +0.000 C 
ATOM     27  C   UNL     1       1.542   2.037  19.689  0.00  0.00    +0.000 C 
ATOM     28  C   UNL     1       0.695   3.150  19.147  0.00  0.00    +0.000 C 
ENDBRANCH  24  26
ENDBRANCH   3  17
TORSDOF 3
ENDMDL
MODEL 7
REMARK VINA RESULT:      -7.6      2.056      8.243
REMARK  Name = 
REMARK  3 active torsions:
REMARK  status: ('A' for Active; 'I' for Inactive)
REMARK    1  A    between atoms: C_2  and  C_16
REMARK    2  A    between atoms: N_3  and  C_4
REMARK    3  A    between atoms: N_11  and  C_12
REMARK                            x       y       z     vdW  Elec       q    Type
REMARK                         _______ _______ _______ _____ _____    ______ ____
ROOT
ATOM      1  O   UNL     1       2.088   6.559  20.613  0.00  0.00    +0.000 OA
ATOM      2  C   UNL     1       1.999   7.288  19.628  0.00  0.00    +0.000 C 
ATOM      3  N   UNL     1       2.361   6.965  18.330  0.00  0.00    +0.000 N 
ATOM      4  H   UNL     1       2.480   7.738  17.677  0.00  0.00    +0.000 HD
ENDROOT
BRANCH   2   5
ATOM      5  C   UNL     1       1.487   8.699  19.858  0.00  0.00    +0.000 A 
ATOM      6  N   UNL     1       1.418   9.464  18.801  0.00  0.00    +0.000 NA
ATOM      7  N   UNL     1       0.905  10.718  18.893  0.00  0.00    +0.000 N 
ATOM      8  C   UNL     1       0.134  11.115  19.998  0.00  0.00    +0.000 A 
ATOM      9  C   UNL     1      -0.631  12.285  19.946  0.00  0.00    +0.000 A 
ATOM     10  C   UNL     1      -1.318  12.731  21.075  0.00  0.00    +0.000 A 
ATOM     11  C   UNL     1      -1.220  12.031  22.280  0.00  0.00    +0.000 A 
ATOM     12  C   UNL     1      -0.448  10.872  22.352  0.00  0.00    +0.000 A 
ATOM     13  C   UNL     1       0.214  10.421  21.205  0.00  0.00    +0.000 A 
ATOM     14  C   UNL     1       1.022   9.198  21.202  0.00  0.00    +0.000 A 
ATOM     15  O   UNL     1       1.316   8.573  22.211  0.00  0.00    +0.000 OA
ATOM     16  H   UNL     1       0.642  11.147  18.005  0.00  0.00    +0.000 HD
ENDBRANCH   2   5
BRANCH   3  17
ATOM     17  C   UNL     1       2.741   5.671  17.905  0.00  0.00    +0.000 A 
ATOM     18  C   UNL     1       1.872   4.572  17.990  0.00  0.00    +0.000 A 
ATOM     19  C   UNL     1       2.262   3.291  17.569  0.00  0.00    +0.000 A 
ATOM     20  C   UNL     1       3.530   3.079  17.042  0.00  0.00    +0.000 A 
ATOM     21  C   UNL     1       4.386   4.164  16.950  0.00  0.00    +0.000 A 
ATOM     22  C   UNL     1       4.002   5.440  17.367  0.00  0.00    +0.000 A 
ATOM     23  C   UNL     1       5.155   6.373  17.171  0.00  0.00    +0.000 C 
ATOM     24  N   UNL     1       6.307   5.554  16.697  0.00  0.00    +0.000 NA
ATOM     25  C   UNL     1       5.789   4.186  16.436  0.00  0.00    +0.000 C 
BRANCH  24  26
ATOM     26  C   UNL     1       7.428   5.550  17.656  0.00  0.00    +0.000 C 
ATOM     27  C   UNL     1       7.158   5.800  19.115  0.00  0.00    +0.000 C 
ATOM     28  C   UNL     1       7.842   6.850  18.292  0.00  0.00    +0.000 C 
ENDBRANCH  24  26
ENDBRANCH   3  17
TORSDOF 3
ENDMDL
MODEL 8
REMARK VINA RESULT:      -7.5      2.200      7.845
REMARK  Name = 
REMARK  3 active torsions:
REMARK  status: ('A' for Active; 'I' for Inactive)
REMARK    1  A    between atoms: C_2  and  C_16
REMARK    2  A    between atoms: N_3  and  C_4
REMARK    3  A    between atoms: N_11  and  C_12
REMARK                            x       y       z     vdW  Elec       q    Type
REMARK                         _______ _______ _______ _____ _____    ______ ____
ROOT
ATOM      1  O   UNL     1       0.515   7.337  21.249  0.00  0.00    +0.000 OA
ATOM      2  C   UNL     1       1.333   7.746  20.428  0.00  0.00    +0.000 C 
ATOM      3  N   UNL     1       2.350   7.009  19.843  0.00  0.00    +0.000 N 
ATOM      4  H   UNL     1       3.100   7.532  19.394  0.00  0.00    +0.000 HD
ENDROOT
BRANCH   2   5
ATOM      5  C   UNL     1       1.255   9.215  20.051  0.00  0.00    +0.000 A 
ATOM      6  N   UNL     1       1.366   9.487  18.778  0.00  0.00    +0.000 NA
ATOM      7  N   UNL     1       1.237  10.763  18.335  0.00  0.00    +0.000 N 
ATOM      8  C   UNL     1       0.656  11.762  19.134  0.00  0.00    +0.000 A 
ATOM      9  C   UNL     1       0.256  12.979  18.571  0.00  0.00    +0.000 A 
ATOM     10  C   UNL     1      -0.229  14.006  19.381  0.00  0.00    +0.000 A 
ATOM     11  C   UNL     1      -0.288  13.841  20.767  0.00  0.00    +0.000 A 
ATOM     12  C   UNL     1       0.123  12.640  21.344  0.00  0.00    +0.000 A 
ATOM     13  C   UNL     1       0.582  11.609  20.519  0.00  0.00    +0.000 A 
ATOM     14  C   UNL     1       1.007  10.311  21.054  0.00  0.00    +0.000 A 
ATOM     15  O   UNL     1       1.149  10.081  22.247  0.00  0.00    +0.000 OA
ATOM     16  H   UNL     1       1.072  10.862  17.331  0.00  0.00    +0.000 HD
ENDBRANCH   2   5
BRANCH   3  17
ATOM     17  C   UNL     1       2.503   5.610  19.979  0.00  0.00    +0.000 A 
ATOM     18  C   UNL     1       2.167   4.934  21.163  0.00  0.00    +0.000 A 
ATOM     19  C   UNL     1       2.328   3.546  21.288  0.00  0.00    +0.000 A 
ATOM     20  C   UNL     1       2.821   2.795  20.228  0.00  0.00    +0.000 A 
ATOM     21  C   UNL     1       3.145   3.459  19.057  0.00  0.00    +0.000 A 
ATOM     22  C   UNL     1       2.986   4.841  18.927  0.00  0.00    +0.000 A 
ATOM     23  C   UNL     1       3.457   5.250  17.568  0.00  0.00    +0.000 C 
ATOM     24  N   UNL     1       4.010   4.032  16.909  0.00  0.00    +0.000 NA
ATOM     25  C   UNL     1       3.698   2.881  17.795  0.00  0.00    +0.000 C 
BRANCH  24  26
ATOM     26  C   UNL     1       5.455   4.147  16.634  0.00  0.00    +0.000 C 
ATOM     27  C   UNL     1       5.973   5.335  15.869  0.00  0.00    +0.000 C 
ATOM     28  C   UNL     1       5.939   3.985  15.217  0.00  0.00    +0.000 C 
ENDBRANCH  24  26
ENDBRANCH   3  17
TORSDOF 3
ENDMDL
MODEL 9
REMARK VINA RESULT:      -7.5      2.580      7.663
REMARK  Name = 
REMARK  3 active torsions:
REMARK  status: ('A' for Active; 'I' for Inactive)
REMARK    1  A    between atoms: C_2  and  C_16
REMARK    2  A    between atoms: N_3  and  C_4
REMARK    3  A    between atoms: N_11  and  C_12
REMARK                            x       y       z     vdW  Elec       q    Type
REMARK                         _______ _______ _______ _____ _____    ______ ____
ROOT
ATOM      1  O   UNL     1       0.369   7.825  21.527  0.00  0.00    +0.000 OA
ATOM      2  C   UNL     1       1.127   8.258  20.662  0.00  0.00    +0.000 C 
ATOM      3  N   UNL     1       2.079   7.532  19.965  0.00  0.00    +0.000 N 
ATOM      4  H   UNL     1       2.802   8.062  19.481  0.00  0.00    +0.000 HD
ENDROOT
BRANCH   2   5
ATOM      5  C   UNL     1       1.050   9.745  20.359  0.00  0.00    +0.000 A 
ATOM      6  N   UNL     1       0.589  10.502  21.318  0.00  0.00    +0.000 NA
ATOM      7  N   UNL     1       0.550  11.851  21.168  0.00  0.00    +0.000 N 
ATOM      8  C   UNL     1       1.292  12.499  20.167  0.00  0.00    +0.000 A 
ATOM      9  C   UNL     1       1.484  13.885  20.210  0.00  0.00    +0.000 A 
ATOM     10  C   UNL     1       2.136  14.541  19.165  0.00  0.00    +0.000 A 
ATOM     11  C   UNL     1       2.574  13.823  18.049  0.00  0.00    +0.000 A 
ATOM     12  C   UNL     1       2.375  12.445  17.985  0.00  0.00    +0.000 A 
ATOM     13  C   UNL     1       1.745  11.796  19.051  0.00  0.00    +0.000 A 
ATOM     14  C   UNL     1       1.525  10.346  19.062  0.00  0.00    +0.000 A 
ATOM     15  O   UNL     1       1.719   9.621  18.097  0.00  0.00    +0.000 OA
ATOM     16  H   UNL     1       0.433  12.382  22.033  0.00  0.00    +0.000 HD
ENDBRANCH   2   5
BRANCH   3  17
ATOM     17  C   UNL     1       2.214   6.126  20.025  0.00  0.00    +0.000 A 
ATOM     18  C   UNL     1       1.360   5.327  20.801  0.00  0.00    +0.000 A 
ATOM     19  C   UNL     1       1.506   3.932  20.857  0.00  0.00    +0.000 A 
ATOM     20  C   UNL     1       2.506   3.299  20.130  0.00  0.00    +0.000 A 
ATOM     21  C   UNL     1       3.345   4.085  19.357  0.00  0.00    +0.000 A 
ATOM     22  C   UNL     1       3.203   5.473  19.298  0.00  0.00    +0.000 A 
ATOM     23  C   UNL     1       4.276   6.025  18.415  0.00  0.00    +0.000 C 
ATOM     24  N   UNL     1       5.149   4.884  18.017  0.00  0.00    +0.000 NA
ATOM     25  C   UNL     1       4.490   3.644  18.505  0.00  0.00    +0.000 C 
BRANCH  24  26
ATOM     26  C   UNL     1       6.525   5.021  18.530  0.00  0.00    +0.000 C 
ATOM     27  C   UNL     1       7.413   6.110  17.991  0.00  0.00    +0.000 C 
ATOM     28  C   UNL     1       7.675   4.682  17.618  0.00  0.00    +0.000 C 
ENDBRANCH  24  26
ENDBRANCH   3  17
TORSDOF 3
ENDMDL
