MODEL 1
REMARK VINA RESULT:      -8.7      0.000      0.000
REMARK  Name = 
REMARK  7 active torsions:
REMARK  status: ('A' for Active; 'I' for Inactive)
REMARK    1  A    between atoms: C_1  and  C_2
REMARK    2  A    between atoms: C_4  and  C_5
REMARK    3  A    between atoms: C_5  and  N_6
REMARK    4  A    between atoms: C_7  and  C_9
REMARK    5  A    between atoms: C_9  and  C_10
REMARK    6  A    between atoms: C_10  and  C_11
REMARK    7  A    between atoms: N_21  and  C_22
REMARK                            x       y       z     vdW  Elec       q    Type
REMARK                         _______ _______ _______ _____ _____    ______ ____
ROOT
ATOM      1  C   UNL     1       7.354   6.026  18.769  0.00  0.00    +0.000 C 
ENDROOT
BRANCH   1   3
ATOM      2  N   UNL     1       8.200   8.239  18.371  0.00  0.00    +0.000 N 
ATOM      3  C   UNL     1       7.483   7.200  17.822  0.00  0.00    +0.000 C 
ATOM      4  O   UNL     1       6.985   7.225  16.713  0.00  0.00    +0.000 OA
ATOM      5  H   UNL     1       8.558   8.137  19.307  0.00  0.00    +0.000 HD
BRANCH   2   6
ATOM      6  C   UNL     1       8.410   9.472  17.644  0.00  0.00    +0.000 C 
BRANCH   6  10
ATOM      7  C   UNL     1      10.857  13.905  17.907  0.00  0.00    +0.000 C 
ATOM      8  C   UNL     1      10.321  12.680  18.582  0.00  0.00    +0.000 A 
ATOM      9  C   UNL     1       9.634  11.711  17.835  0.00  0.00    +0.000 A 
ATOM     10  C   UNL     1       9.119  10.547  18.438  0.00  0.00    +0.000 A 
ATOM     11  C   UNL     1       9.298  10.382  19.820  0.00  0.00    +0.000 A 
ATOM     12  C   UNL     1       9.977  11.345  20.574  0.00  0.00    +0.000 A 
ATOM     13  C   UNL     1      10.483  12.480  19.950  0.00  0.00    +0.000 A 
ATOM     14  F   UNL     1      11.136  13.391  20.688  0.00  0.00    +0.000 F 
ENDBRANCH   6  10
ENDBRANCH   2   6
ENDBRANCH   1   3
BRANCH   1  15
ATOM     15  C   UNL     1       6.928   4.772  18.012  0.00  0.00    +0.000 C 
BRANCH  15  16
ATOM     16  C   UNL     1       5.441   4.502  18.172  0.00  0.00    +0.000 A 
ATOM     17  N   UNL     1       4.897   4.747  19.325  0.00  0.00    +0.000 NA
ATOM     18  C   UNL     1       3.551   4.429  19.521  0.00  0.00    +0.000 A 
ATOM     19  C   UNL     1       2.993   4.546  20.795  0.00  0.00    +0.000 A 
ATOM     20  C   UNL     1       1.692   4.093  21.043  0.00  0.00    +0.000 A 
ATOM     21  C   UNL     1       0.924   3.564  20.008  0.00  0.00    +0.000 A 
ATOM     22  C   UNL     1       1.441   3.527  18.717  0.00  0.00    +0.000 A 
ATOM     23  C   UNL     1       2.759   3.932  18.494  0.00  0.00    +0.000 A 
ATOM     24  C   UNL     1       3.374   3.760  17.171  0.00  0.00    +0.000 A 
ATOM     25  O   UNL     1       2.673   3.397  16.234  0.00  0.00    +0.000 OA
ATOM     26  N   UNL     1       4.742   3.998  17.089  0.00  0.00    +0.000 N 
ATOM     27  C   UNL     1       5.373   3.684  15.813  0.00  0.00    +0.000 C 
ENDBRANCH  15  16
ENDBRANCH   1  15
TORSDOF 5
ENDMDL
MODEL 2
REMARK VINA RESULT:      -8.6      1.327      1.825
REMARK  Name = 
REMARK  7 active torsions:
REMARK  status: ('A' for Active; 'I' for Inactive)
REMARK    1  A    between atoms: C_1  and  C_2
REMARK    2  A    between atoms: C_4  and  C_5
REMARK    3  A    between atoms: C_5  and  N_6
REMARK    4  A    between atoms: C_7  and  C_9
REMARK    5  A    between atoms: C_9  and  C_10
REMARK    6  A    between atoms: C_10  and  C_11
REMARK    7  A    between atoms: N_21  and  C_22
REMARK                            x       y       z     vdW  Elec       q    Type
REMARK                         _______ _______ _______ _____ _____    ______ ____
ROOT
ATOM      1  C   UNL     1       7.555   5.951  18.647  0.00  0.00    +0.000 C 
ENDROOT
BRANCH   1   3
ATOM      2  N   UNL     1       8.125   8.272  18.400  0.00  0.00    +0.000 N 
ATOM      3  C   UNL     1       7.830   7.113  17.717  0.00  0.00    +0.000 C 
ATOM      4  O   UNL     1       7.771   7.031  16.506  0.00  0.00    +0.000 OA
ATOM      5  H   UNL     1       8.131   8.250  19.407  0.00  0.00    +0.000 HD
BRANCH   2   6
ATOM      6  C   UNL     1       8.387   9.510  17.699  0.00  0.00    +0.000 C 
BRANCH   6  10
ATOM      7  C   UNL     1       9.577  12.110  21.886  0.00  0.00    +0.000 C 
ATOM      8  C   UNL     1       9.864  11.750  20.460  0.00  0.00    +0.000 A 
ATOM      9  C   UNL     1       9.044  10.829  19.791  0.00  0.00    +0.000 A 
ATOM     10  C   UNL     1       9.283  10.470  18.450  0.00  0.00    +0.000 A 
ATOM     11  C   UNL     1      10.380  11.049  17.796  0.00  0.00    +0.000 A 
ATOM     12  C   UNL     1      11.207  11.964  18.456  0.00  0.00    +0.000 A 
ATOM     13  C   UNL     1      10.941  12.306  19.777  0.00  0.00    +0.000 A 
ATOM     14  F   UNL     1      11.742  13.190  20.393  0.00  0.00    +0.000 F 
ENDBRANCH   6  10
ENDBRANCH   2   6
ENDBRANCH   1   3
BRANCH   1  15
ATOM     15  C   UNL     1       6.743   4.875  17.934  0.00  0.00    +0.000 C 
BRANCH  15  16
ATOM     16  C   UNL     1       5.330   4.783  18.486  0.00  0.00    +0.000 A 
ATOM     17  N   UNL     1       5.098   3.922  19.429  0.00  0.00    +0.000 NA
ATOM     18  C   UNL     1       3.791   3.762  19.894  0.00  0.00    +0.000 A 
ATOM     19  C   UNL     1       3.501   2.738  20.798  0.00  0.00    +0.000 A 
ATOM     20  C   UNL     1       2.176   2.467  21.161  0.00  0.00    +0.000 A 
ATOM     21  C   UNL     1       1.138   3.249  20.659  0.00  0.00    +0.000 A 
ATOM     22  C   UNL     1       1.427   4.328  19.830  0.00  0.00    +0.000 A 
ATOM     23  C   UNL     1       2.746   4.553  19.433  0.00  0.00    +0.000 A 
ATOM     24  C   UNL     1       3.056   5.590  18.440  0.00  0.00    +0.000 A 
ATOM     25  O   UNL     1       2.164   6.350  18.078  0.00  0.00    +0.000 OA
ATOM     26  N   UNL     1       4.358   5.611  17.951  0.00  0.00    +0.000 N 
ATOM     27  C   UNL     1       4.621   6.543  16.861  0.00  0.00    +0.000 C 
ENDBRANCH  15  16
ENDBRANCH   1  15
TORSDOF 5
ENDMDL
MODEL 3
REMARK VINA RESULT:      -8.4      3.645     10.083
REMARK  Name = 
REMARK  7 active torsions:
REMARK  status: ('A' for Active; 'I' for Inactive)
REMARK    1  A    between atoms: C_1  and  C_2
REMARK    2  A    between atoms: C_4  and  C_5
REMARK    3  A    between atoms: C_5  and  N_6
REMARK    4  A    between atoms: C_7  and  C_9
REMARK    5  A    between atoms: C_9  and  C_10
REMARK    6  A    between atoms: C_10  and  C_11
REMARK    7  A    between atoms: N_21  and  C_22
REMARK                            x       y       z     vdW  Elec       q    Type
REMARK                         _______ _______ _______ _____ _____    ______ ____
ROOT
ATOM      1  C   UNL     1       8.199   9.426  17.954  0.00  0.00    +0.000 C 
ENDROOT
BRANCH   1   3
ATOM      2  N   UNL     1       7.209   7.546  16.832  0.00  0.00    +0.000 N 
ATOM      3  C   UNL     1       7.955   7.932  17.923  0.00  0.00    +0.000 C 
ATOM      4  O   UNL     1       8.354   7.169  18.781  0.00  0.00    +0.000 OA
ATOM      5  H   UNL     1       6.903   8.253  16.182  0.00  0.00    +0.000 HD
BRANCH   2   6
ATOM      6  C   UNL     1       6.833   6.164  16.630  0.00  0.00    +0.000 C 
BRANCH   6  10
ATOM      7  C   UNL     1       2.249   7.614  18.238  0.00  0.00    +0.000 C 
ATOM      8  C   UNL     1       3.189   6.526  17.817  0.00  0.00    +0.000 A 
ATOM      9  C   UNL     1       4.497   6.844  17.421  0.00  0.00    +0.000 A 
ATOM     10  C   UNL     1       5.407   5.846  17.023  0.00  0.00    +0.000 A 
ATOM     11  C   UNL     1       4.968   4.514  17.016  0.00  0.00    +0.000 A 
ATOM     12  C   UNL     1       3.664   4.187  17.404  0.00  0.00    +0.000 A 
ATOM     13  C   UNL     1       2.790   5.192  17.802  0.00  0.00    +0.000 A 
ATOM     14  F   UNL     1       1.545   4.860  18.176  0.00  0.00    +0.000 F 
ENDBRANCH   6  10
ENDBRANCH   2   6
ENDBRANCH   1   3
BRANCH   1  15
ATOM     15  C   UNL     1       9.263   9.772  18.991  0.00  0.00    +0.000 C 
BRANCH  15  16
ATOM     16  C   UNL     1       9.596  11.255  18.975  0.00  0.00    +0.000 A 
ATOM     17  N   UNL     1      10.064  11.764  17.876  0.00  0.00    +0.000 NA
ATOM     18  C   UNL     1      10.454  13.104  17.862  0.00  0.00    +0.000 A 
ATOM     19  C   UNL     1      11.097  13.624  16.736  0.00  0.00    +0.000 A 
ATOM     20  C   UNL     1      11.628  14.919  16.758  0.00  0.00    +0.000 A 
ATOM     21  C   UNL     1      11.478  15.720  17.889  0.00  0.00    +0.000 A 
ATOM     22  C   UNL     1      10.761  15.242  18.981  0.00  0.00    +0.000 A 
ATOM     23  C   UNL     1      10.284  13.929  18.966  0.00  0.00    +0.000 A 
ATOM     24  C   UNL     1       9.657  13.354  20.164  0.00  0.00    +0.000 A 
ATOM     25  O   UNL     1       9.427  14.084  21.122  0.00  0.00    +0.000 OA
ATOM     26  N   UNL     1       9.398  11.988  20.132  0.00  0.00    +0.000 N 
ATOM     27  C   UNL     1       8.915  11.397  21.374  0.00  0.00    +0.000 C 
ENDBRANCH  15  16
ENDBRANCH   1  15
TORSDOF 5
ENDMDL
MODEL 4
REMARK VINA RESULT:      -8.3      6.343      8.911
REMARK  Name = 
REMARK  7 active torsions:
REMARK  status: ('A' for Active; 'I' for Inactive)
REMARK    1  A    between atoms: C_1  and  C_2
REMARK    2  A    between atoms: C_4  and  C_5
REMARK    3  A    between atoms: C_5  and  N_6
REMARK    4  A    between atoms: C_7  and  C_9
REMARK    5  A    between atoms: C_9  and  C_10
REMARK    6  A    between atoms: C_10  and  C_11
REMARK    7  A    between atoms: N_21  and  C_22
REMARK                            x       y       z     vdW  Elec       q    Type
REMARK                         _______ _______ _______ _____ _____    ______ ____
ROOT
ATOM      1  C   UNL     1       1.753   8.095  20.549  0.00  0.00    +0.000 C 
ENDROOT
BRANCH   1   3
ATOM      2  N   UNL     1       0.418  10.000  19.948  0.00  0.00    +0.000 N 
ATOM      3  C   UNL     1       0.470   8.875  20.741  0.00  0.00    +0.000 C 
ATOM      4  O   UNL     1      -0.400   8.553  21.525  0.00  0.00    +0.000 OA
ATOM      5  H   UNL     1       1.197  10.200  19.342  0.00  0.00    +0.000 HD
BRANCH   2   6
ATOM      6  C   UNL     1      -0.709  10.905  20.003  0.00  0.00    +0.000 C 
BRANCH   6  10
ATOM      7  C   UNL     1      -5.102  11.982  17.712  0.00  0.00    +0.000 C 
ATOM      8  C   UNL     1      -3.766  11.305  17.696  0.00  0.00    +0.000 A 
ATOM      9  C   UNL     1      -2.901  11.435  18.794  0.00  0.00    +0.000 A 
ATOM     10  C   UNL     1      -1.639  10.810  18.813  0.00  0.00    +0.000 A 
ATOM     11  C   UNL     1      -1.255  10.059  17.692  0.00  0.00    +0.000 A 
ATOM     12  C   UNL     1      -2.107   9.928  16.591  0.00  0.00    +0.000 A 
ATOM     13  C   UNL     1      -3.351  10.548  16.604  0.00  0.00    +0.000 A 
ATOM     14  F   UNL     1      -4.158  10.408  15.541  0.00  0.00    +0.000 F 
ENDBRANCH   6  10
ENDBRANCH   2   6
ENDBRANCH   1   3
BRANCH   1  15
ATOM     15  C   UNL     1       1.480   6.595  20.600  0.00  0.00    +0.000 C 
BRANCH  15  16
ATOM     16  C   UNL     1       2.323   5.839  19.586  0.00  0.00    +0.000 A 
ATOM     17  N   UNL     1       3.187   6.512  18.888  0.00  0.00    +0.000 NA
ATOM     18  C   UNL     1       3.913   5.855  17.893  0.00  0.00    +0.000 A 
ATOM     19  C   UNL     1       4.733   6.593  17.037  0.00  0.00    +0.000 A 
ATOM     20  C   UNL     1       5.351   5.976  15.943  0.00  0.00    +0.000 A 
ATOM     21  C   UNL     1       5.193   4.608  15.726  0.00  0.00    +0.000 A 
ATOM     22  C   UNL     1       4.452   3.850  16.627  0.00  0.00    +0.000 A 
ATOM     23  C   UNL     1       3.796   4.487  17.682  0.00  0.00    +0.000 A 
ATOM     24  C   UNL     1       2.887   3.732  18.555  0.00  0.00    +0.000 A 
ATOM     25  O   UNL     1       2.827   2.513  18.437  0.00  0.00    +0.000 OA
ATOM     26  N   UNL     1       2.123   4.477  19.446  0.00  0.00    +0.000 N 
ATOM     27  C   UNL     1       1.118   3.741  20.204  0.00  0.00    +0.000 C 
ENDBRANCH  15  16
ENDBRANCH   1  15
TORSDOF 5
ENDMDL
MODEL 5
REMARK VINA RESULT:      -8.2      4.384      5.595
REMARK  Name = 
REMARK  7 active torsions:
REMARK  status: ('A' for Active; 'I' for Inactive)
REMARK    1  A    between atoms: C_1  and  C_2
REMARK    2  A    between atoms: C_4  and  C_5
REMARK    3  A    between atoms: C_5  and  N_6
REMARK    4  A    between atoms: C_7  and  C_9
REMARK    5  A    between atoms: C_9  and  C_10
REMARK    6  A    between atoms: C_10  and  C_11
REMARK    7  A    between atoms: N_21  and  C_22
REMARK                            x       y       z     vdW  Elec       q    Type
REMARK                         _______ _______ _______ _____ _____    ______ ____
ROOT
ATOM      1  C   UNL     1       6.706   6.282  17.951  0.00  0.00    +0.000 C 
ENDROOT
BRANCH   1   3
ATOM      2  N   UNL     1       4.468   7.155  17.944  0.00  0.00    +0.000 N 
ATOM      3  C   UNL     1       5.547   6.835  17.150  0.00  0.00    +0.000 C 
ATOM      4  O   UNL     1       5.564   6.955  15.941  0.00  0.00    +0.000 OA
ATOM      5  H   UNL     1       4.537   7.001  18.937  0.00  0.00    +0.000 HD
BRANCH   2   6
ATOM      6  C   UNL     1       3.242   7.667  17.372  0.00  0.00    +0.000 C 
BRANCH   6  10
ATOM      7  C   UNL     1      -0.278  11.048  18.745  0.00  0.00    +0.000 C 
ATOM      8  C   UNL     1       0.580   9.866  19.076  0.00  0.00    +0.000 A 
ATOM      9  C   UNL     1       1.448   9.336  18.109  0.00  0.00    +0.000 A 
ATOM     10  C   UNL     1       2.271   8.228  18.388  0.00  0.00    +0.000 A 
ATOM     11  C   UNL     1       2.191   7.648  19.663  0.00  0.00    +0.000 A 
ATOM     12  C   UNL     1       1.325   8.165  20.632  0.00  0.00    +0.000 A 
ATOM     13  C   UNL     1       0.531   9.266  20.332  0.00  0.00    +0.000 A 
ATOM     14  F   UNL     1      -0.290   9.752  21.275  0.00  0.00    +0.000 F 
ENDBRANCH   6  10
ENDBRANCH   2   6
ENDBRANCH   1   3
BRANCH   1  15
ATOM     15  C   UNL     1       6.565   4.774  18.127  0.00  0.00    +0.000 C 
BRANCH  15  16
ATOM     16  C   UNL     1       5.111   4.365  18.301  0.00  0.00    +0.000 A 
ATOM     17  N   UNL     1       4.554   4.569  19.456  0.00  0.00    +0.000 NA
ATOM     18  C   UNL     1       3.247   4.127  19.666  0.00  0.00    +0.000 A 
ATOM     19  C   UNL     1       2.689   4.203  20.944  0.00  0.00    +0.000 A 
ATOM     20  C   UNL     1       1.439   3.631  21.206  0.00  0.00    +0.000 A 
ATOM     21  C   UNL     1       0.717   3.022  20.181  0.00  0.00    +0.000 A 
ATOM     22  C   UNL     1       1.225   3.022  18.887  0.00  0.00    +0.000 A 
ATOM     23  C   UNL     1       2.497   3.547  18.650  0.00  0.00    +0.000 A 
ATOM     24  C   UNL     1       3.117   3.423  17.324  0.00  0.00    +0.000 A 
ATOM     25  O   UNL     1       2.446   2.986  16.395  0.00  0.00    +0.000 OA
ATOM     26  N   UNL     1       4.455   3.787  17.228  0.00  0.00    +0.000 N 
ATOM     27  C   UNL     1       5.104   3.523  15.950  0.00  0.00    +0.000 C 
ENDBRANCH  15  16
ENDBRANCH   1  15
TORSDOF 5
ENDMDL
MODEL 6
REMARK VINA RESULT:      -8.2      1.069      1.478
REMARK  Name = 
REMARK  7 active torsions:
REMARK  status: ('A' for Active; 'I' for Inactive)
REMARK    1  A    between atoms: C_1  and  C_2
REMARK    2  A    between atoms: C_4  and  C_5
REMARK    3  A    between atoms: C_5  and  N_6
REMARK    4  A    between atoms: C_7  and  C_9
REMARK    5  A    between atoms: C_9  and  C_10
REMARK    6  A    between atoms: C_10  and  C_11
REMARK    7  A    between atoms: N_21  and  C_22
REMARK                            x       y       z     vdW  Elec       q    Type
REMARK                         _______ _______ _______ _____ _____    ______ ____
ROOT
ATOM      1  C   UNL     1       8.018   6.574  18.905  0.00  0.00    +0.000 C 
ENDROOT
BRANCH   1   3
ATOM      2  N   UNL     1       8.345   8.888  18.347  0.00  0.00    +0.000 N 
ATOM      3  C   UNL     1       7.870   7.682  17.884  0.00  0.00    +0.000 C 
ATOM      4  O   UNL     1       7.364   7.523  16.790  0.00  0.00    +0.000 OA
ATOM      5  H   UNL     1       8.730   8.930  19.277  0.00  0.00    +0.000 HD
BRANCH   2   6
ATOM      6  C   UNL     1       8.267  10.085  17.540  0.00  0.00    +0.000 C 
BRANCH   6  10
ATOM      7  C   UNL     1      12.332  11.851  20.003  0.00  0.00    +0.000 C 
ATOM      8  C   UNL     1      11.059  12.107  19.254  0.00  0.00    +0.000 A 
ATOM      9  C   UNL     1      10.311  11.030  18.756  0.00  0.00    +0.000 A 
ATOM     10  C   UNL     1       9.109  11.234  18.051  0.00  0.00    +0.000 A 
ATOM     11  C   UNL     1       8.680  12.553  17.842  0.00  0.00    +0.000 A 
ATOM     12  C   UNL     1       9.422  13.634  18.331  0.00  0.00    +0.000 A 
ATOM     13  C   UNL     1      10.599  13.402  19.032  0.00  0.00    +0.000 A 
ATOM     14  F   UNL     1      11.296  14.449  19.497  0.00  0.00    +0.000 F 
ENDBRANCH   6  10
ENDBRANCH   2   6
ENDBRANCH   1   3
BRANCH   1  15
ATOM     15  C   UNL     1       7.738   5.217  18.267  0.00  0.00    +0.000 C 
BRANCH  15  16
ATOM     16  C   UNL     1       6.246   4.964  18.124  0.00  0.00    +0.000 A 
ATOM     17  N   UNL     1       5.480   5.246  19.133  0.00  0.00    +0.000 NA
ATOM     18  C   UNL     1       4.119   4.945  19.055  0.00  0.00    +0.000 A 
ATOM     19  C   UNL     1       3.312   5.103  20.184  0.00  0.00    +0.000 A 
ATOM     20  C   UNL     1       1.982   4.668  20.170  0.00  0.00    +0.000 A 
ATOM     21  C   UNL     1       1.436   4.116  19.012  0.00  0.00    +0.000 A 
ATOM     22  C   UNL     1       2.207   4.039  17.857  0.00  0.00    +0.000 A 
ATOM     23  C   UNL     1       3.547   4.426  17.901  0.00  0.00    +0.000 A 
ATOM     24  C   UNL     1       4.420   4.213  16.738  0.00  0.00    +0.000 A 
ATOM     25  O   UNL     1       3.922   3.830  15.685  0.00  0.00    +0.000 OA
ATOM     26  N   UNL     1       5.778   4.436  16.933  0.00  0.00    +0.000 N 
ATOM     27  C   UNL     1       6.654   4.081  15.823  0.00  0.00    +0.000 C 
ENDBRANCH  15  16
ENDBRANCH   1  15
TORSDOF 5
ENDMDL
MODEL 7
REMARK VINA RESULT:      -8.2      6.599      8.617
REMARK  Name = 
REMARK  7 active torsions:
REMARK  status: ('A' for Active; 'I' for Inactive)
REMARK    1  A    between atoms: C_1  and  C_2
REMARK    2  A    between atoms: C_4  and  C_5
REMARK    3  A    between atoms: C_5  and  N_6
REMARK    4  A    between atoms: C_7  and  C_9
REMARK    5  A    between atoms: C_9  and  C_10
REMARK    6  A    between atoms: C_10  and  C_11
REMARK    7  A    between atoms: N_21  and  C_22
REMARK                            x       y       z     vdW  Elec       q    Type
REMARK                         _______ _______ _______ _____ _____    ______ ____
ROOT
ATOM      1  C   UNL     1       2.253   8.622  17.478  0.00  0.00    +0.000 C 
ENDROOT
BRANCH   1   3
ATOM      2  N   UNL     1       0.418  10.077  18.013  0.00  0.00    +0.000 N 
ATOM      3  C   UNL     1       1.339   9.199  18.538  0.00  0.00    +0.000 C 
ATOM      4  O   UNL     1       1.431   8.932  19.720  0.00  0.00    +0.000 OA
ATOM      5  H   UNL     1       0.430  10.254  17.021  0.00  0.00    +0.000 HD
BRANCH   2   6
ATOM      6  C   UNL     1      -0.529  10.767  18.862  0.00  0.00    +0.000 C 
BRANCH   6  10
ATOM      7  C   UNL     1      -3.729  10.279  14.960  0.00  0.00    +0.000 C 
ATOM      8  C   UNL     1      -3.442  10.774  16.344  0.00  0.00    +0.000 A 
ATOM      9  C   UNL     1      -2.190  10.531  16.930  0.00  0.00    +0.000 A 
ATOM     10  C   UNL     1      -1.885  10.985  18.228  0.00  0.00    +0.000 A 
ATOM     11  C   UNL     1      -2.877  11.680  18.936  0.00  0.00    +0.000 A 
ATOM     12  C   UNL     1      -4.129  11.923  18.362  0.00  0.00    +0.000 A 
ATOM     13  C   UNL     1      -4.399  11.472  17.076  0.00  0.00    +0.000 A 
ATOM     14  F   UNL     1      -5.604  11.718  16.539  0.00  0.00    +0.000 F 
ENDBRANCH   6  10
ENDBRANCH   2   6
ENDBRANCH   1   3
BRANCH   1  15
ATOM     15  C   UNL     1       3.424   7.886  18.123  0.00  0.00    +0.000 C 
BRANCH  15  16
ATOM     16  C   UNL     1       3.278   6.379  17.990  0.00  0.00    +0.000 A 
ATOM     17  N   UNL     1       2.288   5.805  18.603  0.00  0.00    +0.000 NA
ATOM     18  C   UNL     1       2.181   4.414  18.564  0.00  0.00    +0.000 A 
ATOM     19  C   UNL     1       1.212   3.774  19.339  0.00  0.00    +0.000 A 
ATOM     20  C   UNL     1       1.185   2.377  19.429  0.00  0.00    +0.000 A 
ATOM     21  C   UNL     1       2.097   1.610  18.706  0.00  0.00    +0.000 A 
ATOM     22  C   UNL     1       3.007   2.237  17.861  0.00  0.00    +0.000 A 
ATOM     23  C   UNL     1       3.058   3.632  17.823  0.00  0.00    +0.000 A 
ATOM     24  C   UNL     1       4.108   4.315  17.056  0.00  0.00    +0.000 A 
ATOM     25  O   UNL     1       4.843   3.650  16.334  0.00  0.00    +0.000 OA
ATOM     26  N   UNL     1       4.211   5.690  17.235  0.00  0.00    +0.000 N 
ATOM     27  C   UNL     1       5.345   6.340  16.589  0.00  0.00    +0.000 C 
ENDBRANCH  15  16
ENDBRANCH   1  15
TORSDOF 5
ENDMDL
MODEL 8
REMARK VINA RESULT:      -8.1      6.032      7.991
REMARK  Name = 
REMARK  7 active torsions:
REMARK  status: ('A' for Active; 'I' for Inactive)
REMARK    1  A    between atoms: C_1  and  C_2
REMARK    2  A    between atoms: C_4  and  C_5
REMARK    3  A    between atoms: C_5  and  N_6
REMARK    4  A    between atoms: C_7  and  C_9
REMARK    5  A    between atoms: C_9  and  C_10
REMARK    6  A    between atoms: C_10  and  C_11
REMARK    7  A    between atoms: N_21  and  C_22
REMARK                            x       y       z     vdW  Elec       q    Type
REMARK                         _______ _______ _______ _____ _____    ______ ____
ROOT
ATOM      1  C   UNL     1       2.509   8.016  17.288  0.00  0.00    +0.000 C 
ENDROOT
BRANCH   1   3
ATOM      2  N   UNL     1       1.035   9.029  18.892  0.00  0.00    +0.000 N 
ATOM      3  C   UNL     1       1.998   9.282  17.941  0.00  0.00    +0.000 C 
ATOM      4  O   UNL     1       2.381  10.395  17.638  0.00  0.00    +0.000 OA
ATOM      5  H   UNL     1       0.765   8.073  19.063  0.00  0.00    +0.000 HD
BRANCH   2   6
ATOM      6  C   UNL     1       0.391  10.105  19.612  0.00  0.00    +0.000 C 
BRANCH   6  10
ATOM      7  C   UNL     1      -3.068   9.950  15.909  0.00  0.00    +0.000 C 
ATOM      8  C   UNL     1      -2.587  10.521  17.207  0.00  0.00    +0.000 A 
ATOM      9  C   UNL     1      -1.395  10.052  17.780  0.00  0.00    +0.000 A 
ATOM     10  C   UNL     1      -0.912  10.568  18.998  0.00  0.00    +0.000 A 
ATOM     11  C   UNL     1      -1.665  11.562  19.641  0.00  0.00    +0.000 A 
ATOM     12  C   UNL     1      -2.858  12.032  19.081  0.00  0.00    +0.000 A 
ATOM     13  C   UNL     1      -3.305  11.511  17.872  0.00  0.00    +0.000 A 
ATOM     14  F   UNL     1      -4.448  11.977  17.346  0.00  0.00    +0.000 F 
ENDBRANCH   6  10
ENDBRANCH   2   6
ENDBRANCH   1   3
BRANCH   1  15
ATOM     15  C   UNL     1       3.814   7.567  17.937  0.00  0.00    +0.000 C 
BRANCH  15  16
ATOM     16  C   UNL     1       3.669   6.207  18.600  0.00  0.00    +0.000 A 
ATOM     17  N   UNL     1       2.509   5.885  19.087  0.00  0.00    +0.000 NA
ATOM     18  C   UNL     1       2.373   4.677  19.772  0.00  0.00    +0.000 A 
ATOM     19  C   UNL     1       1.176   4.388  20.429  0.00  0.00    +0.000 A 
ATOM     20  C   UNL     1       1.070   3.254  21.244  0.00  0.00    +0.000 A 
ATOM     21  C   UNL     1       2.146   2.376  21.368  0.00  0.00    +0.000 A 
ATOM     22  C   UNL     1       3.312   2.610  20.645  0.00  0.00    +0.000 A 
ATOM     23  C   UNL     1       3.422   3.773  19.880  0.00  0.00    +0.000 A 
ATOM     24  C   UNL     1       4.695   4.116  19.231  0.00  0.00    +0.000 A 
ATOM     25  O   UNL     1       5.608   3.298  19.247  0.00  0.00    +0.000 OA
ATOM     26  N   UNL     1       4.779   5.382  18.663  0.00  0.00    +0.000 N 
ATOM     27  C   UNL     1       6.088   5.773  18.153  0.00  0.00    +0.000 C 
ENDBRANCH  15  16
ENDBRANCH   1  15
TORSDOF 5
ENDMDL
MODEL 9
REMARK VINA RESULT:      -8.1      5.800      7.540
REMARK  Name = 
REMARK  7 active torsions:
REMARK  status: ('A' for Active; 'I' for Inactive)
REMARK    1  A    between atoms: C_1  and  C_2
REMARK    2  A    between atoms: C_4  and  C_5
REMARK    3  A    between atoms: C_5  and  N_6
REMARK    4  A    between atoms: C_7  and  C_9
REMARK    5  A    between atoms: C_9  and  C_10
REMARK    6  A    between atoms: C_10  and  C_11
REMARK    7  A    between atoms: N_21  and  C_22
REMARK                            x       y       z     vdW  Elec       q    Type
REMARK                         _______ _______ _______ _____ _____    ______ ____
ROOT
ATOM      1  C   UNL     1       1.868   8.163  17.494  0.00  0.00    +0.000 C 
ENDROOT
BRANCH   1   3
ATOM      2  N   UNL     1       0.352   9.885  18.207  0.00  0.00    +0.000 N 
ATOM      3  C   UNL     1       1.652   9.621  17.837  0.00  0.00    +0.000 C 
ATOM      4  O   UNL     1       2.526  10.463  17.766  0.00  0.00    +0.000 OA
ATOM      5  H   UNL     1      -0.310   9.127  18.216  0.00  0.00    +0.000 HD
BRANCH   2   6
ATOM      6  C   UNL     1      -0.075  11.226  18.541  0.00  0.00    +0.000 C 
BRANCH   6  10
ATOM      7  C   UNL     1      -0.287   9.732  23.381  0.00  0.00    +0.000 C 
ATOM      8  C   UNL     1      -0.738  10.654  22.290  0.00  0.00    +0.000 A 
ATOM      9  C   UNL     1      -0.205  10.526  20.999  0.00  0.00    +0.000 A 
ATOM     10  C   UNL     1      -0.608  11.374  19.949  0.00  0.00    +0.000 A 
ATOM     11  C   UNL     1      -1.553  12.372  20.231  0.00  0.00    +0.000 A 
ATOM     12  C   UNL     1      -2.086  12.511  21.516  0.00  0.00    +0.000 A 
ATOM     13  C   UNL     1      -1.677  11.653  22.530  0.00  0.00    +0.000 A 
ATOM     14  F   UNL     1      -2.202  11.798  23.757  0.00  0.00    +0.000 F 
ENDBRANCH   6  10
ENDBRANCH   2   6
ENDBRANCH   1   3
BRANCH   1  15
ATOM     15  C   UNL     1       3.303   7.747  17.802  0.00  0.00    +0.000 C 
BRANCH  15  16
ATOM     16  C   UNL     1       3.358   6.385  18.474  0.00  0.00    +0.000 A 
ATOM     17  N   UNL     1       2.277   5.937  19.036  0.00  0.00    +0.000 NA
ATOM     18  C   UNL     1       2.325   4.727  19.730  0.00  0.00    +0.000 A 
ATOM     19  C   UNL     1       1.214   4.308  20.464  0.00  0.00    +0.000 A 
ATOM     20  C   UNL     1       1.292   3.176  21.285  0.00  0.00    +0.000 A 
ATOM     21  C   UNL     1       2.468   2.429  21.339  0.00  0.00    +0.000 A 
ATOM     22  C   UNL     1       3.549   2.789  20.542  0.00  0.00    +0.000 A 
ATOM     23  C   UNL     1       3.476   3.950  19.770  0.00  0.00    +0.000 A 
ATOM     24  C   UNL     1       4.656   4.431  19.040  0.00  0.00    +0.000 A 
ATOM     25  O   UNL     1       5.657   3.724  18.997  0.00  0.00    +0.000 OA
ATOM     26  N   UNL     1       4.558   5.694  18.466  0.00  0.00    +0.000 N 
ATOM     27  C   UNL     1       5.777   6.227  17.871  0.00  0.00    +0.000 C 
ENDBRANCH  15  16
ENDBRANCH   1  15
TORSDOF 5
ENDMDL
