MODEL 1
REMARK VINA RESULT:      -8.2      0.000      0.000
REMARK  Name = 
REMARK  7 active torsions:
REMARK  status: ('A' for Active; 'I' for Inactive)
REMARK    1  A    between atoms: C_1  and  C_2
REMARK    2  A    between atoms: C_4  and  C_5
REMARK    3  A    between atoms: N_6  and  C_7
REMARK    4  A    between atoms: C_7  and  C_8
REMARK    5  A    between atoms: C_11  and  C_12
REMARK    6  A    between atoms: N_14  and  C_15
REMARK    7  A    between atoms: C_21  and  N_22
REMARK                            x       y       z     vdW  Elec       q    Type
REMARK                         _______ _______ _______ _____ _____    ______ ____
ROOT
ATOM      1  C   UNL     1       3.653   6.041  17.842  0.00  0.00    +0.000 C 
ATOM      2  O   UNL     1       3.553   4.894  18.264  0.00  0.00    +0.000 OA
ATOM      3  N   UNL     1       4.475   6.446  16.803  0.00  0.00    +0.000 N 
ATOM      4  H   UNL     1       4.574   7.446  16.631  0.00  0.00    +0.000 HD
ENDROOT
BRANCH   3   5
ATOM      5  C   UNL     1       5.275   5.627  15.963  0.00  0.00    +0.000 A 
ATOM      6  C   UNL     1       4.747   5.073  14.784  0.00  0.00    +0.000 A 
ATOM      7  C   UNL     1       5.530   4.285  13.941  0.00  0.00    +0.000 A 
ATOM      8 CL   UNL     1       4.839   3.588  12.527  0.00  0.00    +0.000 Cl
ATOM      9  C   UNL     1       6.865   4.056  14.235  0.00  0.00    +0.000 A 
ATOM     10  C   UNL     1       7.421   4.600  15.394  0.00  0.00    +0.000 A 
ATOM     11  C   UNL     1       6.635   5.369  16.280  0.00  0.00    +0.000 A 
BRANCH  11  12
ATOM     12  N   UNL     1       7.222   5.803  17.507  0.00  0.00    +0.000 N 
ATOM     13  C   UNL     1       7.759   7.033  17.819  0.00  0.00    +0.000 A 
ATOM     14  N   UNL     1       8.315   7.012  19.008  0.00  0.00    +0.000 NA
ATOM     15  C   UNL     1       8.079   5.742  19.426  0.00  0.00    +0.000 A 
ATOM     16  N   UNL     1       7.389   4.976  18.578  0.00  0.00    +0.000 NA
ENDBRANCH  11  12
ENDBRANCH   3   5
BRANCH   1  20
ATOM     17  C   UNL     1       1.230   9.162  19.576  0.00  0.00    +0.000 A 
ATOM     18  C   UNL     1       1.530   8.017  20.332  0.00  0.00    +0.000 A 
ATOM     19  C   UNL     1       2.310   6.982  19.798  0.00  0.00    +0.000 A 
ATOM     20  C   UNL     1       2.813   7.088  18.499  0.00  0.00    +0.000 A 
ATOM     21  C   UNL     1       2.511   8.231  17.742  0.00  0.00    +0.000 A 
ATOM     22  C   UNL     1       1.733   9.261  18.275  0.00  0.00    +0.000 A 
BRANCH  17  23
ATOM     23  C   UNL     1       0.377  10.264  20.160  0.00  0.00    +0.000 C 
BRANCH  23  29
ATOM     24  C   UNL     1      -3.460  10.107  17.210  0.00  0.00    +0.000 C 
ATOM     25  C   UNL     1      -2.276  10.678  17.896  0.00  0.00    +0.000 A 
ATOM     26  C   UNL     1      -1.717  11.962  17.741  0.00  0.00    +0.000 A 
ATOM     27  C   UNL     1      -0.636  12.000  18.596  0.00  0.00    +0.000 A 
ATOM     28  C   UNL     1       0.350  13.079  18.844  0.00  0.00    +0.000 C 
ATOM     29  N   UNL     1      -0.615  10.772  19.218  0.00  0.00    +0.000 N 
ATOM     30  N   UNL     1      -1.586   9.942  18.773  0.00  0.00    +0.000 NA
ENDBRANCH  23  29
ENDBRANCH  17  23
ENDBRANCH   1  20
TORSDOF 5
ENDMDL
MODEL 2
REMARK VINA RESULT:      -8.0      4.826      9.899
REMARK  Name = 
REMARK  7 active torsions:
REMARK  status: ('A' for Active; 'I' for Inactive)
REMARK    1  A    between atoms: C_1  and  C_2
REMARK    2  A    between atoms: C_4  and  C_5
REMARK    3  A    between atoms: N_6  and  C_7
REMARK    4  A    between atoms: C_7  and  C_8
REMARK    5  A    between atoms: C_11  and  C_12
REMARK    6  A    between atoms: N_14  and  C_15
REMARK    7  A    between atoms: C_21  and  N_22
REMARK                            x       y       z     vdW  Elec       q    Type
REMARK                         _______ _______ _______ _____ _____    ______ ____
ROOT
ATOM      1  C   UNL     1       0.282  10.235  21.864  0.00  0.00    +0.000 C 
ATOM      2  O   UNL     1       0.553   9.965  23.028  0.00  0.00    +0.000 OA
ATOM      3  N   UNL     1      -0.571  11.245  21.450  0.00  0.00    +0.000 N 
ATOM      4  H   UNL     1      -0.824  11.288  20.464  0.00  0.00    +0.000 HD
ENDROOT
BRANCH   3   5
ATOM      5  C   UNL     1      -1.213  12.221  22.259  0.00  0.00    +0.000 A 
ATOM      6  C   UNL     1      -2.344  11.890  23.024  0.00  0.00    +0.000 A 
ATOM      7  C   UNL     1      -2.969  12.834  23.838  0.00  0.00    +0.000 A 
ATOM      8 CL   UNL     1      -4.377  12.406  24.730  0.00  0.00    +0.000 Cl
ATOM      9  C   UNL     1      -2.464  14.122  23.933  0.00  0.00    +0.000 A 
ATOM     10  C   UNL     1      -1.337  14.479  23.192  0.00  0.00    +0.000 A 
ATOM     11  C   UNL     1      -0.712  13.548  22.334  0.00  0.00    +0.000 A 
BRANCH  11  12
ATOM     12  N   UNL     1       0.365  13.997  21.511  0.00  0.00    +0.000 N 
ATOM     13  C   UNL     1       0.349  14.946  20.511  0.00  0.00    +0.000 A 
ATOM     14  N   UNL     1       1.508  14.997  19.898  0.00  0.00    +0.000 NA
ATOM     15  C   UNL     1       2.242  14.072  20.568  0.00  0.00    +0.000 A 
ATOM     16  N   UNL     1       1.617  13.463  21.578  0.00  0.00    +0.000 NA
ENDBRANCH  11  12
ENDBRANCH   3   5
BRANCH   1  20
ATOM     17  C   UNL     1       2.180   7.712  18.922  0.00  0.00    +0.000 A 
ATOM     18  C   UNL     1       1.663   8.959  18.536  0.00  0.00    +0.000 A 
ATOM     19  C   UNL     1       1.036   9.801  19.464  0.00  0.00    +0.000 A 
ATOM     20  C   UNL     1       0.930   9.409  20.801  0.00  0.00    +0.000 A 
ATOM     21  C   UNL     1       1.444   8.161  21.187  0.00  0.00    +0.000 A 
ATOM     22  C   UNL     1       2.068   7.322  20.261  0.00  0.00    +0.000 A 
BRANCH  17  23
ATOM     23  C   UNL     1       2.842   6.808  17.909  0.00  0.00    +0.000 C 
BRANCH  23  29
ATOM     24  C   UNL     1       0.934   2.431  18.716  0.00  0.00    +0.000 C 
ATOM     25  C   UNL     1       1.962   3.499  18.691  0.00  0.00    +0.000 A 
ATOM     26  C   UNL     1       3.292   3.436  19.154  0.00  0.00    +0.000 A 
ATOM     27  C   UNL     1       3.828   4.682  18.906  0.00  0.00    +0.000 A 
ATOM     28  C   UNL     1       5.178   5.219  19.202  0.00  0.00    +0.000 C 
ATOM     29  N   UNL     1       2.822   5.403  18.304  0.00  0.00    +0.000 N 
ATOM     30  N   UNL     1       1.667   4.707  18.201  0.00  0.00    +0.000 NA
ENDBRANCH  23  29
ENDBRANCH  17  23
ENDBRANCH   1  20
TORSDOF 5
ENDMDL
MODEL 3
REMARK VINA RESULT:      -8.0      4.580      9.512
REMARK  Name = 
REMARK  7 active torsions:
REMARK  status: ('A' for Active; 'I' for Inactive)
REMARK    1  A    between atoms: C_1  and  C_2
REMARK    2  A    between atoms: C_4  and  C_5
REMARK    3  A    between atoms: N_6  and  C_7
REMARK    4  A    between atoms: C_7  and  C_8
REMARK    5  A    between atoms: C_11  and  C_12
REMARK    6  A    between atoms: N_14  and  C_15
REMARK    7  A    between atoms: C_21  and  N_22
REMARK                            x       y       z     vdW  Elec       q    Type
REMARK                         _______ _______ _______ _____ _____    ______ ____
ROOT
ATOM      1  C   UNL     1       0.165  10.662  19.905  0.00  0.00    +0.000 C 
ATOM      2  O   UNL     1      -0.612  11.165  19.102  0.00  0.00    +0.000 OA
ATOM      3  N   UNL     1       0.324  11.053  21.224  0.00  0.00    +0.000 N 
ATOM      4  H   UNL     1       1.094  10.650  21.755  0.00  0.00    +0.000 HD
ENDROOT
BRANCH   3   5
ATOM      5  C   UNL     1      -0.432  12.022  21.936  0.00  0.00    +0.000 A 
ATOM      6  C   UNL     1      -1.588  11.655  22.646  0.00  0.00    +0.000 A 
ATOM      7  C   UNL     1      -2.325  12.594  23.365  0.00  0.00    +0.000 A 
ATOM      8 CL   UNL     1      -3.758  12.117  24.189  0.00  0.00    +0.000 Cl
ATOM      9  C   UNL     1      -1.911  13.917  23.421  0.00  0.00    +0.000 A 
ATOM     10  C   UNL     1      -0.763  14.311  22.733  0.00  0.00    +0.000 A 
ATOM     11  C   UNL     1      -0.024  13.382  21.969  0.00  0.00    +0.000 A 
BRANCH  11  12
ATOM     12  N   UNL     1       1.074  13.862  21.192  0.00  0.00    +0.000 N 
ATOM     13  C   UNL     1       1.051  14.627  20.045  0.00  0.00    +0.000 A 
ATOM     14  N   UNL     1       2.259  14.763  19.551  0.00  0.00    +0.000 NA
ATOM     15  C   UNL     1       3.025  14.083  20.441  0.00  0.00    +0.000 A 
ATOM     16  N   UNL     1       2.370  13.548  21.474  0.00  0.00    +0.000 NA
ENDBRANCH  11  12
ENDBRANCH   3   5
BRANCH   1  20
ATOM     17  C   UNL     1       2.613   7.471  18.339  0.00  0.00    +0.000 A 
ATOM     18  C   UNL     1       2.220   7.446  19.688  0.00  0.00    +0.000 A 
ATOM     19  C   UNL     1       1.430   8.469  20.230  0.00  0.00    +0.000 A 
ATOM     20  C   UNL     1       1.008   9.527  19.421  0.00  0.00    +0.000 A 
ATOM     21  C   UNL     1       1.403   9.554  18.074  0.00  0.00    +0.000 A 
ATOM     22  C   UNL     1       2.191   8.535  17.535  0.00  0.00    +0.000 A 
BRANCH  17  23
ATOM     23  C   UNL     1       3.475   6.369  17.770  0.00  0.00    +0.000 C 
BRANCH  23  29
ATOM     24  C   UNL     1       0.642   2.592  18.844  0.00  0.00    +0.000 C 
ATOM     25  C   UNL     1       1.871   3.419  18.801  0.00  0.00    +0.000 A 
ATOM     26  C   UNL     1       3.125   3.143  19.380  0.00  0.00    +0.000 A 
ATOM     27  C   UNL     1       3.927   4.218  19.056  0.00  0.00    +0.000 A 
ATOM     28  C   UNL     1       5.338   4.500  19.411  0.00  0.00    +0.000 C 
ATOM     29  N   UNL     1       3.135   5.052  18.300  0.00  0.00    +0.000 N 
ATOM     30  N   UNL     1       1.868   4.597  18.169  0.00  0.00    +0.000 NA
ENDBRANCH  23  29
ENDBRANCH  17  23
ENDBRANCH   1  20
TORSDOF 5
ENDMDL
MODEL 4
REMARK VINA RESULT:      -7.9      4.117      9.968
REMARK  Name = 
REMARK  7 active torsions:
REMARK  status: ('A' for Active; 'I' for Inactive)
REMARK    1  A    between atoms: C_1  and  C_2
REMARK    2  A    between atoms: C_4  and  C_5
REMARK    3  A    between atoms: N_6  and  C_7
REMARK    4  A    between atoms: C_7  and  C_8
REMARK    5  A    between atoms: C_11  and  C_12
REMARK    6  A    between atoms: N_14  and  C_15
REMARK    7  A    between atoms: C_21  and  N_22
REMARK                            x       y       z     vdW  Elec       q    Type
REMARK                         _______ _______ _______ _____ _____    ______ ____
ROOT
ATOM      1  C   UNL     1       0.042   9.785  20.353  0.00  0.00    +0.000 C 
ATOM      2  O   UNL     1      -0.393   9.249  21.365  0.00  0.00    +0.000 OA
ATOM      3  N   UNL     1      -0.326  11.036  19.884  0.00  0.00    +0.000 N 
ATOM      4  H   UNL     1       0.001  11.319  18.961  0.00  0.00    +0.000 HD
ENDROOT
BRANCH   3   5
ATOM      5  C   UNL     1      -1.182  11.979  20.514  0.00  0.00    +0.000 A 
ATOM      6  C   UNL     1      -0.866  12.505  21.778  0.00  0.00    +0.000 A 
ATOM      7  C   UNL     1      -1.688  13.447  22.396  0.00  0.00    +0.000 A 
ATOM      8 CL   UNL     1      -1.292  14.039  23.962  0.00  0.00    +0.000 Cl
ATOM      9  C   UNL     1      -2.828  13.910  21.756  0.00  0.00    +0.000 A 
ATOM     10  C   UNL     1      -3.163  13.413  20.496  0.00  0.00    +0.000 A 
ATOM     11  C   UNL     1      -2.364  12.431  19.870  0.00  0.00    +0.000 A 
BRANCH  11  12
ATOM     12  N   UNL     1      -2.815  11.873  18.636  0.00  0.00    +0.000 N 
ATOM     13  C   UNL     1      -4.059  11.369  18.321  0.00  0.00    +0.000 A 
ATOM     14  N   UNL     1      -4.054  10.830  17.125  0.00  0.00    +0.000 NA
ATOM     15  C   UNL     1      -2.781  11.042  16.706  0.00  0.00    +0.000 A 
ATOM     16  N   UNL     1      -1.996  11.701  17.561  0.00  0.00    +0.000 NA
ENDBRANCH  11  12
ENDBRANCH   3   5
BRANCH   1  20
ATOM     17  C   UNL     1       2.990   7.477  18.208  0.00  0.00    +0.000 A 
ATOM     18  C   UNL     1       2.399   8.591  17.590  0.00  0.00    +0.000 A 
ATOM     19  C   UNL     1       1.435   9.360  18.256  0.00  0.00    +0.000 A 
ATOM     20  C   UNL     1       1.058   9.029  19.561  0.00  0.00    +0.000 A 
ATOM     21  C   UNL     1       1.647   7.914  20.177  0.00  0.00    +0.000 A 
ATOM     22  C   UNL     1       2.607   7.148  19.513  0.00  0.00    +0.000 A 
BRANCH  17  23
ATOM     23  C   UNL     1       4.020   6.649  17.474  0.00  0.00    +0.000 C 
BRANCH  23  29
ATOM     24  C   UNL     1       2.347   2.131  17.953  0.00  0.00    +0.000 C 
ATOM     25  C   UNL     1       3.262   3.283  18.131  0.00  0.00    +0.000 A 
ATOM     26  C   UNL     1       4.452   3.341  18.883  0.00  0.00    +0.000 A 
ATOM     27  C   UNL     1       4.926   4.627  18.728  0.00  0.00    +0.000 A 
ATOM     28  C   UNL     1       6.124   5.281  19.304  0.00  0.00    +0.000 C 
ATOM     29  N   UNL     1       4.027   5.252  17.894  0.00  0.00    +0.000 N 
ATOM     30  N   UNL     1       2.987   4.457  17.553  0.00  0.00    +0.000 NA
ENDBRANCH  23  29
ENDBRANCH  17  23
ENDBRANCH   1  20
TORSDOF 5
ENDMDL
MODEL 5
REMARK VINA RESULT:      -7.9      3.644      9.793
REMARK  Name = 
REMARK  7 active torsions:
REMARK  status: ('A' for Active; 'I' for Inactive)
REMARK    1  A    between atoms: C_1  and  C_2
REMARK    2  A    between atoms: C_4  and  C_5
REMARK    3  A    between atoms: N_6  and  C_7
REMARK    4  A    between atoms: C_7  and  C_8
REMARK    5  A    between atoms: C_11  and  C_12
REMARK    6  A    between atoms: N_14  and  C_15
REMARK    7  A    between atoms: C_21  and  N_22
REMARK                            x       y       z     vdW  Elec       q    Type
REMARK                         _______ _______ _______ _____ _____    ______ ____
ROOT
ATOM      1  C   UNL     1       1.100  10.151  19.360  0.00  0.00    +0.000 C 
ATOM      2  O   UNL     1       1.629  11.156  18.899  0.00  0.00    +0.000 OA
ATOM      3  N   UNL     1      -0.036  10.132  20.152  0.00  0.00    +0.000 N 
ATOM      4  H   UNL     1      -0.304   9.251  20.587  0.00  0.00    +0.000 HD
ENDROOT
BRANCH   3   5
ATOM      5  C   UNL     1      -0.865  11.232  20.503  0.00  0.00    +0.000 A 
ATOM      6  C   UNL     1      -0.732  11.863  21.751  0.00  0.00    +0.000 A 
ATOM      7  C   UNL     1      -1.525  12.956  22.098  0.00  0.00    +0.000 A 
ATOM      8 CL   UNL     1      -1.364  13.679  23.651  0.00  0.00    +0.000 Cl
ATOM      9  C   UNL     1      -2.448  13.466  21.197  0.00  0.00    +0.000 A 
ATOM     10  C   UNL     1      -2.598  12.865  19.946  0.00  0.00    +0.000 A 
ATOM     11  C   UNL     1      -1.830  11.735  19.591  0.00  0.00    +0.000 A 
BRANCH  11  12
ATOM     12  N   UNL     1      -2.105  11.090  18.348  0.00  0.00    +0.000 N 
ATOM     13  C   UNL     1      -2.020  11.603  17.071  0.00  0.00    +0.000 A 
ATOM     14  N   UNL     1      -2.473  10.743  16.191  0.00  0.00    +0.000 NA
ATOM     15  C   UNL     1      -2.813   9.678  16.960  0.00  0.00    +0.000 A 
ATOM     16  N   UNL     1      -2.579   9.814  18.267  0.00  0.00    +0.000 NA
ENDBRANCH  11  12
ENDBRANCH   3   5
BRANCH   1  20
ATOM     17  C   UNL     1       2.866   6.290  18.592  0.00  0.00    +0.000 A 
ATOM     18  C   UNL     1       2.860   7.264  17.579  0.00  0.00    +0.000 A 
ATOM     19  C   UNL     1       2.291   8.526  17.793  0.00  0.00    +0.000 A 
ATOM     20  C   UNL     1       1.729   8.836  19.034  0.00  0.00    +0.000 A 
ATOM     21  C   UNL     1       1.732   7.862  20.045  0.00  0.00    +0.000 A 
ATOM     22  C   UNL     1       2.299   6.604  19.831  0.00  0.00    +0.000 A 
BRANCH  17  23
ATOM     23  C   UNL     1       3.472   4.928  18.343  0.00  0.00    +0.000 C 
BRANCH  23  29
ATOM     24  C   UNL     1       8.084   5.808  19.528  0.00  0.00    +0.000 C 
ATOM     25  C   UNL     1       6.935   5.405  18.682  0.00  0.00    +0.000 A 
ATOM     26  C   UNL     1       6.950   4.993  17.335  0.00  0.00    +0.000 A 
ATOM     27  C   UNL     1       5.635   4.732  17.013  0.00  0.00    +0.000 A 
ATOM     28  C   UNL     1       5.032   4.294  15.732  0.00  0.00    +0.000 C 
ATOM     29  N   UNL     1       4.920   4.977  18.164  0.00  0.00    +0.000 N 
ATOM     30  N   UNL     1       5.694   5.425  19.178  0.00  0.00    +0.000 NA
ENDBRANCH  23  29
ENDBRANCH  17  23
ENDBRANCH   1  20
TORSDOF 5
ENDMDL
MODEL 6
REMARK VINA RESULT:      -7.9      3.830      9.323
REMARK  Name = 
REMARK  7 active torsions:
REMARK  status: ('A' for Active; 'I' for Inactive)
REMARK    1  A    between atoms: C_1  and  C_2
REMARK    2  A    between atoms: C_4  and  C_5
REMARK    3  A    between atoms: N_6  and  C_7
REMARK    4  A    between atoms: C_7  and  C_8
REMARK    5  A    between atoms: C_11  and  C_12
REMARK    6  A    between atoms: N_14  and  C_15
REMARK    7  A    between atoms: C_21  and  N_22
REMARK                            x       y       z     vdW  Elec       q    Type
REMARK                         _______ _______ _______ _____ _____    ______ ____
ROOT
ATOM      1  C   UNL     1       1.142   9.042  21.052  0.00  0.00    +0.000 C 
ATOM      2  O   UNL     1       1.242   8.815  22.253  0.00  0.00    +0.000 OA
ATOM      3  N   UNL     1       0.515  10.142  20.492  0.00  0.00    +0.000 N 
ATOM      4  H   UNL     1       0.376  10.154  19.482  0.00  0.00    +0.000 HD
ENDROOT
BRANCH   3   5
ATOM      5  C   UNL     1      -0.038  11.262  21.169  0.00  0.00    +0.000 A 
ATOM      6  C   UNL     1      -1.127  11.109  22.044  0.00  0.00    +0.000 A 
ATOM      7  C   UNL     1      -1.663  12.197  22.730  0.00  0.00    +0.000 A 
ATOM      8 CL   UNL     1      -3.023  11.980  23.761  0.00  0.00    +0.000 Cl
ATOM      9  C   UNL     1      -1.107  13.460  22.586  0.00  0.00    +0.000 A 
ATOM     10  C   UNL     1      -0.019  13.642  21.732  0.00  0.00    +0.000 A 
ATOM     11  C   UNL     1       0.514  12.559  20.999  0.00  0.00    +0.000 A 
BRANCH  11  12
ATOM     12  N   UNL     1       1.550  12.823  20.052  0.00  0.00    +0.000 N 
ATOM     13  C   UNL     1       2.617  13.689  20.159  0.00  0.00    +0.000 A 
ATOM     14  N   UNL     1       3.285  13.748  19.032  0.00  0.00    +0.000 NA
ATOM     15  C   UNL     1       2.613  12.874  18.240  0.00  0.00    +0.000 A 
ATOM     16  N   UNL     1       1.579  12.256  18.813  0.00  0.00    +0.000 NA
ENDBRANCH  11  12
ENDBRANCH   3   5
BRANCH   1  20
ATOM     17  C   UNL     1       2.871   6.043  18.477  0.00  0.00    +0.000 A 
ATOM     18  C   UNL     1       2.739   7.362  18.013  0.00  0.00    +0.000 A 
ATOM     19  C   UNL     1       2.177   8.359  18.821  0.00  0.00    +0.000 A 
ATOM     20  C   UNL     1       1.752   8.050  20.116  0.00  0.00    +0.000 A 
ATOM     21  C   UNL     1       1.881   6.731  20.578  0.00  0.00    +0.000 A 
ATOM     22  C   UNL     1       2.440   5.738  19.772  0.00  0.00    +0.000 A 
BRANCH  17  23
ATOM     23  C   UNL     1       3.467   4.974  17.590  0.00  0.00    +0.000 C 
BRANCH  23  29
ATOM     24  C   UNL     1       7.926   5.736  19.318  0.00  0.00    +0.000 C 
ATOM     25  C   UNL     1       6.876   5.372  18.338  0.00  0.00    +0.000 A 
ATOM     26  C   UNL     1       7.040   4.981  16.993  0.00  0.00    +0.000 A 
ATOM     27  C   UNL     1       5.766   4.753  16.516  0.00  0.00    +0.000 A 
ATOM     28  C   UNL     1       5.308   4.348  15.167  0.00  0.00    +0.000 C 
ATOM     29  N   UNL     1       4.927   4.994  17.581  0.00  0.00    +0.000 N 
ATOM     30  N   UNL     1       5.586   5.410  18.686  0.00  0.00    +0.000 NA
ENDBRANCH  23  29
ENDBRANCH  17  23
ENDBRANCH   1  20
TORSDOF 5
ENDMDL
MODEL 7
REMARK VINA RESULT:      -7.9      3.484      4.885
REMARK  Name = 
REMARK  7 active torsions:
REMARK  status: ('A' for Active; 'I' for Inactive)
REMARK    1  A    between atoms: C_1  and  C_2
REMARK    2  A    between atoms: C_4  and  C_5
REMARK    3  A    between atoms: N_6  and  C_7
REMARK    4  A    between atoms: C_7  and  C_8
REMARK    5  A    between atoms: C_11  and  C_12
REMARK    6  A    between atoms: N_14  and  C_15
REMARK    7  A    between atoms: C_21  and  N_22
REMARK                            x       y       z     vdW  Elec       q    Type
REMARK                         _______ _______ _______ _____ _____    ______ ____
ROOT
ATOM      1  C   UNL     1       1.899   8.065  19.174  0.00  0.00    +0.000 C 
ATOM      2  O   UNL     1       2.093   8.653  18.116  0.00  0.00    +0.000 OA
ATOM      3  N   UNL     1       2.322   6.780  19.470  0.00  0.00    +0.000 N 
ATOM      4  H   UNL     1       1.986   6.349  20.330  0.00  0.00    +0.000 HD
ENDROOT
BRANCH   3   5
ATOM      5  C   UNL     1       3.137   5.932  18.672  0.00  0.00    +0.000 A 
ATOM      6  C   UNL     1       3.841   6.442  17.568  0.00  0.00    +0.000 A 
ATOM      7  C   UNL     1       4.660   5.624  16.791  0.00  0.00    +0.000 A 
ATOM      8 CL   UNL     1       5.475   6.272  15.421  0.00  0.00    +0.000 Cl
ATOM      9  C   UNL     1       4.822   4.285  17.114  0.00  0.00    +0.000 A 
ATOM     10  C   UNL     1       4.143   3.751  18.210  0.00  0.00    +0.000 A 
ATOM     11  C   UNL     1       3.280   4.555  18.987  0.00  0.00    +0.000 A 
BRANCH  11  12
ATOM     12  N   UNL     1       2.521   3.933  20.023  0.00  0.00    +0.000 N 
ATOM     13  C   UNL     1       2.964   3.389  21.210  0.00  0.00    +0.000 A 
ATOM     14  N   UNL     1       1.982   2.798  21.848  0.00  0.00    +0.000 NA
ATOM     15  C   UNL     1       0.920   3.017  21.032  0.00  0.00    +0.000 A 
ATOM     16  N   UNL     1       1.176   3.730  19.933  0.00  0.00    +0.000 NA
ENDBRANCH  11  12
ENDBRANCH   3   5
BRANCH   1  20
ATOM     17  C   UNL     1      -0.365  10.279  22.106  0.00  0.00    +0.000 A 
ATOM     18  C   UNL     1       0.538   9.290  22.530  0.00  0.00    +0.000 A 
ATOM     19  C   UNL     1       1.285   8.549  21.604  0.00  0.00    +0.000 A 
ATOM     20  C   UNL     1       1.148   8.800  20.237  0.00  0.00    +0.000 A 
ATOM     21  C   UNL     1       0.244   9.787  19.813  0.00  0.00    +0.000 A 
ATOM     22  C   UNL     1      -0.501  10.524  20.736  0.00  0.00    +0.000 A 
BRANCH  17  23
ATOM     23  C   UNL     1      -1.173  11.062  23.114  0.00  0.00    +0.000 C 
BRANCH  23  29
ATOM     24  C   UNL     1       0.364  15.625  22.599  0.00  0.00    +0.000 C 
ATOM     25  C   UNL     1      -0.586  14.488  22.605  0.00  0.00    +0.000 A 
ATOM     26  C   UNL     1      -1.970  14.509  22.337  0.00  0.00    +0.000 A 
ATOM     27  C   UNL     1      -2.393  13.204  22.473  0.00  0.00    +0.000 A 
ATOM     28  C   UNL     1      -3.748  12.619  22.339  0.00  0.00    +0.000 C 
ATOM     29  N   UNL     1      -1.264  12.482  22.788  0.00  0.00    +0.000 N 
ATOM     30  N   UNL     1      -0.163  13.257  22.910  0.00  0.00    +0.000 NA
ENDBRANCH  23  29
ENDBRANCH  17  23
ENDBRANCH   1  20
TORSDOF 5
ENDMDL
MODEL 8
REMARK VINA RESULT:      -7.9      4.357      9.749
REMARK  Name = 
REMARK  7 active torsions:
REMARK  status: ('A' for Active; 'I' for Inactive)
REMARK    1  A    between atoms: C_1  and  C_2
REMARK    2  A    between atoms: C_4  and  C_5
REMARK    3  A    between atoms: N_6  and  C_7
REMARK    4  A    between atoms: C_7  and  C_8
REMARK    5  A    between atoms: C_11  and  C_12
REMARK    6  A    between atoms: N_14  and  C_15
REMARK    7  A    between atoms: C_21  and  N_22
REMARK                            x       y       z     vdW  Elec       q    Type
REMARK                         _______ _______ _______ _____ _____    ______ ____
ROOT
ATOM      1  C   UNL     1       0.530   9.836  21.801  0.00  0.00    +0.000 C 
ATOM      2  O   UNL     1       0.842   9.701  22.979  0.00  0.00    +0.000 OA
ATOM      3  N   UNL     1      -0.325  10.804  21.302  0.00  0.00    +0.000 N 
ATOM      4  H   UNL     1      -0.615  10.734  20.327  0.00  0.00    +0.000 HD
ENDROOT
BRANCH   3   5
ATOM      5  C   UNL     1      -0.923  11.880  22.012  0.00  0.00    +0.000 A 
ATOM      6  C   UNL     1      -2.049  11.669  22.824  0.00  0.00    +0.000 A 
ATOM      7  C   UNL     1      -2.631  12.713  23.542  0.00  0.00    +0.000 A 
ATOM      8 CL   UNL     1      -4.034  12.426  24.495  0.00  0.00    +0.000 Cl
ATOM      9  C   UNL     1      -2.085  13.987  23.492  0.00  0.00    +0.000 A 
ATOM     10  C   UNL     1      -0.962  14.227  22.700  0.00  0.00    +0.000 A 
ATOM     11  C   UNL     1      -0.381  13.191  21.937  0.00  0.00    +0.000 A 
BRANCH  11  12
ATOM     12  N   UNL     1       0.694  13.517  21.055  0.00  0.00    +0.000 N 
ATOM     13  C   UNL     1       0.659  14.238  19.881  0.00  0.00    +0.000 A 
ATOM     14  N   UNL     1       1.829  14.220  19.288  0.00  0.00    +0.000 NA
ATOM     15  C   UNL     1       2.588  13.491  20.144  0.00  0.00    +0.000 A 
ATOM     16  N   UNL     1       1.968  13.071  21.249  0.00  0.00    +0.000 NA
ENDBRANCH  11  12
ENDBRANCH   3   5
BRANCH   1  20
ATOM     17  C   UNL     1       2.259   7.212  18.844  0.00  0.00    +0.000 A 
ATOM     18  C   UNL     1       2.026   6.733  20.144  0.00  0.00    +0.000 A 
ATOM     19  C   UNL     1       1.471   7.560  21.130  0.00  0.00    +0.000 A 
ATOM     20  C   UNL     1       1.127   8.879  20.822  0.00  0.00    +0.000 A 
ATOM     21  C   UNL     1       1.362   9.358  19.523  0.00  0.00    +0.000 A 
ATOM     22  C   UNL     1       1.916   8.534  18.542  0.00  0.00    +0.000 A 
BRANCH  17  23
ATOM     23  C   UNL     1       2.870   6.314  17.794  0.00  0.00    +0.000 C 
BRANCH  23  29
ATOM     24  C   UNL     1       7.612   7.206  17.383  0.00  0.00    +0.000 C 
ATOM     25  C   UNL     1       6.378   6.482  17.771  0.00  0.00    +0.000 A 
ATOM     26  C   UNL     1       6.271   5.244  18.437  0.00  0.00    +0.000 A 
ATOM     27  C   UNL     1       4.917   5.008  18.561  0.00  0.00    +0.000 A 
ATOM     28  C   UNL     1       4.198   3.853  19.149  0.00  0.00    +0.000 C 
ATOM     29  N   UNL     1       4.300   6.100  17.994  0.00  0.00    +0.000 N 
ATOM     30  N   UNL     1       5.177   6.987  17.474  0.00  0.00    +0.000 NA
ENDBRANCH  23  29
ENDBRANCH  17  23
ENDBRANCH   1  20
TORSDOF 5
ENDMDL
MODEL 9
REMARK VINA RESULT:      -7.8      5.233      9.996
REMARK  Name = 
REMARK  7 active torsions:
REMARK  status: ('A' for Active; 'I' for Inactive)
REMARK    1  A    between atoms: C_1  and  C_2
REMARK    2  A    between atoms: C_4  and  C_5
REMARK    3  A    between atoms: N_6  and  C_7
REMARK    4  A    between atoms: C_7  and  C_8
REMARK    5  A    between atoms: C_11  and  C_12
REMARK    6  A    between atoms: N_14  and  C_15
REMARK    7  A    between atoms: C_21  and  N_22
REMARK                            x       y       z     vdW  Elec       q    Type
REMARK                         _______ _______ _______ _____ _____    ______ ____
ROOT
ATOM      1  C   UNL     1      -0.360  10.841  20.575  0.00  0.00    +0.000 C 
ATOM      2  O   UNL     1      -1.202  11.176  19.749  0.00  0.00    +0.000 OA
ATOM      3  N   UNL     1      -0.156  11.444  21.805  0.00  0.00    +0.000 N 
ATOM      4  H   UNL     1       0.661  11.165  22.347  0.00  0.00    +0.000 HD
ENDROOT
BRANCH   3   5
ATOM      5  C   UNL     1      -0.925  12.481  22.399  0.00  0.00    +0.000 A 
ATOM      6  C   UNL     1      -2.106  12.189  23.101  0.00  0.00    +0.000 A 
ATOM      7  C   UNL     1      -2.856  13.196  23.706  0.00  0.00    +0.000 A 
ATOM      8 CL   UNL     1      -4.320  12.807  24.524  0.00  0.00    +0.000 Cl
ATOM      9  C   UNL     1      -2.431  14.515  23.652  0.00  0.00    +0.000 A 
ATOM     10  C   UNL     1      -1.258  14.836  22.969  0.00  0.00    +0.000 A 
ATOM     11  C   UNL     1      -0.504  13.835  22.318  0.00  0.00    +0.000 A 
BRANCH  11  12
ATOM     12  N   UNL     1       0.622  14.232  21.537  0.00  0.00    +0.000 N 
ATOM     13  C   UNL     1       0.645  14.797  20.279  0.00  0.00    +0.000 A 
ATOM     14  N   UNL     1       1.875  14.908  19.839  0.00  0.00    +0.000 NA
ATOM     15  C   UNL     1       2.608  14.421  20.873  0.00  0.00    +0.000 A 
ATOM     16  N   UNL     1       1.909  14.033  21.942  0.00  0.00    +0.000 NA
ENDBRANCH  11  12
ENDBRANCH   3   5
BRANCH   1  20
ATOM     17  C   UNL     1       2.125   7.414  19.737  0.00  0.00    +0.000 A 
ATOM     18  C   UNL     1       1.965   8.410  18.759  0.00  0.00    +0.000 A 
ATOM     19  C   UNL     1       1.161   9.533  18.996  0.00  0.00    +0.000 A 
ATOM     20  C   UNL     1       0.516   9.682  20.227  0.00  0.00    +0.000 A 
ATOM     21  C   UNL     1       0.674   8.686  21.203  0.00  0.00    +0.000 A 
ATOM     22  C   UNL     1       1.474   7.566  20.966  0.00  0.00    +0.000 A 
BRANCH  17  23
ATOM     23  C   UNL     1       2.985   6.202  19.464  0.00  0.00    +0.000 C 
BRANCH  23  29
ATOM     24  C   UNL     1       1.570   2.390  22.093  0.00  0.00    +0.000 C 
ATOM     25  C   UNL     1       1.718   3.258  20.901  0.00  0.00    +0.000 A 
ATOM     26  C   UNL     1       1.244   3.028  19.594  0.00  0.00    +0.000 A 
ATOM     27  C   UNL     1       1.640   4.126  18.859  0.00  0.00    +0.000 A 
ATOM     28  C   UNL     1       1.452   4.432  17.421  0.00  0.00    +0.000 C 
ATOM     29  N   UNL     1       2.298   4.946  19.747  0.00  0.00    +0.000 N 
ATOM     30  N   UNL     1       2.388   4.412  20.987  0.00  0.00    +0.000 NA
ENDBRANCH  23  29
ENDBRANCH  17  23
ENDBRANCH   1  20
TORSDOF 5
ENDMDL
