MODEL 1
REMARK VINA RESULT:      -8.8      0.000      0.000
REMARK  Name = 
REMARK  8 active torsions:
REMARK  status: ('A' for Active; 'I' for Inactive)
REMARK    1  A    between atoms: C_1  and  N_2
REMARK    2  A    between atoms: N_5  and  C_6
REMARK    3  A    between atoms: C_6  and  C_7
REMARK    4  A    between atoms: C_7  and  C_8
REMARK    5  A    between atoms: C_12  and  N_13
REMARK    6  A    between atoms: C_18  and  C_19
REMARK    7  A    between atoms: C_19  and  C_20
REMARK    8  A    between atoms: C_24  and  C_25
REMARK                            x       y       z     vdW  Elec       q    Type
REMARK                         _______ _______ _______ _____ _____    ______ ____
ROOT
ATOM      1  N   UNL     1       5.878   5.092  15.810  0.00  0.00    +0.000 N 
ATOM      2  C   UNL     1       4.759   6.059  15.902  0.00  0.00    +0.000 C 
ATOM      3  C   UNL     1       3.999   5.549  17.090  0.00  0.00    +0.000 A 
ATOM      4  C   UNL     1       4.254   4.180  17.193  0.00  0.00    +0.000 A 
ATOM      5  C   UNL     1       3.819   3.408  18.256  0.00  0.00    +0.000 A 
ATOM      6  C   UNL     1       3.092   4.045  19.267  0.00  0.00    +0.000 A 
ATOM      7  C   UNL     1       2.847   5.439  19.178  0.00  0.00    +0.000 A 
ATOM      8  C   UNL     1       3.301   6.217  18.090  0.00  0.00    +0.000 A 
ATOM      9  C   UNL     1       5.352   3.853  16.251  0.00  0.00    +0.000 C 
ATOM     10  O   UNL     1       5.795   2.736  16.087  0.00  0.00    +0.000 OA
ENDROOT
BRANCH   1  15
ATOM     11  C   UNL     1       7.697   7.598  17.733  0.00  0.00    +0.000 A 
ATOM     12  C   UNL     1       7.908   6.813  18.877  0.00  0.00    +0.000 A 
ATOM     13  C   UNL     1       7.899   5.426  18.802  0.00  0.00    +0.000 A 
ATOM     14  C   UNL     1       7.532   4.805  17.619  0.00  0.00    +0.000 A 
ATOM     15  C   UNL     1       7.030   5.583  16.565  0.00  0.00    +0.000 A 
ATOM     16  C   UNL     1       7.275   6.963  16.559  0.00  0.00    +0.000 A 
BRANCH  11  17
ATOM     17  C   UNL     1       7.807   9.110  17.766  0.00  0.00    +0.000 C 
BRANCH  17  18
ATOM     18  C   UNL     1       8.941   9.589  18.689  0.00  0.00    +0.000 C 
BRANCH  18  23
ATOM     19  C   UNL     1      12.333  12.015  19.857  0.00  0.00    +0.000 C 
ATOM     20  N   UNL     1      11.224  11.377  19.172  0.00  0.00    +0.000 NA
ATOM     21  C   UNL     1      10.797  12.102  17.976  0.00  0.00    +0.000 C 
ATOM     22  C   UNL     1       9.283  11.895  17.921  0.00  0.00    +0.000 C 
ATOM     23  N   UNL     1       8.933  11.017  19.050  0.00  0.00    +0.000 NA
ATOM     24  C   UNL     1      10.033  11.261  19.998  0.00  0.00    +0.000 C 
ENDBRANCH  18  23
ENDBRANCH  17  18
ENDBRANCH  11  17
ENDBRANCH   1  15
BRANCH   8  25
ATOM     25  C   UNL     1       3.106   7.712  18.119  0.00  0.00    +0.000 C 
ATOM     26  F   UNL     1       2.238   8.184  17.185  0.00  0.00    +0.000 F 
ATOM     27  F   UNL     1       2.621   8.139  19.318  0.00  0.00    +0.000 F 
ATOM     28  F   UNL     1       4.270   8.394  17.924  0.00  0.00    +0.000 F 
ENDBRANCH   8  25
BRANCH   6  29
ATOM     29  C   UNL     1       2.644   3.270  20.488  0.00  0.00    +0.000 C 
BRANCH  29  30
ATOM     30  C   UNL     1       1.149   3.355  20.772  0.00  0.00    +0.000 C 
ATOM     31  F   UNL     1       0.431   2.918  19.708  0.00  0.00    +0.000 F 
ATOM     32  F   UNL     1       0.814   2.578  21.830  0.00  0.00    +0.000 F 
ENDBRANCH  29  30
ENDBRANCH   6  29
TORSDOF 7
ENDMDL
MODEL 2
REMARK VINA RESULT:      -8.6      4.357      7.243
REMARK  Name = 
REMARK  8 active torsions:
REMARK  status: ('A' for Active; 'I' for Inactive)
REMARK    1  A    between atoms: C_1  and  N_2
REMARK    2  A    between atoms: N_5  and  C_6
REMARK    3  A    between atoms: C_6  and  C_7
REMARK    4  A    between atoms: C_7  and  C_8
REMARK    5  A    between atoms: C_12  and  N_13
REMARK    6  A    between atoms: C_18  and  C_19
REMARK    7  A    between atoms: C_19  and  C_20
REMARK    8  A    between atoms: C_24  and  C_25
REMARK                            x       y       z     vdW  Elec       q    Type
REMARK                         _______ _______ _______ _____ _____    ______ ____
ROOT
ATOM      1  N   UNL     1       4.274   4.542  18.974  0.00  0.00    +0.000 N 
ATOM      2  C   UNL     1       5.577   5.226  19.149  0.00  0.00    +0.000 C 
ATOM      3  C   UNL     1       6.156   5.160  17.767  0.00  0.00    +0.000 A 
ATOM      4  C   UNL     1       5.596   4.050  17.131  0.00  0.00    +0.000 A 
ATOM      5  C   UNL     1       5.805   3.759  15.794  0.00  0.00    +0.000 A 
ATOM      6  C   UNL     1       6.616   4.630  15.059  0.00  0.00    +0.000 A 
ATOM      7  C   UNL     1       7.171   5.769  15.694  0.00  0.00    +0.000 A 
ATOM      8  C   UNL     1       6.947   6.058  17.058  0.00  0.00    +0.000 A 
ATOM      9  C   UNL     1       4.490   3.551  17.986  0.00  0.00    +0.000 C 
ATOM     10  O   UNL     1       3.815   2.579  17.720  0.00  0.00    +0.000 OA
ENDROOT
BRANCH   1  15
ATOM     11  C   UNL     1       2.079   7.347  19.750  0.00  0.00    +0.000 A 
ATOM     12  C   UNL     1       2.488   8.178  18.695  0.00  0.00    +0.000 A 
ATOM     13  C   UNL     1       3.057   7.645  17.546  0.00  0.00    +0.000 A 
ATOM     14  C   UNL     1       3.362   6.294  17.495  0.00  0.00    +0.000 A 
ATOM     15  C   UNL     1       3.233   5.520  18.656  0.00  0.00    +0.000 A 
ATOM     16  C   UNL     1       2.442   5.996  19.709  0.00  0.00    +0.000 A 
BRANCH  11  17
ATOM     17  C   UNL     1       1.361   7.893  20.968  0.00  0.00    +0.000 C 
BRANCH  17  18
ATOM     18  C   UNL     1       0.907   9.350  20.771  0.00  0.00    +0.000 C 
BRANCH  18  23
ATOM     19  C   UNL     1      -1.942  12.327  22.103  0.00  0.00    +0.000 C 
ATOM     20  N   UNL     1      -1.107  11.154  21.925  0.00  0.00    +0.000 NA
ATOM     21  C   UNL     1      -1.082  10.285  23.102  0.00  0.00    +0.000 C 
ATOM     22  C   UNL     1       0.336   9.715  23.129  0.00  0.00    +0.000 C 
ATOM     23  N   UNL     1       1.028  10.238  21.940  0.00  0.00    +0.000 NA
ATOM     24  C   UNL     1       0.285  11.478  21.657  0.00  0.00    +0.000 C 
ENDBRANCH  18  23
ENDBRANCH  17  18
ENDBRANCH  11  17
ENDBRANCH   1  15
BRANCH   8  25
ATOM     25  C   UNL     1       7.471   7.348  17.636  0.00  0.00    +0.000 C 
ATOM     26  F   UNL     1       6.506   8.242  17.983  0.00  0.00    +0.000 F 
ATOM     27  F   UNL     1       8.199   7.139  18.768  0.00  0.00    +0.000 F 
ATOM     28  F   UNL     1       8.298   8.009  16.777  0.00  0.00    +0.000 F 
ENDBRANCH   8  25
BRANCH   6  29
ATOM     29  C   UNL     1       6.830   4.403  13.578  0.00  0.00    +0.000 C 
BRANCH  29  30
ATOM     30  C   UNL     1       5.899   3.364  12.962  0.00  0.00    +0.000 C 
ATOM     31  F   UNL     1       4.673   3.893  12.729  0.00  0.00    +0.000 F 
ATOM     32  F   UNL     1       6.383   2.930  11.773  0.00  0.00    +0.000 F 
ENDBRANCH  29  30
ENDBRANCH   6  29
TORSDOF 7
ENDMDL
MODEL 3
REMARK VINA RESULT:      -8.6      4.233      7.097
REMARK  Name = 
REMARK  8 active torsions:
REMARK  status: ('A' for Active; 'I' for Inactive)
REMARK    1  A    between atoms: C_1  and  N_2
REMARK    2  A    between atoms: N_5  and  C_6
REMARK    3  A    between atoms: C_6  and  C_7
REMARK    4  A    between atoms: C_7  and  C_8
REMARK    5  A    between atoms: C_12  and  N_13
REMARK    6  A    between atoms: C_18  and  C_19
REMARK    7  A    between atoms: C_19  and  C_20
REMARK    8  A    between atoms: C_24  and  C_25
REMARK                            x       y       z     vdW  Elec       q    Type
REMARK                         _______ _______ _______ _____ _____    ______ ____
ROOT
ATOM      1  N   UNL     1       4.152   4.342  18.909  0.00  0.00    +0.000 N 
ATOM      2  C   UNL     1       5.480   4.973  19.095  0.00  0.00    +0.000 C 
ATOM      3  C   UNL     1       6.031   4.964  17.701  0.00  0.00    +0.000 A 
ATOM      4  C   UNL     1       5.424   3.909  17.017  0.00  0.00    +0.000 A 
ATOM      5  C   UNL     1       5.600   3.685  15.663  0.00  0.00    +0.000 A 
ATOM      6  C   UNL     1       6.426   4.568  14.959  0.00  0.00    +0.000 A 
ATOM      7  C   UNL     1       7.029   5.653  15.643  0.00  0.00    +0.000 A 
ATOM      8  C   UNL     1       6.839   5.874  17.025  0.00  0.00    +0.000 A 
ATOM      9  C   UNL     1       4.318   3.399  17.865  0.00  0.00    +0.000 C 
ATOM     10  O   UNL     1       3.607   2.466  17.561  0.00  0.00    +0.000 OA
ENDROOT
BRANCH   1  15
ATOM     11  C   UNL     1       1.991   7.103  19.905  0.00  0.00    +0.000 A 
ATOM     12  C   UNL     1       2.442   8.025  18.948  0.00  0.00    +0.000 A 
ATOM     13  C   UNL     1       3.031   7.595  17.766  0.00  0.00    +0.000 A 
ATOM     14  C   UNL     1       3.312   6.250  17.589  0.00  0.00    +0.000 A 
ATOM     15  C   UNL     1       3.138   5.368  18.665  0.00  0.00    +0.000 A 
ATOM     16  C   UNL     1       2.329   5.755  19.740  0.00  0.00    +0.000 A 
BRANCH  11  17
ATOM     17  C   UNL     1       1.251   7.542  21.154  0.00  0.00    +0.000 C 
BRANCH  17  18
ATOM     18  C   UNL     1       1.090   9.070  21.227  0.00  0.00    +0.000 C 
BRANCH  18  23
ATOM     19  C   UNL     1      -0.366  13.014  22.269  0.00  0.00    +0.000 C 
ATOM     20  N   UNL     1       0.108  11.816  21.600  0.00  0.00    +0.000 NA
ATOM     21  C   UNL     1      -0.134  11.832  20.158  0.00  0.00    +0.000 C 
ATOM     22  C   UNL     1      -0.423  10.374  19.800  0.00  0.00    +0.000 C 
ATOM     23  N   UNL     1      -0.274   9.595  21.040  0.00  0.00    +0.000 NA
ATOM     24  C   UNL     1      -0.529  10.601  22.084  0.00  0.00    +0.000 C 
ENDBRANCH  18  23
ENDBRANCH  17  18
ENDBRANCH  11  17
ENDBRANCH   1  15
BRANCH   8  25
ATOM     25  C   UNL     1       7.415   7.114  17.662  0.00  0.00    +0.000 C 
ATOM     26  F   UNL     1       8.146   6.882  18.784  0.00  0.00    +0.000 F 
ATOM     27  F   UNL     1       8.247   7.780  16.814  0.00  0.00    +0.000 F 
ATOM     28  F   UNL     1       6.454   8.011  18.023  0.00  0.00    +0.000 F 
ENDBRANCH   8  25
BRANCH   6  29
ATOM     29  C   UNL     1       6.606   4.416  13.465  0.00  0.00    +0.000 C 
BRANCH  29  30
ATOM     30  C   UNL     1       5.837   3.248  12.856  0.00  0.00    +0.000 C 
ATOM     31  F   UNL     1       4.652   3.664  12.346  0.00  0.00    +0.000 F 
ATOM     32  F   UNL     1       6.538   2.687  11.840  0.00  0.00    +0.000 F 
ENDBRANCH  29  30
ENDBRANCH   6  29
TORSDOF 7
ENDMDL
MODEL 4
REMARK VINA RESULT:      -8.6      0.793      1.495
REMARK  Name = 
REMARK  8 active torsions:
REMARK  status: ('A' for Active; 'I' for Inactive)
REMARK    1  A    between atoms: C_1  and  N_2
REMARK    2  A    between atoms: N_5  and  C_6
REMARK    3  A    between atoms: C_6  and  C_7
REMARK    4  A    between atoms: C_7  and  C_8
REMARK    5  A    between atoms: C_12  and  N_13
REMARK    6  A    between atoms: C_18  and  C_19
REMARK    7  A    between atoms: C_19  and  C_20
REMARK    8  A    between atoms: C_24  and  C_25
REMARK                            x       y       z     vdW  Elec       q    Type
REMARK                         _______ _______ _______ _____ _____    ______ ____
ROOT
ATOM      1  N   UNL     1       6.028   5.361  15.685  0.00  0.00    +0.000 N 
ATOM      2  C   UNL     1       4.857   6.252  15.861  0.00  0.00    +0.000 C 
ATOM      3  C   UNL     1       4.086   5.548  16.938  0.00  0.00    +0.000 A 
ATOM      4  C   UNL     1       4.410   4.192  16.866  0.00  0.00    +0.000 A 
ATOM      5  C   UNL     1       3.981   3.262  17.797  0.00  0.00    +0.000 A 
ATOM      6  C   UNL     1       3.187   3.719  18.855  0.00  0.00    +0.000 A 
ATOM      7  C   UNL     1       2.872   5.098  18.944  0.00  0.00    +0.000 A 
ATOM      8  C   UNL     1       3.320   6.038  17.991  0.00  0.00    +0.000 A 
ATOM      9  C   UNL     1       5.554   4.050  15.933  0.00  0.00    +0.000 C 
ATOM     10  O   UNL     1       6.060   2.988  15.638  0.00  0.00    +0.000 OA
ENDROOT
BRANCH   1  15
ATOM     11  C   UNL     1       7.767   7.776  17.789  0.00  0.00    +0.000 A 
ATOM     12  C   UNL     1       7.842   6.975  18.939  0.00  0.00    +0.000 A 
ATOM     13  C   UNL     1       7.784   5.591  18.848  0.00  0.00    +0.000 A 
ATOM     14  C   UNL     1       7.499   4.994  17.631  0.00  0.00    +0.000 A 
ATOM     15  C   UNL     1       7.127   5.799  16.545  0.00  0.00    +0.000 A 
ATOM     16  C   UNL     1       7.427   7.167  16.576  0.00  0.00    +0.000 A 
BRANCH  11  17
ATOM     17  C   UNL     1       7.934   9.283  17.849  0.00  0.00    +0.000 C 
BRANCH  17  18
ATOM     18  C   UNL     1       9.031   9.706  18.842  0.00  0.00    +0.000 C 
BRANCH  18  23
ATOM     19  C   UNL     1       8.501  13.966  19.416  0.00  0.00    +0.000 C 
ATOM     20  N   UNL     1       8.914  12.576  19.470  0.00  0.00    +0.000 NA
ATOM     21  C   UNL     1      10.172  12.380  20.190  0.00  0.00    +0.000 C 
ATOM     22  C   UNL     1      10.857  11.224  19.459  0.00  0.00    +0.000 C 
ATOM     23  N   UNL     1       9.933  10.783  18.401  0.00  0.00    +0.000 NA
ATOM     24  C   UNL     1       9.127  11.990  18.156  0.00  0.00    +0.000 C 
ENDBRANCH  18  23
ENDBRANCH  17  18
ENDBRANCH  11  17
ENDBRANCH   1  15
BRANCH   8  25
ATOM     25  C   UNL     1       3.046   7.504  18.213  0.00  0.00    +0.000 C 
ATOM     26  F   UNL     1       2.611   7.812  19.465  0.00  0.00    +0.000 F 
ATOM     27  F   UNL     1       4.158   8.265  18.016  0.00  0.00    +0.000 F 
ATOM     28  F   UNL     1       2.103   7.995  17.361  0.00  0.00    +0.000 F 
ENDBRANCH   8  25
BRANCH   6  29
ATOM     29  C   UNL     1       2.741   2.763  19.940  0.00  0.00    +0.000 C 
BRANCH  29  30
ATOM     30  C   UNL     1       1.230   2.590  20.041  0.00  0.00    +0.000 C 
ATOM     31  F   UNL     1       0.667   3.642  20.686  0.00  0.00    +0.000 F 
ATOM     32  F   UNL     1       0.669   2.525  18.810  0.00  0.00    +0.000 F 
ENDBRANCH  29  30
ENDBRANCH   6  29
TORSDOF 7
ENDMDL
MODEL 5
REMARK VINA RESULT:      -8.5      4.190      7.084
REMARK  Name = 
REMARK  8 active torsions:
REMARK  status: ('A' for Active; 'I' for Inactive)
REMARK    1  A    between atoms: C_1  and  N_2
REMARK    2  A    between atoms: N_5  and  C_6
REMARK    3  A    between atoms: C_6  and  C_7
REMARK    4  A    between atoms: C_7  and  C_8
REMARK    5  A    between atoms: C_12  and  N_13
REMARK    6  A    between atoms: C_18  and  C_19
REMARK    7  A    between atoms: C_19  and  C_20
REMARK    8  A    between atoms: C_24  and  C_25
REMARK                            x       y       z     vdW  Elec       q    Type
REMARK                         _______ _______ _______ _____ _____    ______ ____
ROOT
ATOM      1  N   UNL     1       4.111   4.503  18.981  0.00  0.00    +0.000 N 
ATOM      2  C   UNL     1       5.440   5.136  19.159  0.00  0.00    +0.000 C 
ATOM      3  C   UNL     1       6.002   5.086  17.770  0.00  0.00    +0.000 A 
ATOM      4  C   UNL     1       5.397   4.012  17.113  0.00  0.00    +0.000 A 
ATOM      5  C   UNL     1       5.583   3.749  15.767  0.00  0.00    +0.000 A 
ATOM      6  C   UNL     1       6.417   4.609  15.045  0.00  0.00    +0.000 A 
ATOM      7  C   UNL     1       7.017   5.712  15.702  0.00  0.00    +0.000 A 
ATOM      8  C   UNL     1       6.816   5.974  17.075  0.00  0.00    +0.000 A 
ATOM      9  C   UNL     1       4.284   3.530  17.966  0.00  0.00    +0.000 C 
ATOM     10  O   UNL     1       3.573   2.589  17.684  0.00  0.00    +0.000 OA
ENDROOT
BRANCH   1  15
ATOM     11  C   UNL     1       2.072   7.403  19.828  0.00  0.00    +0.000 A 
ATOM     12  C   UNL     1       2.475   8.212  18.754  0.00  0.00    +0.000 A 
ATOM     13  C   UNL     1       2.974   7.650  17.586  0.00  0.00    +0.000 A 
ATOM     14  C   UNL     1       3.219   6.288  17.530  0.00  0.00    +0.000 A 
ATOM     15  C   UNL     1       3.102   5.524  18.700  0.00  0.00    +0.000 A 
ATOM     16  C   UNL     1       2.374   6.037  19.780  0.00  0.00    +0.000 A 
BRANCH  11  17
ATOM     17  C   UNL     1       1.426   7.983  21.071  0.00  0.00    +0.000 C 
BRANCH  17  18
ATOM     18  C   UNL     1       0.401   9.080  20.734  0.00  0.00    +0.000 C 
BRANCH  18  23
ATOM     19  C   UNL     1      -0.707  12.763  18.742  0.00  0.00    +0.000 C 
ATOM     20  N   UNL     1      -0.574  11.628  19.636  0.00  0.00    +0.000 NA
ATOM     21  C   UNL     1      -1.202  11.848  20.938  0.00  0.00    +0.000 C 
ATOM     22  C   UNL     1      -0.305  11.104  21.929  0.00  0.00    +0.000 C 
ATOM     23  N   UNL     1       0.752  10.452  21.138  0.00  0.00    +0.000 NA
ATOM     24  C   UNL     1       0.811  11.290  19.929  0.00  0.00    +0.000 C 
ENDBRANCH  18  23
ENDBRANCH  17  18
ENDBRANCH  11  17
ENDBRANCH   1  15
BRANCH   8  25
ATOM     25  C   UNL     1       7.390   7.230  17.680  0.00  0.00    +0.000 C 
ATOM     26  F   UNL     1       8.093   7.032  18.827  0.00  0.00    +0.000 F 
ATOM     27  F   UNL     1       8.250   7.857  16.829  0.00  0.00    +0.000 F 
ATOM     28  F   UNL     1       6.432   8.149  17.985  0.00  0.00    +0.000 F 
ENDBRANCH   8  25
BRANCH   6  29
ATOM     29  C   UNL     1       6.607   4.413  13.556  0.00  0.00    +0.000 C 
BRANCH  29  30
ATOM     30  C   UNL     1       5.763   3.294  12.958  0.00  0.00    +0.000 C 
ATOM     31  F   UNL     1       4.589   3.777  12.482  0.00  0.00    +0.000 F 
ATOM     32  F   UNL     1       6.407   2.707  11.920  0.00  0.00    +0.000 F 
ENDBRANCH  29  30
ENDBRANCH   6  29
TORSDOF 7
ENDMDL
MODEL 6
REMARK VINA RESULT:      -8.5      0.815      1.317
REMARK  Name = 
REMARK  8 active torsions:
REMARK  status: ('A' for Active; 'I' for Inactive)
REMARK    1  A    between atoms: C_1  and  N_2
REMARK    2  A    between atoms: N_5  and  C_6
REMARK    3  A    between atoms: C_6  and  C_7
REMARK    4  A    between atoms: C_7  and  C_8
REMARK    5  A    between atoms: C_12  and  N_13
REMARK    6  A    between atoms: C_18  and  C_19
REMARK    7  A    between atoms: C_19  and  C_20
REMARK    8  A    between atoms: C_24  and  C_25
REMARK                            x       y       z     vdW  Elec       q    Type
REMARK                         _______ _______ _______ _____ _____    ______ ____
ROOT
ATOM      1  N   UNL     1       5.983   5.309  15.754  0.00  0.00    +0.000 N 
ATOM      2  C   UNL     1       4.815   6.210  15.903  0.00  0.00    +0.000 C 
ATOM      3  C   UNL     1       4.040   5.541  16.998  0.00  0.00    +0.000 A 
ATOM      4  C   UNL     1       4.358   4.181  16.966  0.00  0.00    +0.000 A 
ATOM      5  C   UNL     1       3.923   3.280  17.922  0.00  0.00    +0.000 A 
ATOM      6  C   UNL     1       3.130   3.771  18.965  0.00  0.00    +0.000 A 
ATOM      7  C   UNL     1       2.821   5.154  19.015  0.00  0.00    +0.000 A 
ATOM      8  C   UNL     1       3.274   6.065  18.035  0.00  0.00    +0.000 A 
ATOM      9  C   UNL     1       5.503   4.008  16.039  0.00  0.00    +0.000 C 
ATOM     10  O   UNL     1       6.005   2.936  15.776  0.00  0.00    +0.000 OA
ENDROOT
BRANCH   1  15
ATOM     11  C   UNL     1       7.729   7.776  17.791  0.00  0.00    +0.000 A 
ATOM     12  C   UNL     1       7.800   7.008  18.964  0.00  0.00    +0.000 A 
ATOM     13  C   UNL     1       7.736   5.621  18.912  0.00  0.00    +0.000 A 
ATOM     14  C   UNL     1       7.450   4.991  17.712  0.00  0.00    +0.000 A 
ATOM     15  C   UNL     1       7.082   5.767  16.603  0.00  0.00    +0.000 A 
ATOM     16  C   UNL     1       7.388   7.134  16.596  0.00  0.00    +0.000 A 
BRANCH  11  17
ATOM     17  C   UNL     1       7.902   9.283  17.809  0.00  0.00    +0.000 C 
BRANCH  17  18
ATOM     18  C   UNL     1       8.995   9.730  18.795  0.00  0.00    +0.000 C 
BRANCH  18  23
ATOM     19  C   UNL     1       8.506  14.019  19.144  0.00  0.00    +0.000 C 
ATOM     20  N   UNL     1       8.901  12.629  19.277  0.00  0.00    +0.000 NA
ATOM     21  C   UNL     1      10.142  12.455  20.031  0.00  0.00    +0.000 C 
ATOM     22  C   UNL     1      10.827  11.257  19.373  0.00  0.00    +0.000 C 
ATOM     23  N   UNL     1       9.920  10.773  18.320  0.00  0.00    +0.000 NA
ATOM     24  C   UNL     1       9.133  11.976  17.998  0.00  0.00    +0.000 C 
ENDBRANCH  18  23
ENDBRANCH  17  18
ENDBRANCH  11  17
ENDBRANCH   1  15
BRANCH   8  25
ATOM     25  C   UNL     1       3.006   7.537  18.215  0.00  0.00    +0.000 C 
ATOM     26  F   UNL     1       2.068   8.045  17.372  0.00  0.00    +0.000 F 
ATOM     27  F   UNL     1       2.563   7.824  19.471  0.00  0.00    +0.000 F 
ATOM     28  F   UNL     1       4.122   8.298  18.031  0.00  0.00    +0.000 F 
ENDBRANCH   8  25
BRANCH   6  29
ATOM     29  C   UNL     1       2.679   2.849  20.077  0.00  0.00    +0.000 C 
BRANCH  29  30
ATOM     30  C   UNL     1       1.755   3.504  21.099  0.00  0.00    +0.000 C 
ATOM     31  F   UNL     1       1.065   2.568  21.795  0.00  0.00    +0.000 F 
ATOM     32  F   UNL     1       2.466   4.230  21.996  0.00  0.00    +0.000 F 
ENDBRANCH  29  30
ENDBRANCH   6  29
TORSDOF 7
ENDMDL
MODEL 7
REMARK VINA RESULT:      -8.2      4.309      7.185
REMARK  Name = 
REMARK  8 active torsions:
REMARK  status: ('A' for Active; 'I' for Inactive)
REMARK    1  A    between atoms: C_1  and  N_2
REMARK    2  A    between atoms: N_5  and  C_6
REMARK    3  A    between atoms: C_6  and  C_7
REMARK    4  A    between atoms: C_7  and  C_8
REMARK    5  A    between atoms: C_12  and  N_13
REMARK    6  A    between atoms: C_18  and  C_19
REMARK    7  A    between atoms: C_19  and  C_20
REMARK    8  A    between atoms: C_24  and  C_25
REMARK                            x       y       z     vdW  Elec       q    Type
REMARK                         _______ _______ _______ _____ _____    ______ ____
ROOT
ATOM      1  N   UNL     1       3.667   4.485  19.216  0.00  0.00    +0.000 N 
ATOM      2  C   UNL     1       5.045   5.030  19.245  0.00  0.00    +0.000 C 
ATOM      3  C   UNL     1       5.465   4.900  17.811  0.00  0.00    +0.000 A 
ATOM      4  C   UNL     1       4.730   3.852  17.253  0.00  0.00    +0.000 A 
ATOM      5  C   UNL     1       4.765   3.538  15.905  0.00  0.00    +0.000 A 
ATOM      6  C   UNL     1       5.580   4.317  15.077  0.00  0.00    +0.000 A 
ATOM      7  C   UNL     1       6.313   5.395  15.634  0.00  0.00    +0.000 A 
ATOM      8  C   UNL     1       6.265   5.709  17.010  0.00  0.00    +0.000 A 
ATOM      9  C   UNL     1       3.675   3.473  18.225  0.00  0.00    +0.000 C 
ATOM     10  O   UNL     1       2.880   2.576  18.045  0.00  0.00    +0.000 OA
ENDROOT
BRANCH   1  15
ATOM     11  C   UNL     1       1.922   7.547  20.146  0.00  0.00    +0.000 A 
ATOM     12  C   UNL     1       2.267   8.290  19.006  0.00  0.00    +0.000 A 
ATOM     13  C   UNL     1       2.606   7.657  17.818  0.00  0.00    +0.000 A 
ATOM     14  C   UNL     1       2.753   6.279  17.791  0.00  0.00    +0.000 A 
ATOM     15  C   UNL     1       2.705   5.564  18.996  0.00  0.00    +0.000 A 
ATOM     16  C   UNL     1       2.126   6.162  20.123  0.00  0.00    +0.000 A 
BRANCH  11  17
ATOM     17  C   UNL     1       1.446   8.211  21.423  0.00  0.00    +0.000 C 
BRANCH  17  18
ATOM     18  C   UNL     1       0.357   9.265  21.157  0.00  0.00    +0.000 C 
BRANCH  18  23
ATOM     19  C   UNL     1      -0.425  13.009  19.124  0.00  0.00    +0.000 C 
ATOM     20  N   UNL     1      -0.437  11.845  19.991  0.00  0.00    +0.000 NA
ATOM     21  C   UNL     1      -1.278  12.022  21.175  0.00  0.00    +0.000 C 
ATOM     22  C   UNL     1      -0.556  11.248  22.279  0.00  0.00    +0.000 C 
ATOM     23  N   UNL     1       0.624  10.624  21.659  0.00  0.00    +0.000 NA
ATOM     24  C   UNL     1       0.881  11.501  20.504  0.00  0.00    +0.000 C 
ENDBRANCH  18  23
ENDBRANCH  17  18
ENDBRANCH  11  17
ENDBRANCH   1  15
BRANCH   8  25
ATOM     25  C   UNL     1       6.977   6.940  17.513  0.00  0.00    +0.000 C 
ATOM     26  F   UNL     1       7.945   7.408  16.681  0.00  0.00    +0.000 F 
ATOM     27  F   UNL     1       6.120   7.982  17.699  0.00  0.00    +0.000 F 
ATOM     28  F   UNL     1       7.585   6.738  18.715  0.00  0.00    +0.000 F 
ENDBRANCH   8  25
BRANCH   6  29
ATOM     29  C   UNL     1       5.611   4.065  13.585  0.00  0.00    +0.000 C 
BRANCH  29  30
ATOM     30  C   UNL     1       7.013   3.927  13.002  0.00  0.00    +0.000 C 
ATOM     31  F   UNL     1       6.987   3.216  11.848  0.00  0.00    +0.000 F 
ATOM     32  F   UNL     1       7.538   5.142  12.714  0.00  0.00    +0.000 F 
ENDBRANCH  29  30
ENDBRANCH   6  29
TORSDOF 7
ENDMDL
MODEL 8
REMARK VINA RESULT:      -8.2      0.712      1.237
REMARK  Name = 
REMARK  8 active torsions:
REMARK  status: ('A' for Active; 'I' for Inactive)
REMARK    1  A    between atoms: C_1  and  N_2
REMARK    2  A    between atoms: N_5  and  C_6
REMARK    3  A    between atoms: C_6  and  C_7
REMARK    4  A    between atoms: C_7  and  C_8
REMARK    5  A    between atoms: C_12  and  N_13
REMARK    6  A    between atoms: C_18  and  C_19
REMARK    7  A    between atoms: C_19  and  C_20
REMARK    8  A    between atoms: C_24  and  C_25
REMARK                            x       y       z     vdW  Elec       q    Type
REMARK                         _______ _______ _______ _____ _____    ______ ____
ROOT
ATOM      1  N   UNL     1       5.933   5.213  15.809  0.00  0.00    +0.000 N 
ATOM      2  C   UNL     1       4.800   6.164  15.910  0.00  0.00    +0.000 C 
ATOM      3  C   UNL     1       4.040   5.624  17.084  0.00  0.00    +0.000 A 
ATOM      4  C   UNL     1       4.312   4.257  17.167  0.00  0.00    +0.000 A 
ATOM      5  C   UNL     1       3.881   3.462  18.214  0.00  0.00    +0.000 A 
ATOM      6  C   UNL     1       3.139   4.072  19.231  0.00  0.00    +0.000 A 
ATOM      7  C   UNL     1       2.876   5.463  19.163  0.00  0.00    +0.000 A 
ATOM      8  C   UNL     1       3.326   6.266  18.091  0.00  0.00    +0.000 A 
ATOM      9  C   UNL     1       5.421   3.960  16.226  0.00  0.00    +0.000 C 
ATOM     10  O   UNL     1       5.879   2.852  16.047  0.00  0.00    +0.000 OA
ENDROOT
BRANCH   1  15
ATOM     11  C   UNL     1       7.720   7.723  17.755  0.00  0.00    +0.000 A 
ATOM     12  C   UNL     1       7.917   6.939  18.902  0.00  0.00    +0.000 A 
ATOM     13  C   UNL     1       7.912   5.552  18.827  0.00  0.00    +0.000 A 
ATOM     14  C   UNL     1       7.562   4.930  17.640  0.00  0.00    +0.000 A 
ATOM     15  C   UNL     1       7.073   5.707  16.580  0.00  0.00    +0.000 A 
ATOM     16  C   UNL     1       7.315   7.087  16.576  0.00  0.00    +0.000 A 
BRANCH  11  17
ATOM     17  C   UNL     1       7.825   9.236  17.790  0.00  0.00    +0.000 C 
BRANCH  17  18
ATOM     18  C   UNL     1       9.027   9.715  18.624  0.00  0.00    +0.000 C 
BRANCH  18  23
ATOM     19  C   UNL     1       9.773  12.800  21.570  0.00  0.00    +0.000 C 
ATOM     20  N   UNL     1       9.866  11.753  20.570  0.00  0.00    +0.000 NA
ATOM     21  C   UNL     1      11.200  11.639  19.982  0.00  0.00    +0.000 C 
ATOM     22  C   UNL     1      10.947  11.240  18.527  0.00  0.00    +0.000 C 
ATOM     23  N   UNL     1       9.491  11.090  18.375  0.00  0.00    +0.000 NA
ATOM     24  C   UNL     1       8.966  11.956  19.445  0.00  0.00    +0.000 C 
ENDBRANCH  18  23
ENDBRANCH  17  18
ENDBRANCH  11  17
ENDBRANCH   1  15
BRANCH   8  25
ATOM     25  C   UNL     1       3.112   7.757  18.144  0.00  0.00    +0.000 C 
ATOM     26  F   UNL     1       4.246   8.494  18.006  0.00  0.00    +0.000 F 
ATOM     27  F   UNL     1       2.276   8.186  17.157  0.00  0.00    +0.000 F 
ATOM     28  F   UNL     1       2.544   8.163  19.314  0.00  0.00    +0.000 F 
ENDBRANCH   8  25
BRANCH   6  29
ATOM     29  C   UNL     1       2.695   3.271  20.436  0.00  0.00    +0.000 C 
BRANCH  29  30
ATOM     30  C   UNL     1       1.195   3.005  20.494  0.00  0.00    +0.000 C 
ATOM     31  F   UNL     1       0.838   2.517  21.707  0.00  0.00    +0.000 F 
ATOM     32  F   UNL     1       0.495   4.149  20.299  0.00  0.00    +0.000 F 
ENDBRANCH  29  30
ENDBRANCH   6  29
TORSDOF 7
ENDMDL
MODEL 9
REMARK VINA RESULT:      -8.0      4.211      7.282
REMARK  Name = 
REMARK  8 active torsions:
REMARK  status: ('A' for Active; 'I' for Inactive)
REMARK    1  A    between atoms: C_1  and  N_2
REMARK    2  A    between atoms: N_5  and  C_6
REMARK    3  A    between atoms: C_6  and  C_7
REMARK    4  A    between atoms: C_7  and  C_8
REMARK    5  A    between atoms: C_12  and  N_13
REMARK    6  A    between atoms: C_18  and  C_19
REMARK    7  A    between atoms: C_19  and  C_20
REMARK    8  A    between atoms: C_24  and  C_25
REMARK                            x       y       z     vdW  Elec       q    Type
REMARK                         _______ _______ _______ _____ _____    ______ ____
ROOT
ATOM      1  N   UNL     1       4.045   4.679  19.266  0.00  0.00    +0.000 N 
ATOM      2  C   UNL     1       5.386   5.304  19.351  0.00  0.00    +0.000 C 
ATOM      3  C   UNL     1       5.927   5.076  17.972  0.00  0.00    +0.000 A 
ATOM      4  C   UNL     1       5.295   3.943  17.455  0.00  0.00    +0.000 A 
ATOM      5  C   UNL     1       5.457   3.516  16.149  0.00  0.00    +0.000 A 
ATOM      6  C   UNL     1       6.296   4.268  15.319  0.00  0.00    +0.000 A 
ATOM      7  C   UNL     1       6.924   5.430  15.831  0.00  0.00    +0.000 A 
ATOM      8  C   UNL     1       6.748   5.859  17.165  0.00  0.00    +0.000 A 
ATOM      9  C   UNL     1       4.185   3.588  18.374  0.00  0.00    +0.000 C 
ATOM     10  O   UNL     1       3.454   2.634  18.215  0.00  0.00    +0.000 OA
ENDROOT
BRANCH   1  15
ATOM     11  C   UNL     1       1.979   7.629  19.832  0.00  0.00    +0.000 A 
ATOM     12  C   UNL     1       2.426   8.363  18.723  0.00  0.00    +0.000 A 
ATOM     13  C   UNL     1       2.971   7.724  17.617  0.00  0.00    +0.000 A 
ATOM     14  C   UNL     1       3.215   6.361  17.663  0.00  0.00    +0.000 A 
ATOM     15  C   UNL     1       3.050   5.678  18.876  0.00  0.00    +0.000 A 
ATOM     16  C   UNL     1       2.280   6.263  19.889  0.00  0.00    +0.000 A 
BRANCH  11  17
ATOM     17  C   UNL     1       1.284   8.291  21.006  0.00  0.00    +0.000 C 
BRANCH  17  18
ATOM     18  C   UNL     1       0.919   9.757  20.712  0.00  0.00    +0.000 C 
BRANCH  18  23
ATOM     19  C   UNL     1      -0.976  13.626  20.264  0.00  0.00    +0.000 C 
ATOM     20  N   UNL     1      -0.362  12.325  20.072  0.00  0.00    +0.000 NA
ATOM     21  C   UNL     1      -0.575  11.784  18.730  0.00  0.00    +0.000 C 
ATOM     22  C   UNL     1      -0.697  10.274  18.939  0.00  0.00    +0.000 C 
ATOM     23  N   UNL     1      -0.490  10.025  20.375  0.00  0.00    +0.000 NA
ATOM     24  C   UNL     1      -0.874  11.311  20.981  0.00  0.00    +0.000 C 
ENDBRANCH  18  23
ENDBRANCH  17  18
ENDBRANCH  11  17
ENDBRANCH   1  15
BRANCH   8  25
ATOM     25  C   UNL     1       7.353   7.167  17.608  0.00  0.00    +0.000 C 
ATOM     26  F   UNL     1       8.090   7.089  18.748  0.00  0.00    +0.000 F 
ATOM     27  F   UNL     1       8.190   7.684  16.666  0.00  0.00    +0.000 F 
ATOM     28  F   UNL     1       6.412   8.127  17.837  0.00  0.00    +0.000 F 
ENDBRANCH   8  25
BRANCH   6  29
ATOM     29  C   UNL     1       6.462   3.891  13.862  0.00  0.00    +0.000 C 
BRANCH  29  30
ATOM     30  C   UNL     1       7.078   4.985  12.998  0.00  0.00    +0.000 C 
ATOM     31  F   UNL     1       8.300   5.339  13.468  0.00  0.00    +0.000 F 
ATOM     32  F   UNL     1       7.246   4.556  11.724  0.00  0.00    +0.000 F 
ENDBRANCH  29  30
ENDBRANCH   6  29
TORSDOF 7
ENDMDL
