MODEL 1
REMARK VINA RESULT:      -9.1      0.000      0.000
REMARK  Name = 
REMARK  6 active torsions:
REMARK  status: ('A' for Active; 'I' for Inactive)
REMARK    1  A    between atoms: C_1  and  C_2
REMARK    2  A    between atoms: C_2  and  N_3
REMARK    3  A    between atoms: C_2  and  C_20
REMARK    4  A    between atoms: C_4  and  C_6
REMARK    5  A    between atoms: C_10  and  S_11
REMARK    6  A    between atoms: S_11  and  N_14
REMARK                            x       y       z     vdW  Elec       q    Type
REMARK                         _______ _______ _______ _____ _____    ______ ____
ROOT
ATOM      1  N   UNL     1       1.235   9.452  19.573  0.00  0.00    +0.000 N 
ATOM      2  C   UNL     1       1.829   9.014  18.407  0.00  0.00    +0.000 C 
ATOM      3  O   UNL     1       1.768   9.644  17.359  0.00  0.00    +0.000 OA
ATOM      4  H   UNL     1       1.481   9.031  20.457  0.00  0.00    +0.000 HD
ENDROOT
BRANCH   2   5
ATOM      5  C   UNL     1       2.599   7.741  18.485  0.00  0.00    +0.000 A 
ATOM      6  C   UNL     1       2.336   6.869  19.551  0.00  0.00    +0.000 A 
ATOM      7  C   UNL     1       3.036   5.666  19.673  0.00  0.00    +0.000 A 
ATOM      8  C   UNL     1       3.980   5.312  18.712  0.00  0.00    +0.000 A 
ATOM      9  C   UNL     1       4.225   6.169  17.633  0.00  0.00    +0.000 A 
ATOM     10  C   UNL     1       3.573   7.403  17.537  0.00  0.00    +0.000 A 
BRANCH   9  11
ATOM     11  S   UNL     1       5.329   5.639  16.331  0.00  0.00    +0.000 S 
ATOM     12  O   UNL     1       5.113   4.220  16.146  0.00  0.00    +0.000 OA
ATOM     13  O   UNL     1       5.177   6.582  15.243  0.00  0.00    +0.000 OA
BRANCH  11  14
ATOM     14  N   UNL     1       6.863   5.883  16.981  0.00  0.00    +0.000 NA
ATOM     15  C   UNL     1       7.509   4.894  17.849  0.00  0.00    +0.000 C 
ATOM     16  C   UNL     1       7.896   5.669  19.091  0.00  0.00    +0.000 C 
ATOM     17  C   UNL     1       8.117   7.093  18.616  0.00  0.00    +0.000 C 
ATOM     18  C   UNL     1       7.314   7.241  17.325  0.00  0.00    +0.000 C 
ENDBRANCH  11  14
ENDBRANCH   9  11
ENDBRANCH   2   5
BRANCH   1  20
ATOM     19  C   UNL     1       1.511  11.876  19.376  0.00  0.00    +0.000 C 
ATOM     20  C   UNL     1       0.543  10.728  19.659  0.00  0.00    +0.000 C 
BRANCH  20  21
ATOM     21  C   UNL     1      -0.011  10.831  21.042  0.00  0.00    +0.000 A 
ATOM     22  N   UNL     1       0.499  10.255  22.119  0.00  0.00    +0.000 NA
ATOM     23  N   UNL     1      -0.299  10.562  23.194  0.00  0.00    +0.000 NA
ATOM     24  C   UNL     1      -1.292  11.306  22.760  0.00  0.00    +0.000 A 
ATOM     25  C   UNL     1      -2.415  11.886  23.412  0.00  0.00    +0.000 A 
ATOM     26  C   UNL     1      -3.301  12.610  22.697  0.00  0.00    +0.000 A 
ATOM     27  C   UNL     1      -3.126  12.821  21.269  0.00  0.00    +0.000 A 
ATOM     28  C   UNL     1      -2.067  12.270  20.647  0.00  0.00    +0.000 A 
ATOM     29  N   UNL     1      -1.157  11.516  21.392  0.00  0.00    +0.000 N 
ENDBRANCH  20  21
ENDBRANCH   1  20
TORSDOF 5
ENDMDL
MODEL 2
REMARK VINA RESULT:      -8.4      1.723      2.480
REMARK  Name = 
REMARK  6 active torsions:
REMARK  status: ('A' for Active; 'I' for Inactive)
REMARK    1  A    between atoms: C_1  and  C_2
REMARK    2  A    between atoms: C_2  and  N_3
REMARK    3  A    between atoms: C_2  and  C_20
REMARK    4  A    between atoms: C_4  and  C_6
REMARK    5  A    between atoms: C_10  and  S_11
REMARK    6  A    between atoms: S_11  and  N_14
REMARK                            x       y       z     vdW  Elec       q    Type
REMARK                         _______ _______ _______ _____ _____    ______ ____
ROOT
ATOM      1  N   UNL     1       0.881   9.454  19.200  0.00  0.00    +0.000 N 
ATOM      2  C   UNL     1       1.893   9.235  18.288  0.00  0.00    +0.000 C 
ATOM      3  O   UNL     1       2.225  10.072  17.459  0.00  0.00    +0.000 OA
ATOM      4  H   UNL     1       0.776   8.843  19.998  0.00  0.00    +0.000 HD
ENDROOT
BRANCH   2   5
ATOM      5  C   UNL     1       2.606   7.930  18.378  0.00  0.00    +0.000 A 
ATOM      6  C   UNL     1       2.288   7.070  19.439  0.00  0.00    +0.000 A 
ATOM      7  C   UNL     1       2.934   5.838  19.573  0.00  0.00    +0.000 A 
ATOM      8  C   UNL     1       3.879   5.445  18.627  0.00  0.00    +0.000 A 
ATOM      9  C   UNL     1       4.179   6.291  17.553  0.00  0.00    +0.000 A 
ATOM     10  C   UNL     1       3.581   7.550  17.447  0.00  0.00    +0.000 A 
BRANCH   9  11
ATOM     11  S   UNL     1       5.281   5.713  16.271  0.00  0.00    +0.000 S 
ATOM     12  O   UNL     1       5.010   4.304  16.083  0.00  0.00    +0.000 OA
ATOM     13  O   UNL     1       5.187   6.660  15.179  0.00  0.00    +0.000 OA
BRANCH  11  14
ATOM     14  N   UNL     1       6.813   5.895  16.946  0.00  0.00    +0.000 NA
ATOM     15  C   UNL     1       7.405   4.879  17.822  0.00  0.00    +0.000 C 
ATOM     16  C   UNL     1       7.802   5.637  19.073  0.00  0.00    +0.000 C 
ATOM     17  C   UNL     1       8.088   7.052  18.604  0.00  0.00    +0.000 C 
ATOM     18  C   UNL     1       7.312   7.233  17.301  0.00  0.00    +0.000 C 
ENDBRANCH  11  14
ENDBRANCH   9  11
ENDBRANCH   2   5
BRANCH   1  20
ATOM     19  C   UNL     1      -0.074  11.090  20.750  0.00  0.00    +0.000 C 
ATOM     20  C   UNL     1       0.176  10.722  19.287  0.00  0.00    +0.000 C 
BRANCH  20  21
ATOM     21  C   UNL     1      -1.115  10.555  18.556  0.00  0.00    +0.000 A 
ATOM     22  N   UNL     1      -1.307   9.777  17.503  0.00  0.00    +0.000 NA
ATOM     23  N   UNL     1      -2.612   9.908  17.098  0.00  0.00    +0.000 NA
ATOM     24  C   UNL     1      -3.197  10.773  17.896  0.00  0.00    +0.000 A 
ATOM     25  C   UNL     1      -4.515  11.305  17.937  0.00  0.00    +0.000 A 
ATOM     26  C   UNL     1      -4.841  12.209  18.884  0.00  0.00    +0.000 A 
ATOM     27  C   UNL     1      -3.872  12.645  19.877  0.00  0.00    +0.000 A 
ATOM     28  C   UNL     1      -2.623  12.147  19.840  0.00  0.00    +0.000 A 
ATOM     29  N   UNL     1      -2.290  11.216  18.852  0.00  0.00    +0.000 N 
ENDBRANCH  20  21
ENDBRANCH   1  20
TORSDOF 5
ENDMDL
MODEL 3
REMARK VINA RESULT:      -8.3      3.214      8.800
REMARK  Name = 
REMARK  6 active torsions:
REMARK  status: ('A' for Active; 'I' for Inactive)
REMARK    1  A    between atoms: C_1  and  C_2
REMARK    2  A    between atoms: C_2  and  N_3
REMARK    3  A    between atoms: C_2  and  C_20
REMARK    4  A    between atoms: C_4  and  C_6
REMARK    5  A    between atoms: C_10  and  S_11
REMARK    6  A    between atoms: S_11  and  N_14
REMARK                            x       y       z     vdW  Elec       q    Type
REMARK                         _______ _______ _______ _____ _____    ______ ____
ROOT
ATOM      1  N   UNL     1       2.209   6.708  18.666  0.00  0.00    +0.000 N 
ATOM      2  C   UNL     1       2.074   8.027  18.285  0.00  0.00    +0.000 C 
ATOM      3  O   UNL     1       2.555   8.466  17.248  0.00  0.00    +0.000 OA
ATOM      4  H   UNL     1       1.630   6.330  19.402  0.00  0.00    +0.000 HD
ENDROOT
BRANCH   2   5
ATOM      5  C   UNL     1       1.271   8.904  19.181  0.00  0.00    +0.000 A 
ATOM      6  C   UNL     1       1.270   8.628  20.556  0.00  0.00    +0.000 A 
ATOM      7  C   UNL     1       0.526   9.416  21.439  0.00  0.00    +0.000 A 
ATOM      8  C   UNL     1      -0.194  10.506  20.956  0.00  0.00    +0.000 A 
ATOM      9  C   UNL     1      -0.173  10.800  19.587  0.00  0.00    +0.000 A 
ATOM     10  C   UNL     1       0.519   9.979  18.690  0.00  0.00    +0.000 A 
BRANCH   9  11
ATOM     11  S   UNL     1      -0.979  12.283  19.001  0.00  0.00    +0.000 S 
ATOM     12  O   UNL     1      -1.551  12.938  20.158  0.00  0.00    +0.000 OA
ATOM     13  O   UNL     1      -0.037  12.957  18.132  0.00  0.00    +0.000 OA
BRANCH  11  14
ATOM     14  N   UNL     1      -2.222  11.705  18.023  0.00  0.00    +0.000 NA
ATOM     15  C   UNL     1      -3.326  10.903  18.558  0.00  0.00    +0.000 C 
ATOM     16  C   UNL     1      -3.347   9.658  17.694  0.00  0.00    +0.000 C 
ATOM     17  C   UNL     1      -2.799  10.100  16.350  0.00  0.00    +0.000 C 
ATOM     18  C   UNL     1      -1.954  11.342  16.623  0.00  0.00    +0.000 C 
ENDBRANCH  11  14
ENDBRANCH   9  11
ENDBRANCH   2   5
BRANCH   1  20
ATOM     19  C   UNL     1       2.010   4.476  17.682  0.00  0.00    +0.000 C 
ATOM     20  C   UNL     1       2.879   5.724  17.831  0.00  0.00    +0.000 C 
BRANCH  20  21
ATOM     21  C   UNL     1       4.172   5.391  18.501  0.00  0.00    +0.000 A 
ATOM     22  N   UNL     1       4.334   4.487  19.453  0.00  0.00    +0.000 NA
ATOM     23  N   UNL     1       5.654   4.487  19.831  0.00  0.00    +0.000 NA
ATOM     24  C   UNL     1       6.278   5.399  19.119  0.00  0.00    +0.000 A 
ATOM     25  C   UNL     1       7.628   5.847  19.101  0.00  0.00    +0.000 A 
ATOM     26  C   UNL     1       7.992   6.831  18.254  0.00  0.00    +0.000 A 
ATOM     27  C   UNL     1       7.033   7.440  17.345  0.00  0.00    +0.000 A 
ATOM     28  C   UNL     1       5.754   7.021  17.362  0.00  0.00    +0.000 A 
ATOM     29  N   UNL     1       5.382   6.006  18.247  0.00  0.00    +0.000 N 
ENDBRANCH  20  21
ENDBRANCH   1  20
TORSDOF 5
ENDMDL
MODEL 4
REMARK VINA RESULT:      -8.3      3.107      8.462
REMARK  Name = 
REMARK  6 active torsions:
REMARK  status: ('A' for Active; 'I' for Inactive)
REMARK    1  A    between atoms: C_1  and  C_2
REMARK    2  A    between atoms: C_2  and  N_3
REMARK    3  A    between atoms: C_2  and  C_20
REMARK    4  A    between atoms: C_4  and  C_6
REMARK    5  A    between atoms: C_10  and  S_11
REMARK    6  A    between atoms: S_11  and  N_14
REMARK                            x       y       z     vdW  Elec       q    Type
REMARK                         _______ _______ _______ _____ _____    ______ ____
ROOT
ATOM      1  N   UNL     1       2.318   6.556  18.750  0.00  0.00    +0.000 N 
ATOM      2  C   UNL     1       2.132   7.894  18.470  0.00  0.00    +0.000 C 
ATOM      3  O   UNL     1       2.529   8.412  17.434  0.00  0.00    +0.000 OA
ATOM      4  H   UNL     1       1.799   6.117  19.498  0.00  0.00    +0.000 HD
ENDROOT
BRANCH   2   5
ATOM      5  C   UNL     1       1.378   8.691  19.477  0.00  0.00    +0.000 A 
ATOM      6  C   UNL     1       1.426   8.285  20.819  0.00  0.00    +0.000 A 
ATOM      7  C   UNL     1       0.730   8.994  21.801  0.00  0.00    +0.000 A 
ATOM      8  C   UNL     1       0.008  10.134  21.453  0.00  0.00    +0.000 A 
ATOM      9  C   UNL     1      -0.020  10.556  20.118  0.00  0.00    +0.000 A 
ATOM     10  C   UNL     1       0.623   9.817  19.121  0.00  0.00    +0.000 A 
BRANCH   9  11
ATOM     11  S   UNL     1      -0.826  12.097  19.708  0.00  0.00    +0.000 S 
ATOM     12  O   UNL     1      -1.397  11.937  18.388  0.00  0.00    +0.000 OA
ATOM     13  O   UNL     1      -1.638  12.462  20.851  0.00  0.00    +0.000 OA
BRANCH  11  14
ATOM     14  N   UNL     1       0.439  13.205  19.632  0.00  0.00    +0.000 NA
ATOM     15  C   UNL     1       1.186  13.452  18.395  0.00  0.00    +0.000 C 
ATOM     16  C   UNL     1       2.639  13.255  18.780  0.00  0.00    +0.000 C 
ATOM     17  C   UNL     1       2.710  13.616  20.252  0.00  0.00    +0.000 C 
ATOM     18  C   UNL     1       1.299  13.429  20.805  0.00  0.00    +0.000 C 
ENDBRANCH  11  14
ENDBRANCH   9  11
ENDBRANCH   2   5
BRANCH   1  20
ATOM     19  C   UNL     1       2.075   4.405  17.608  0.00  0.00    +0.000 C 
ATOM     20  C   UNL     1       2.945   5.645  17.807  0.00  0.00    +0.000 C 
BRANCH  20  21
ATOM     21  C   UNL     1       4.274   5.273  18.377  0.00  0.00    +0.000 A 
ATOM     22  N   UNL     1       4.504   4.251  19.186  0.00  0.00    +0.000 NA
ATOM     23  N   UNL     1       5.837   4.249  19.515  0.00  0.00    +0.000 NA
ATOM     24  C   UNL     1       6.401   5.275  18.918  0.00  0.00    +0.000 A 
ATOM     25  C   UNL     1       7.734   5.772  18.916  0.00  0.00    +0.000 A 
ATOM     26  C   UNL     1       8.032   6.879  18.204  0.00  0.00    +0.000 A 
ATOM     27  C   UNL     1       7.017   7.571  17.424  0.00  0.00    +0.000 A 
ATOM     28  C   UNL     1       5.754   7.106  17.426  0.00  0.00    +0.000 A 
ATOM     29  N   UNL     1       5.452   5.963  18.172  0.00  0.00    +0.000 N 
ENDBRANCH  20  21
ENDBRANCH   1  20
TORSDOF 5
ENDMDL
MODEL 5
REMARK VINA RESULT:      -8.2      2.314      3.102
REMARK  Name = 
REMARK  6 active torsions:
REMARK  status: ('A' for Active; 'I' for Inactive)
REMARK    1  A    between atoms: C_1  and  C_2
REMARK    2  A    between atoms: C_2  and  N_3
REMARK    3  A    between atoms: C_2  and  C_20
REMARK    4  A    between atoms: C_4  and  C_6
REMARK    5  A    between atoms: C_10  and  S_11
REMARK    6  A    between atoms: S_11  and  N_14
REMARK                            x       y       z     vdW  Elec       q    Type
REMARK                         _______ _______ _______ _____ _____    ______ ____
ROOT
ATOM      1  N   UNL     1       1.479   8.924  18.542  0.00  0.00    +0.000 N 
ATOM      2  C   UNL     1       1.919   7.942  19.405  0.00  0.00    +0.000 C 
ATOM      3  O   UNL     1       1.745   8.002  20.615  0.00  0.00    +0.000 OA
ATOM      4  H   UNL     1       1.444   8.748  17.548  0.00  0.00    +0.000 HD
ENDROOT
BRANCH   2   5
ATOM      5  C   UNL     1       2.592   6.763  18.792  0.00  0.00    +0.000 A 
ATOM      6  C   UNL     1       2.183   5.482  19.190  0.00  0.00    +0.000 A 
ATOM      7  C   UNL     1       2.787   4.344  18.651  0.00  0.00    +0.000 A 
ATOM      8  C   UNL     1       3.783   4.479  17.685  0.00  0.00    +0.000 A 
ATOM      9  C   UNL     1       4.174   5.756  17.267  0.00  0.00    +0.000 A 
ATOM     10  C   UNL     1       3.617   6.900  17.847  0.00  0.00    +0.000 A 
BRANCH   9  11
ATOM     11  S   UNL     1       5.344   5.914  15.926  0.00  0.00    +0.000 S 
ATOM     12  O   UNL     1       5.302   4.673  15.181  0.00  0.00    +0.000 OA
ATOM     13  O   UNL     1       5.089   7.191  15.294  0.00  0.00    +0.000 OA
BRANCH  11  14
ATOM     14  N   UNL     1       6.832   6.040  16.703  0.00  0.00    +0.000 NA
ATOM     15  C   UNL     1       7.360   4.971  17.557  0.00  0.00    +0.000 C 
ATOM     16  C   UNL     1       7.684   5.655  18.870  0.00  0.00    +0.000 C 
ATOM     17  C   UNL     1       8.011   7.090  18.498  0.00  0.00    +0.000 C 
ATOM     18  C   UNL     1       7.319   7.351  17.162  0.00  0.00    +0.000 C 
ENDBRANCH  11  14
ENDBRANCH   9  11
ENDBRANCH   2   5
BRANCH   1  20
ATOM     19  C   UNL     1      -0.589  10.191  18.218  0.00  0.00    +0.000 C 
ATOM     20  C   UNL     1       0.718  10.076  19.000  0.00  0.00    +0.000 C 
BRANCH  20  21
ATOM     21  C   UNL     1       1.574  11.280  18.781  0.00  0.00    +0.000 A 
ATOM     22  N   UNL     1       2.470  11.421  17.817  0.00  0.00    +0.000 NA
ATOM     23  N   UNL     1       3.069  12.648  17.958  0.00  0.00    +0.000 NA
ATOM     24  C   UNL     1       2.545  13.234  19.011  0.00  0.00    +0.000 A 
ATOM     25  C   UNL     1       2.793  14.487  19.637  0.00  0.00    +0.000 A 
ATOM     26  C   UNL     1       2.097  14.832  20.740  0.00  0.00    +0.000 A 
ATOM     27  C   UNL     1       1.085  13.950  21.300  0.00  0.00    +0.000 A 
ATOM     28  C   UNL     1       0.850  12.762  20.713  0.00  0.00    +0.000 A 
ATOM     29  N   UNL     1       1.579  12.408  19.575  0.00  0.00    +0.000 N 
ENDBRANCH  20  21
ENDBRANCH   1  20
TORSDOF 5
ENDMDL
MODEL 6
REMARK VINA RESULT:      -8.2      3.194      8.485
REMARK  Name = 
REMARK  6 active torsions:
REMARK  status: ('A' for Active; 'I' for Inactive)
REMARK    1  A    between atoms: C_1  and  C_2
REMARK    2  A    between atoms: C_2  and  N_3
REMARK    3  A    between atoms: C_2  and  C_20
REMARK    4  A    between atoms: C_4  and  C_6
REMARK    5  A    between atoms: C_10  and  S_11
REMARK    6  A    between atoms: S_11  and  N_14
REMARK                            x       y       z     vdW  Elec       q    Type
REMARK                         _______ _______ _______ _____ _____    ______ ____
ROOT
ATOM      1  N   UNL     1       2.267   6.537  18.963  0.00  0.00    +0.000 N 
ATOM      2  C   UNL     1       2.094   7.880  18.699  0.00  0.00    +0.000 C 
ATOM      3  O   UNL     1       2.396   8.385  17.625  0.00  0.00    +0.000 OA
ATOM      4  H   UNL     1       1.817   6.115  19.762  0.00  0.00    +0.000 HD
ENDROOT
BRANCH   2   5
ATOM      5  C   UNL     1       1.477   8.701  19.777  0.00  0.00    +0.000 A 
ATOM      6  C   UNL     1       1.198   8.084  21.006  0.00  0.00    +0.000 A 
ATOM      7  C   UNL     1       0.612   8.808  22.047  0.00  0.00    +0.000 A 
ATOM      8  C   UNL     1       0.331  10.162  21.878  0.00  0.00    +0.000 A 
ATOM      9  C   UNL     1       0.633  10.786  20.661  0.00  0.00    +0.000 A 
ATOM     10  C   UNL     1       1.162  10.054  19.594  0.00  0.00    +0.000 A 
BRANCH   9  11
ATOM     11  S   UNL     1       0.404  12.552  20.507  0.00  0.00    +0.000 S 
ATOM     12  O   UNL     1      -0.730  12.755  19.630  0.00  0.00    +0.000 OA
ATOM     13  O   UNL     1       0.438  13.098  21.848  0.00  0.00    +0.000 OA
BRANCH  11  14
ATOM     14  N   UNL     1       1.803  13.072  19.730  0.00  0.00    +0.000 NA
ATOM     15  C   UNL     1       2.890  13.745  20.448  0.00  0.00    +0.000 C 
ATOM     16  C   UNL     1       3.120  15.029  19.677  0.00  0.00    +0.000 C 
ATOM     17  C   UNL     1       2.716  14.711  18.249  0.00  0.00    +0.000 C 
ATOM     18  C   UNL     1       1.747  13.533  18.333  0.00  0.00    +0.000 C 
ENDBRANCH  11  14
ENDBRANCH   9  11
ENDBRANCH   2   5
BRANCH   1  20
ATOM     19  C   UNL     1       1.817   4.412  17.834  0.00  0.00    +0.000 C 
ATOM     20  C   UNL     1       2.762   5.607  17.961  0.00  0.00    +0.000 C 
BRANCH  20  21
ATOM     21  C   UNL     1       4.116   5.164  18.408  0.00  0.00    +0.000 A 
ATOM     22  N   UNL     1       4.372   4.094  19.143  0.00  0.00    +0.000 NA
ATOM     23  N   UNL     1       5.725   4.034  19.367  0.00  0.00    +0.000 NA
ATOM     24  C   UNL     1       6.277   5.073  18.782  0.00  0.00    +0.000 A 
ATOM     25  C   UNL     1       7.622   5.530  18.703  0.00  0.00    +0.000 A 
ATOM     26  C   UNL     1       7.903   6.664  18.028  0.00  0.00    +0.000 A 
ATOM     27  C   UNL     1       6.857   7.427  17.366  0.00  0.00    +0.000 A 
ATOM     28  C   UNL     1       5.582   7.001  17.441  0.00  0.00    +0.000 A 
ATOM     29  N   UNL     1       5.298   5.829  18.148  0.00  0.00    +0.000 N 
ENDBRANCH  20  21
ENDBRANCH   1  20
TORSDOF 5
ENDMDL
MODEL 7
REMARK VINA RESULT:      -8.2      2.833      8.926
REMARK  Name = 
REMARK  6 active torsions:
REMARK  status: ('A' for Active; 'I' for Inactive)
REMARK    1  A    between atoms: C_1  and  C_2
REMARK    2  A    between atoms: C_2  and  N_3
REMARK    3  A    between atoms: C_2  and  C_20
REMARK    4  A    between atoms: C_4  and  C_6
REMARK    5  A    between atoms: C_10  and  S_11
REMARK    6  A    between atoms: S_11  and  N_14
REMARK                            x       y       z     vdW  Elec       q    Type
REMARK                         _______ _______ _______ _____ _____    ______ ____
ROOT
ATOM      1  N   UNL     1       2.304   6.691  18.739  0.00  0.00    +0.000 N 
ATOM      2  C   UNL     1       2.194   8.008  18.346  0.00  0.00    +0.000 C 
ATOM      3  O   UNL     1       2.560   8.401  17.246  0.00  0.00    +0.000 OA
ATOM      4  H   UNL     1       1.805   6.360  19.553  0.00  0.00    +0.000 HD
ENDROOT
BRANCH   2   5
ATOM      5  C   UNL     1       1.564   8.947  19.316  0.00  0.00    +0.000 A 
ATOM      6  C   UNL     1       1.215   8.458  20.584  0.00  0.00    +0.000 A 
ATOM      7  C   UNL     1       0.614   9.296  21.527  0.00  0.00    +0.000 A 
ATOM      8  C   UNL     1       0.389  10.636  21.220  0.00  0.00    +0.000 A 
ATOM      9  C   UNL     1       0.760  11.132  19.965  0.00  0.00    +0.000 A 
ATOM     10  C   UNL     1       1.305  10.286  18.994  0.00  0.00    +0.000 A 
BRANCH   9  11
ATOM     11  S   UNL     1       0.601  12.881  19.637  0.00  0.00    +0.000 S 
ATOM     12  O   UNL     1       0.958  13.574  20.856  0.00  0.00    +0.000 OA
ATOM     13  O   UNL     1       1.284  13.137  18.386  0.00  0.00    +0.000 OA
BRANCH  11  14
ATOM     14  N   UNL     1      -1.045  13.088  19.347  0.00  0.00    +0.000 NA
ATOM     15  C   UNL     1      -1.950  13.648  20.355  0.00  0.00    +0.000 C 
ATOM     16  C   UNL     1      -3.065  12.630  20.476  0.00  0.00    +0.000 C 
ATOM     17  C   UNL     1      -3.139  11.961  19.116  0.00  0.00    +0.000 C 
ATOM     18  C   UNL     1      -1.766  12.148  18.474  0.00  0.00    +0.000 C 
ENDBRANCH  11  14
ENDBRANCH   9  11
ENDBRANCH   2   5
BRANCH   1  20
ATOM     19  C   UNL     1       1.832   4.476  17.810  0.00  0.00    +0.000 C 
ATOM     20  C   UNL     1       2.804   5.655  17.850  0.00  0.00    +0.000 C 
BRANCH  20  21
ATOM     21  C   UNL     1       4.133   5.227  18.382  0.00  0.00    +0.000 A 
ATOM     22  N   UNL     1       4.345   4.192  19.178  0.00  0.00    +0.000 NA
ATOM     23  N   UNL     1       5.685   4.136  19.470  0.00  0.00    +0.000 NA
ATOM     24  C   UNL     1       6.272   5.144  18.864  0.00  0.00    +0.000 A 
ATOM     25  C   UNL     1       7.622   5.590  18.829  0.00  0.00    +0.000 A 
ATOM     26  C   UNL     1       7.943   6.689  18.115  0.00  0.00    +0.000 A 
ATOM     27  C   UNL     1       6.936   7.425  17.368  0.00  0.00    +0.000 A 
ATOM     28  C   UNL     1       5.656   7.008  17.401  0.00  0.00    +0.000 A 
ATOM     29  N   UNL     1       5.330   5.873  18.148  0.00  0.00    +0.000 N 
ENDBRANCH  20  21
ENDBRANCH   1  20
TORSDOF 5
ENDMDL
MODEL 8
REMARK VINA RESULT:      -8.1      2.983      9.062
REMARK  Name = 
REMARK  6 active torsions:
REMARK  status: ('A' for Active; 'I' for Inactive)
REMARK    1  A    between atoms: C_1  and  C_2
REMARK    2  A    between atoms: C_2  and  N_3
REMARK    3  A    between atoms: C_2  and  C_20
REMARK    4  A    between atoms: C_4  and  C_6
REMARK    5  A    between atoms: C_10  and  S_11
REMARK    6  A    between atoms: S_11  and  N_14
REMARK                            x       y       z     vdW  Elec       q    Type
REMARK                         _______ _______ _______ _____ _____    ______ ____
ROOT
ATOM      1  N   UNL     1       2.241   6.461  19.218  0.00  0.00    +0.000 N 
ATOM      2  C   UNL     1       2.043   7.790  18.906  0.00  0.00    +0.000 C 
ATOM      3  O   UNL     1       2.298   8.253  17.802  0.00  0.00    +0.000 OA
ATOM      4  H   UNL     1       1.826   6.068  20.051  0.00  0.00    +0.000 HD
ENDROOT
BRANCH   2   5
ATOM      5  C   UNL     1       1.457   8.649  19.973  0.00  0.00    +0.000 A 
ATOM      6  C   UNL     1       1.129   8.055  21.200  0.00  0.00    +0.000 A 
ATOM      7  C   UNL     1       0.569   8.815  22.230  0.00  0.00    +0.000 A 
ATOM      8  C   UNL     1       0.365  10.181  22.051  0.00  0.00    +0.000 A 
ATOM      9  C   UNL     1       0.716  10.782  20.837  0.00  0.00    +0.000 A 
ATOM     10  C   UNL     1       1.219  10.016  19.780  0.00  0.00    +0.000 A 
BRANCH   9  11
ATOM     11  S   UNL     1       0.586  12.556  20.672  0.00  0.00    +0.000 S 
ATOM     12  O   UNL     1       0.290  13.082  21.987  0.00  0.00    +0.000 OA
ATOM     13  O   UNL     1       1.744  12.993  19.918  0.00  0.00    +0.000 OA
BRANCH  11  14
ATOM     14  N   UNL     1      -0.755  12.771  19.677  0.00  0.00    +0.000 NA
ATOM     15  C   UNL     1      -2.094  12.316  20.064  0.00  0.00    +0.000 C 
ATOM     16  C   UNL     1      -2.557  11.457  18.905  0.00  0.00    +0.000 C 
ATOM     17  C   UNL     1      -1.846  12.020  17.688  0.00  0.00    +0.000 C 
ATOM     18  C   UNL     1      -0.604  12.737  18.214  0.00  0.00    +0.000 C 
ENDBRANCH  11  14
ENDBRANCH   9  11
ENDBRANCH   2   5
BRANCH   1  20
ATOM     19  C   UNL     1       1.922   4.191  18.361  0.00  0.00    +0.000 C 
ATOM     20  C   UNL     1       2.709   5.495  18.238  0.00  0.00    +0.000 C 
BRANCH  20  21
ATOM     21  C   UNL     1       4.159   5.266  18.509  0.00  0.00    +0.000 A 
ATOM     22  N   UNL     1       4.735   5.307  19.700  0.00  0.00    +0.000 NA
ATOM     23  N   UNL     1       6.078   5.070  19.541  0.00  0.00    +0.000 NA
ATOM     24  C   UNL     1       6.309   4.903  18.259  0.00  0.00    +0.000 A 
ATOM     25  C   UNL     1       7.500   4.655  17.521  0.00  0.00    +0.000 A 
ATOM     26  C   UNL     1       7.441   4.536  16.178  0.00  0.00    +0.000 A 
ATOM     27  C   UNL     1       6.177   4.644  15.466  0.00  0.00    +0.000 A 
ATOM     28  C   UNL     1       5.048   4.882  16.160  0.00  0.00    +0.000 A 
ATOM     29  N   UNL     1       5.119   5.011  17.549  0.00  0.00    +0.000 N 
ENDBRANCH  20  21
ENDBRANCH   1  20
TORSDOF 5
ENDMDL
MODEL 9
REMARK VINA RESULT:      -8.1      2.916      8.984
REMARK  Name = 
REMARK  6 active torsions:
REMARK  status: ('A' for Active; 'I' for Inactive)
REMARK    1  A    between atoms: C_1  and  C_2
REMARK    2  A    between atoms: C_2  and  N_3
REMARK    3  A    between atoms: C_2  and  C_20
REMARK    4  A    between atoms: C_4  and  C_6
REMARK    5  A    between atoms: C_10  and  S_11
REMARK    6  A    between atoms: S_11  and  N_14
REMARK                            x       y       z     vdW  Elec       q    Type
REMARK                         _______ _______ _______ _____ _____    ______ ____
ROOT
ATOM      1  N   UNL     1       2.966   5.561  19.928  0.00  0.00    +0.000 N 
ATOM      2  C   UNL     1       2.390   6.519  19.119  0.00  0.00    +0.000 C 
ATOM      3  O   UNL     1       2.307   6.393  17.905  0.00  0.00    +0.000 OA
ATOM      4  H   UNL     1       2.828   5.591  20.928  0.00  0.00    +0.000 HD
ENDROOT
BRANCH   2   5
ATOM      5  C   UNL     1       1.826   7.718  19.799  0.00  0.00    +0.000 A 
ATOM      6  C   UNL     1       1.356   7.578  21.113  0.00  0.00    +0.000 A 
ATOM      7  C   UNL     1       0.810   8.671  21.792  0.00  0.00    +0.000 A 
ATOM      8  C   UNL     1       0.761   9.918  21.173  0.00  0.00    +0.000 A 
ATOM      9  C   UNL     1       1.254  10.065  19.871  0.00  0.00    +0.000 A 
ATOM     10  C   UNL     1       1.745   8.964  19.163  0.00  0.00    +0.000 A 
BRANCH   9  11
ATOM     11  S   UNL     1       1.319  11.696  19.143  0.00  0.00    +0.000 S 
ATOM     12  O   UNL     1       1.617  12.624  20.213  0.00  0.00    +0.000 OA
ATOM     13  O   UNL     1       2.157  11.597  17.966  0.00  0.00    +0.000 OA
BRANCH  11  14
ATOM     14  N   UNL     1      -0.254  11.960  18.605  0.00  0.00    +0.000 NA
ATOM     15  C   UNL     1      -1.135  12.953  19.227  0.00  0.00    +0.000 C 
ATOM     16  C   UNL     1      -2.393  12.183  19.574  0.00  0.00    +0.000 C 
ATOM     17  C   UNL     1      -2.470  11.068  18.548  0.00  0.00    +0.000 C 
ATOM     18  C   UNL     1      -1.043  10.849  18.050  0.00  0.00    +0.000 C 
ENDBRANCH  11  14
ENDBRANCH   9  11
ENDBRANCH   2   5
BRANCH   1  20
ATOM     19  C   UNL     1       3.374   3.210  20.472  0.00  0.00    +0.000 C 
ATOM     20  C   UNL     1       3.461   4.298  19.403  0.00  0.00    +0.000 C 
BRANCH  20  21
ATOM     21  C   UNL     1       4.879   4.523  18.991  0.00  0.00    +0.000 A 
ATOM     22  N   UNL     1       5.870   4.860  19.800  0.00  0.00    +0.000 NA
ATOM     23  N   UNL     1       7.013   4.999  19.051  0.00  0.00    +0.000 NA
ATOM     24  C   UNL     1       6.705   4.761  17.797  0.00  0.00    +0.000 A 
ATOM     25  C   UNL     1       7.470   4.782  16.598  0.00  0.00    +0.000 A 
ATOM     26  C   UNL     1       6.875   4.500  15.421  0.00  0.00    +0.000 A 
ATOM     27  C   UNL     1       5.461   4.163  15.351  0.00  0.00    +0.000 A 
ATOM     28  C   UNL     1       4.732   4.147  16.482  0.00  0.00    +0.000 A 
ATOM     29  N   UNL     1       5.354   4.446  17.697  0.00  0.00    +0.000 N 
ENDBRANCH  20  21
ENDBRANCH   1  20
TORSDOF 5
ENDMDL
