MODEL 1
REMARK VINA RESULT:      -9.3      0.000      0.000
REMARK  Name = 
REMARK  5 active torsions:
REMARK  status: ('A' for Active; 'I' for Inactive)
REMARK    1  A    between atoms: C_2  and  C_4
REMARK    2  A    between atoms: C_4  and  C_5
REMARK    3  A    between atoms: N_13  and  C_14
REMARK    4  A    between atoms: C_14  and  C_15
REMARK    5  A    between atoms: C_17  and  C_18
REMARK                            x       y       z     vdW  Elec       q    Type
REMARK                         _______ _______ _______ _____ _____    ______ ____
ROOT
ATOM      1  C   UNL     1       4.329   4.098  18.265  0.00  0.00    +0.000 C 
ATOM      2  C   UNL     1       4.118   4.195  16.738  0.00  0.00    +0.000 C 
ATOM      3  C   UNL     1       5.477   3.779  16.190  0.00  0.00    +0.000 C 
ATOM      4  N   UNL     1       6.452   4.498  17.029  0.00  0.00    +0.000 NA
ATOM      5  C   UNL     1       5.815   4.552  18.371  0.00  0.00    +0.000 C 
ENDROOT
BRANCH   1   6
ATOM      6  C   UNL     1       3.394   4.989  19.098  0.00  0.00    +0.000 A 
ATOM      7  C   UNL     1       3.268   6.363  18.809  0.00  0.00    +0.000 A 
ATOM      8  C   UNL     1       2.382   7.178  19.519  0.00  0.00    +0.000 A 
ATOM      9  C   UNL     1       1.619   6.641  20.549  0.00  0.00    +0.000 A 
ATOM     10  C   UNL     1       1.757   5.296  20.882  0.00  0.00    +0.000 A 
ATOM     11  C   UNL     1       2.644   4.479  20.170  0.00  0.00    +0.000 A 
ENDBRANCH   1   6
BRANCH   1  13
ATOM     12  N   UNL     1       4.859   2.083  19.663  0.00  0.00    +0.000 N 
ATOM     13  C   UNL     1       4.107   2.611  18.657  0.00  0.00    +0.000 C 
ATOM     14  O   UNL     1       3.256   1.895  18.133  0.00  0.00    +0.000 OA
ATOM     15  H   UNL     1       4.649   1.126  19.917  0.00  0.00    +0.000 HD
ATOM     16  H   UNL     1       5.421   2.629  20.296  0.00  0.00    +0.000 HD
ENDBRANCH   1  13
BRANCH   4  17
ATOM     17  C   UNL     1       6.704   5.843  16.455  0.00  0.00    +0.000 C 
BRANCH  17  18
ATOM     18  C   UNL     1       7.330   6.830  17.382  0.00  0.00    +0.000 A 
ATOM     19  N   UNL     1       7.471   8.126  17.219  0.00  0.00    +0.000 NA
ATOM     20  C   UNL     1       8.247   8.485  18.293  0.00  0.00    +0.000 A 
ATOM     21  N   UNL     1       8.558   7.463  19.108  0.00  0.00    +0.000 NA
ATOM     22  O   UNL     1       7.948   6.359  18.501  0.00  0.00    +0.000 OA
BRANCH  20  23
ATOM     23  C   UNL     1       8.713   9.853  18.457  0.00  0.00    +0.000 A 
ATOM     24  C   UNL     1       8.176  10.868  17.645  0.00  0.00    +0.000 A 
ATOM     25  C   UNL     1       8.641  12.173  17.752  0.00  0.00    +0.000 A 
ATOM     26  F   UNL     1       8.119  13.120  16.963  0.00  0.00    +0.000 F 
ATOM     27  C   UNL     1       9.639  12.492  18.661  0.00  0.00    +0.000 A 
ATOM     28  F   UNL     1      10.089  13.752  18.753  0.00  0.00    +0.000 F 
ATOM     29  C   UNL     1      10.172  11.497  19.469  0.00  0.00    +0.000 A 
ATOM     30  F   UNL     1      11.142  11.794  20.344  0.00  0.00    +0.000 F 
ATOM     31  C   UNL     1       9.718  10.181  19.377  0.00  0.00    +0.000 A 
ENDBRANCH  20  23
ENDBRANCH  17  18
ENDBRANCH   4  17
TORSDOF 5
ENDMDL
MODEL 2
REMARK VINA RESULT:      -9.1      5.654      7.953
REMARK  Name = 
REMARK  5 active torsions:
REMARK  status: ('A' for Active; 'I' for Inactive)
REMARK    1  A    between atoms: C_2  and  C_4
REMARK    2  A    between atoms: C_4  and  C_5
REMARK    3  A    between atoms: N_13  and  C_14
REMARK    4  A    between atoms: C_14  and  C_15
REMARK    5  A    between atoms: C_17  and  C_18
REMARK                            x       y       z     vdW  Elec       q    Type
REMARK                         _______ _______ _______ _____ _____    ______ ____
ROOT
ATOM      1  C   UNL     1       3.834   4.042  18.024  0.00  0.00    +0.000 C 
ATOM      2  C   UNL     1       4.179   4.162  19.526  0.00  0.00    +0.000 C 
ATOM      3  C   UNL     1       2.843   4.561  20.140  0.00  0.00    +0.000 C 
ATOM      4  N   UNL     1       2.313   5.596  19.236  0.00  0.00    +0.000 NA
ATOM      5  C   UNL     1       2.785   5.186  17.888  0.00  0.00    +0.000 C 
ENDROOT
BRANCH   1   6
ATOM      6  C   UNL     1       5.027   4.240  17.077  0.00  0.00    +0.000 A 
ATOM      7  C   UNL     1       4.859   4.138  15.681  0.00  0.00    +0.000 A 
ATOM      8  C   UNL     1       5.920   4.369  14.801  0.00  0.00    +0.000 A 
ATOM      9  C   UNL     1       7.178   4.684  15.298  0.00  0.00    +0.000 A 
ATOM     10  C   UNL     1       7.380   4.748  16.674  0.00  0.00    +0.000 A 
ATOM     11  C   UNL     1       6.318   4.518  17.557  0.00  0.00    +0.000 A 
ENDBRANCH   1   6
BRANCH   1  13
ATOM     12  N   UNL     1       3.984   1.541  18.157  0.00  0.00    +0.000 N 
ATOM     13  C   UNL     1       3.235   2.625  17.811  0.00  0.00    +0.000 C 
ATOM     14  O   UNL     1       2.098   2.430  17.384  0.00  0.00    +0.000 OA
ATOM     15  H   UNL     1       3.538   0.640  18.046  0.00  0.00    +0.000 HD
ATOM     16  H   UNL     1       4.826   1.589  18.709  0.00  0.00    +0.000 HD
ENDBRANCH   1  13
BRANCH   4  17
ATOM     17  C   UNL     1       2.827   6.926  19.648  0.00  0.00    +0.000 C 
BRANCH  17  18
ATOM     18  C   UNL     1       2.092   8.099  19.091  0.00  0.00    +0.000 A 
ATOM     19  N   UNL     1       0.933   8.590  19.469  0.00  0.00    +0.000 NA
ATOM     20  C   UNL     1       0.683   9.545  18.515  0.00  0.00    +0.000 A 
ATOM     21  N   UNL     1       1.654   9.666  17.595  0.00  0.00    +0.000 NA
ATOM     22  O   UNL     1       2.594   8.703  17.977  0.00  0.00    +0.000 OA
BRANCH  20  23
ATOM     23  C   UNL     1      -0.565  10.292  18.513  0.00  0.00    +0.000 A 
ATOM     24  C   UNL     1      -0.811  11.231  19.532  0.00  0.00    +0.000 A 
ATOM     25  C   UNL     1      -2.016  11.920  19.575  0.00  0.00    +0.000 A 
ATOM     26  F   UNL     1      -2.229  12.804  20.558  0.00  0.00    +0.000 F 
ATOM     27  C   UNL     1      -2.992  11.695  18.615  0.00  0.00    +0.000 A 
ATOM     28  F   UNL     1      -4.156  12.358  18.668  0.00  0.00    +0.000 F 
ATOM     29  C   UNL     1      -2.755  10.772  17.604  0.00  0.00    +0.000 A 
ATOM     30  F   UNL     1      -3.696  10.541  16.678  0.00  0.00    +0.000 F 
ATOM     31  C   UNL     1      -1.551  10.070  17.543  0.00  0.00    +0.000 A 
ENDBRANCH  20  23
ENDBRANCH  17  18
ENDBRANCH   4  17
TORSDOF 5
ENDMDL
MODEL 3
REMARK VINA RESULT:      -9.0      5.652      7.832
REMARK  Name = 
REMARK  5 active torsions:
REMARK  status: ('A' for Active; 'I' for Inactive)
REMARK    1  A    between atoms: C_2  and  C_4
REMARK    2  A    between atoms: C_4  and  C_5
REMARK    3  A    between atoms: N_13  and  C_14
REMARK    4  A    between atoms: C_14  and  C_15
REMARK    5  A    between atoms: C_17  and  C_18
REMARK                            x       y       z     vdW  Elec       q    Type
REMARK                         _______ _______ _______ _____ _____    ______ ____
ROOT
ATOM      1  C   UNL     1       3.720   3.952  18.097  0.00  0.00    +0.000 C 
ATOM      2  C   UNL     1       4.010   3.974  19.614  0.00  0.00    +0.000 C 
ATOM      3  C   UNL     1       2.661   4.372  20.201  0.00  0.00    +0.000 C 
ATOM      4  N   UNL     1       2.191   5.471  19.341  0.00  0.00    +0.000 NA
ATOM      5  C   UNL     1       2.705   5.128  17.989  0.00  0.00    +0.000 C 
ENDROOT
BRANCH   1   6
ATOM      6  C   UNL     1       4.953   4.172  17.207  0.00  0.00    +0.000 A 
ATOM      7  C   UNL     1       6.205   4.477  17.779  0.00  0.00    +0.000 A 
ATOM      8  C   UNL     1       7.349   4.626  16.990  0.00  0.00    +0.000 A 
ATOM      9  C   UNL     1       7.262   4.497  15.610  0.00  0.00    +0.000 A 
ATOM     10  C   UNL     1       6.029   4.239  15.017  0.00  0.00    +0.000 A 
ATOM     11  C   UNL     1       4.882   4.089  15.807  0.00  0.00    +0.000 A 
ENDBRANCH   1   6
BRANCH   1  13
ATOM     12  N   UNL     1       3.784   1.443  18.130  0.00  0.00    +0.000 N 
ATOM     13  C   UNL     1       3.096   2.566  17.778  0.00  0.00    +0.000 C 
ATOM     14  O   UNL     1       1.989   2.426  17.260  0.00  0.00    +0.000 OA
ATOM     15  H   UNL     1       3.320   0.563  17.947  0.00  0.00    +0.000 HD
ATOM     16  H   UNL     1       4.583   1.440  18.743  0.00  0.00    +0.000 HD
ENDBRANCH   1  13
BRANCH   4  17
ATOM     17  C   UNL     1       2.721   6.761  19.849  0.00  0.00    +0.000 C 
BRANCH  17  18
ATOM     18  C   UNL     1       2.028   7.983  19.346  0.00  0.00    +0.000 A 
ATOM     19  N   UNL     1       1.057   8.661  19.914  0.00  0.00    +0.000 NA
ATOM     20  C   UNL     1       0.714   9.570  18.943  0.00  0.00    +0.000 A 
ATOM     21  N   UNL     1       1.455   9.481  17.826  0.00  0.00    +0.000 NA
ATOM     22  O   UNL     1       2.332   8.424  18.093  0.00  0.00    +0.000 OA
BRANCH  20  23
ATOM     23  C   UNL     1      -0.400  10.486  19.134  0.00  0.00    +0.000 A 
ATOM     24  C   UNL     1      -0.563  11.125  20.376  0.00  0.00    +0.000 A 
ATOM     25  C   UNL     1      -1.647  11.967  20.595  0.00  0.00    +0.000 A 
ATOM     26  F   UNL     1      -1.784  12.559  21.788  0.00  0.00    +0.000 F 
ATOM     27  C   UNL     1      -2.580  12.190  19.593  0.00  0.00    +0.000 A 
ATOM     28  F   UNL     1      -3.627  12.997  19.814  0.00  0.00    +0.000 F 
ATOM     29  C   UNL     1      -2.423  11.565  18.363  0.00  0.00    +0.000 A 
ATOM     30  F   UNL     1      -3.325  11.767  17.392  0.00  0.00    +0.000 F 
ATOM     31  C   UNL     1      -1.342  10.717  18.123  0.00  0.00    +0.000 A 
ENDBRANCH  20  23
ENDBRANCH  17  18
ENDBRANCH   4  17
TORSDOF 5
ENDMDL
MODEL 4
REMARK VINA RESULT:      -9.0      5.631      7.774
REMARK  Name = 
REMARK  5 active torsions:
REMARK  status: ('A' for Active; 'I' for Inactive)
REMARK    1  A    between atoms: C_2  and  C_4
REMARK    2  A    between atoms: C_4  and  C_5
REMARK    3  A    between atoms: N_13  and  C_14
REMARK    4  A    between atoms: C_14  and  C_15
REMARK    5  A    between atoms: C_17  and  C_18
REMARK                            x       y       z     vdW  Elec       q    Type
REMARK                         _______ _______ _______ _____ _____    ______ ____
ROOT
ATOM      1  C   UNL     1       3.752   4.048  18.075  0.00  0.00    +0.000 C 
ATOM      2  C   UNL     1       4.036   4.120  19.593  0.00  0.00    +0.000 C 
ATOM      3  C   UNL     1       2.687   4.542  20.161  0.00  0.00    +0.000 C 
ATOM      4  N   UNL     1       2.224   5.614  19.263  0.00  0.00    +0.000 NA
ATOM      5  C   UNL     1       2.742   5.224  17.925  0.00  0.00    +0.000 C 
ENDROOT
BRANCH   1   6
ATOM      6  C   UNL     1       4.989   4.234  17.184  0.00  0.00    +0.000 A 
ATOM      7  C   UNL     1       4.881   4.148  15.781  0.00  0.00    +0.000 A 
ATOM      8  C   UNL     1       5.984   4.369  14.951  0.00  0.00    +0.000 A 
ATOM      9  C   UNL     1       7.223   4.659  15.507  0.00  0.00    +0.000 A 
ATOM     10  C   UNL     1       7.365   4.708  16.891  0.00  0.00    +0.000 A 
ATOM     11  C   UNL     1       6.261   4.487  17.723  0.00  0.00    +0.000 A 
ENDBRANCH   1   6
BRANCH   1  13
ATOM     12  N   UNL     1       3.832   1.541  18.137  0.00  0.00    +0.000 N 
ATOM     13  C   UNL     1       3.123   2.654  17.800  0.00  0.00    +0.000 C 
ATOM     14  O   UNL     1       1.996   2.502  17.332  0.00  0.00    +0.000 OA
ATOM     15  H   UNL     1       3.367   0.655  17.985  0.00  0.00    +0.000 HD
ATOM     16  H   UNL     1       4.657   1.549  18.716  0.00  0.00    +0.000 HD
ENDBRANCH   1  13
BRANCH   4  17
ATOM     17  C   UNL     1       2.757   6.918  19.730  0.00  0.00    +0.000 C 
BRANCH  17  18
ATOM     18  C   UNL     1       1.988   8.119  19.295  0.00  0.00    +0.000 A 
ATOM     19  N   UNL     1       1.036   8.755  19.940  0.00  0.00    +0.000 NA
ATOM     20  C   UNL     1       0.592   9.662  19.009  0.00  0.00    +0.000 A 
ATOM     21  N   UNL     1       1.253   9.614  17.841  0.00  0.00    +0.000 NA
ATOM     22  O   UNL     1       2.184   8.586  18.030  0.00  0.00    +0.000 OA
BRANCH  20  23
ATOM     23  C   UNL     1      -0.537  10.535  19.292  0.00  0.00    +0.000 A 
ATOM     24  C   UNL     1      -1.550  10.689  18.329  0.00  0.00    +0.000 A 
ATOM     25  C   UNL     1      -2.612  11.553  18.559  0.00  0.00    +0.000 A 
ATOM     26  F   UNL     1      -3.560  11.689  17.624  0.00  0.00    +0.000 F 
ATOM     27  C   UNL     1      -2.691  12.274  19.742  0.00  0.00    +0.000 A 
ATOM     28  F   UNL     1      -3.715  13.113  19.955  0.00  0.00    +0.000 F 
ATOM     29  C   UNL     1      -1.697  12.124  20.701  0.00  0.00    +0.000 A 
ATOM     30  F   UNL     1      -1.759  12.822  21.843  0.00  0.00    +0.000 F 
ATOM     31  C   UNL     1      -0.622  11.260  20.488  0.00  0.00    +0.000 A 
ENDBRANCH  20  23
ENDBRANCH  17  18
ENDBRANCH   4  17
TORSDOF 5
ENDMDL
MODEL 5
REMARK VINA RESULT:      -9.0      0.680      1.882
REMARK  Name = 
REMARK  5 active torsions:
REMARK  status: ('A' for Active; 'I' for Inactive)
REMARK    1  A    between atoms: C_2  and  C_4
REMARK    2  A    between atoms: C_4  and  C_5
REMARK    3  A    between atoms: N_13  and  C_14
REMARK    4  A    between atoms: C_14  and  C_15
REMARK    5  A    between atoms: C_17  and  C_18
REMARK                            x       y       z     vdW  Elec       q    Type
REMARK                         _______ _______ _______ _____ _____    ______ ____
ROOT
ATOM      1  C   UNL     1       4.303   3.868  18.413  0.00  0.00    +0.000 C 
ATOM      2  C   UNL     1       4.144   3.907  16.877  0.00  0.00    +0.000 C 
ATOM      3  C   UNL     1       5.566   3.647  16.392  0.00  0.00    +0.000 C 
ATOM      4  N   UNL     1       6.411   4.496  17.249  0.00  0.00    +0.000 NA
ATOM      5  C   UNL     1       5.718   4.500  18.564  0.00  0.00    +0.000 C 
ENDROOT
BRANCH   1   6
ATOM      6  C   UNL     1       3.234   4.656  19.187  0.00  0.00    +0.000 A 
ATOM      7  C   UNL     1       2.180   3.985  19.839  0.00  0.00    +0.000 A 
ATOM      8  C   UNL     1       1.231   4.680  20.593  0.00  0.00    +0.000 A 
ATOM      9  C   UNL     1       1.302   6.064  20.693  0.00  0.00    +0.000 A 
ATOM     10  C   UNL     1       2.309   6.754  20.023  0.00  0.00    +0.000 A 
ATOM     11  C   UNL     1       3.261   6.058  19.268  0.00  0.00    +0.000 A 
ENDBRANCH   1   6
BRANCH   1  13
ATOM     12  N   UNL     1       3.593   1.492  18.024  0.00  0.00    +0.000 N 
ATOM     13  C   UNL     1       4.246   2.373  18.834  0.00  0.00    +0.000 C 
ATOM     14  O   UNL     1       4.798   1.934  19.841  0.00  0.00    +0.000 OA
ATOM     15  H   UNL     1       3.621   0.522  18.311  0.00  0.00    +0.000 HD
ATOM     16  H   UNL     1       3.299   1.700  17.083  0.00  0.00    +0.000 HD
ENDBRANCH   1  13
BRANCH   4  17
ATOM     17  C   UNL     1       6.523   5.850  16.651  0.00  0.00    +0.000 C 
BRANCH  17  18
ATOM     18  C   UNL     1       7.233   6.863  17.485  0.00  0.00    +0.000 A 
ATOM     19  N   UNL     1       7.322   8.160  17.291  0.00  0.00    +0.000 NA
ATOM     20  C   UNL     1       8.213   8.551  18.260  0.00  0.00    +0.000 A 
ATOM     21  N   UNL     1       8.644   7.548  19.043  0.00  0.00    +0.000 NA
ATOM     22  O   UNL     1       7.991   6.422  18.527  0.00  0.00    +0.000 OA
BRANCH  20  23
ATOM     23  C   UNL     1       8.664   9.931  18.350  0.00  0.00    +0.000 A 
ATOM     24  C   UNL     1       9.665  10.272  19.277  0.00  0.00    +0.000 A 
ATOM     25  C   UNL     1      10.077  11.592  19.412  0.00  0.00    +0.000 A 
ATOM     26  F   UNL     1      11.027  11.892  20.306  0.00  0.00    +0.000 F 
ATOM     27  C   UNL     1       9.508  12.591  18.635  0.00  0.00    +0.000 A 
ATOM     28  F   UNL     1       9.904  13.864  18.777  0.00  0.00    +0.000 F 
ATOM     29  C   UNL     1       8.521  12.261  17.715  0.00  0.00    +0.000 A 
ATOM     30  F   UNL     1       7.959  13.220  16.966  0.00  0.00    +0.000 F 
ATOM     31  C   UNL     1       8.095  10.942  17.564  0.00  0.00    +0.000 A 
ENDBRANCH  20  23
ENDBRANCH  17  18
ENDBRANCH   4  17
TORSDOF 5
ENDMDL
MODEL 6
REMARK VINA RESULT:      -8.9      5.410      7.294
REMARK  Name = 
REMARK  5 active torsions:
REMARK  status: ('A' for Active; 'I' for Inactive)
REMARK    1  A    between atoms: C_2  and  C_4
REMARK    2  A    between atoms: C_4  and  C_5
REMARK    3  A    between atoms: N_13  and  C_14
REMARK    4  A    between atoms: C_14  and  C_15
REMARK    5  A    between atoms: C_17  and  C_18
REMARK                            x       y       z     vdW  Elec       q    Type
REMARK                         _______ _______ _______ _____ _____    ______ ____
ROOT
ATOM      1  C   UNL     1       3.842   4.850  18.672  0.00  0.00    +0.000 C 
ATOM      2  C   UNL     1       3.933   4.999  17.137  0.00  0.00    +0.000 C 
ATOM      3  C   UNL     1       4.661   6.328  16.978  0.00  0.00    +0.000 C 
ATOM      4  N   UNL     1       4.013   7.225  17.949  0.00  0.00    +0.000 NA
ATOM      5  C   UNL     1       3.650   6.339  19.086  0.00  0.00    +0.000 C 
ENDROOT
BRANCH   1   6
ATOM      6  C   UNL     1       2.685   3.963  19.161  0.00  0.00    +0.000 A 
ATOM      7  C   UNL     1       2.356   3.906  20.531  0.00  0.00    +0.000 A 
ATOM      8  C   UNL     1       1.273   3.149  20.987  0.00  0.00    +0.000 A 
ATOM      9  C   UNL     1       0.511   2.415  20.087  0.00  0.00    +0.000 A 
ATOM     10  C   UNL     1       0.843   2.422  18.735  0.00  0.00    +0.000 A 
ATOM     11  C   UNL     1       1.926   3.180  18.276  0.00  0.00    +0.000 A 
ENDBRANCH   1   6
BRANCH   1  13
ATOM     12  N   UNL     1       5.297   2.891  19.258  0.00  0.00    +0.000 N 
ATOM     13  C   UNL     1       5.191   4.245  19.148  0.00  0.00    +0.000 C 
ATOM     14  O   UNL     1       6.187   4.925  19.389  0.00  0.00    +0.000 OA
ATOM     15  H   UNL     1       6.206   2.537  19.524  0.00  0.00    +0.000 HD
ATOM     16  H   UNL     1       4.626   2.240  18.883  0.00  0.00    +0.000 HD
ENDBRANCH   1  13
BRANCH   4  17
ATOM     17  C   UNL     1       2.833   7.869  17.319  0.00  0.00    +0.000 C 
BRANCH  17  18
ATOM     18  C   UNL     1       2.232   8.999  18.087  0.00  0.00    +0.000 A 
ATOM     19  N   UNL     1       1.573   8.953  19.223  0.00  0.00    +0.000 NA
ATOM     20  C   UNL     1       1.126  10.244  19.365  0.00  0.00    +0.000 A 
ATOM     21  N   UNL     1       1.509  11.068  18.376  0.00  0.00    +0.000 NA
ATOM     22  O   UNL     1       2.247  10.239  17.523  0.00  0.00    +0.000 OA
BRANCH  20  23
ATOM     23  C   UNL     1       0.267  10.620  20.478  0.00  0.00    +0.000 A 
ATOM     24  C   UNL     1       0.396   9.949  21.707  0.00  0.00    +0.000 A 
ATOM     25  C   UNL     1      -0.447  10.260  22.768  0.00  0.00    +0.000 A 
ATOM     26  F   UNL     1      -0.309   9.604  23.926  0.00  0.00    +0.000 F 
ATOM     27  C   UNL     1      -1.424  11.235  22.629  0.00  0.00    +0.000 A 
ATOM     28  F   UNL     1      -2.239  11.524  23.654  0.00  0.00    +0.000 F 
ATOM     29  C   UNL     1      -1.554  11.904  21.419  0.00  0.00    +0.000 A 
ATOM     30  F   UNL     1      -2.501  12.841  21.273  0.00  0.00    +0.000 F 
ATOM     31  C   UNL     1      -0.718  11.607  20.343  0.00  0.00    +0.000 A 
ENDBRANCH  20  23
ENDBRANCH  17  18
ENDBRANCH   4  17
TORSDOF 5
ENDMDL
MODEL 7
REMARK VINA RESULT:      -8.9      5.249      8.137
REMARK  Name = 
REMARK  5 active torsions:
REMARK  status: ('A' for Active; 'I' for Inactive)
REMARK    1  A    between atoms: C_2  and  C_4
REMARK    2  A    between atoms: C_4  and  C_5
REMARK    3  A    between atoms: N_13  and  C_14
REMARK    4  A    between atoms: C_14  and  C_15
REMARK    5  A    between atoms: C_17  and  C_18
REMARK                            x       y       z     vdW  Elec       q    Type
REMARK                         _______ _______ _______ _____ _____    ______ ____
ROOT
ATOM      1  C   UNL     1       0.150  10.529  20.307  0.00  0.00    +0.000 C 
ATOM      2  C   UNL     1      -0.318   9.908  21.642  0.00  0.00    +0.000 C 
ATOM      3  C   UNL     1       0.967   9.299  22.190  0.00  0.00    +0.000 C 
ATOM      4  N   UNL     1       1.583   8.628  21.033  0.00  0.00    +0.000 NA
ATOM      5  C   UNL     1       1.221   9.484  19.873  0.00  0.00    +0.000 C 
ENDROOT
BRANCH   1   6
ATOM      6  C   UNL     1      -0.957  10.690  19.253  0.00  0.00    +0.000 A 
ATOM      7  C   UNL     1      -2.042  11.561  19.481  0.00  0.00    +0.000 A 
ATOM      8  C   UNL     1      -3.029  11.763  18.512  0.00  0.00    +0.000 A 
ATOM      9  C   UNL     1      -2.965  11.080  17.304  0.00  0.00    +0.000 A 
ATOM     10  C   UNL     1      -1.926  10.182  17.072  0.00  0.00    +0.000 A 
ATOM     11  C   UNL     1      -0.937   9.980  18.042  0.00  0.00    +0.000 A 
ENDBRANCH   1   6
BRANCH   1  13
ATOM     12  N   UNL     1       1.512  12.549  19.705  0.00  0.00    +0.000 N 
ATOM     13  C   UNL     1       0.748  11.923  20.643  0.00  0.00    +0.000 C 
ATOM     14  O   UNL     1       0.532  12.513  21.701  0.00  0.00    +0.000 OA
ATOM     15  H   UNL     1       1.842  13.474  19.947  0.00  0.00    +0.000 HD
ATOM     16  H   UNL     1       1.572  12.261  18.741  0.00  0.00    +0.000 HD
ENDBRANCH   1  13
BRANCH   4  17
ATOM     17  C   UNL     1       1.053   7.246  20.919  0.00  0.00    +0.000 C 
BRANCH  17  18
ATOM     18  C   UNL     1       2.009   6.233  20.385  0.00  0.00    +0.000 A 
ATOM     19  N   UNL     1       3.008   6.415  19.551  0.00  0.00    +0.000 NA
ATOM     20  C   UNL     1       3.425   5.132  19.294  0.00  0.00    +0.000 A 
ATOM     21  N   UNL     1       2.734   4.189  19.956  0.00  0.00    +0.000 NA
ATOM     22  O   UNL     1       1.790   4.922  20.684  0.00  0.00    +0.000 OA
BRANCH  20  23
ATOM     23  C   UNL     1       4.487   4.868  18.335  0.00  0.00    +0.000 A 
ATOM     24  C   UNL     1       5.827   4.903  18.761  0.00  0.00    +0.000 A 
ATOM     25  C   UNL     1       6.858   4.701  17.852  0.00  0.00    +0.000 A 
ATOM     26  F   UNL     1       8.125   4.745  18.279  0.00  0.00    +0.000 F 
ATOM     27  C   UNL     1       6.580   4.460  16.514  0.00  0.00    +0.000 A 
ATOM     28  F   UNL     1       7.580   4.274  15.640  0.00  0.00    +0.000 F 
ATOM     29  C   UNL     1       5.259   4.420  16.087  0.00  0.00    +0.000 A 
ATOM     30  F   UNL     1       4.982   4.197  14.795  0.00  0.00    +0.000 F 
ATOM     31  C   UNL     1       4.210   4.620  16.984  0.00  0.00    +0.000 A 
ENDBRANCH  20  23
ENDBRANCH  17  18
ENDBRANCH   4  17
TORSDOF 5
ENDMDL
MODEL 8
REMARK VINA RESULT:      -8.8      0.919      1.834
REMARK  Name = 
REMARK  5 active torsions:
REMARK  status: ('A' for Active; 'I' for Inactive)
REMARK    1  A    between atoms: C_2  and  C_4
REMARK    2  A    between atoms: C_4  and  C_5
REMARK    3  A    between atoms: N_13  and  C_14
REMARK    4  A    between atoms: C_14  and  C_15
REMARK    5  A    between atoms: C_17  and  C_18
REMARK                            x       y       z     vdW  Elec       q    Type
REMARK                         _______ _______ _______ _____ _____    ______ ____
ROOT
ATOM      1  C   UNL     1       3.968   4.729  18.051  0.00  0.00    +0.000 C 
ATOM      2  C   UNL     1       3.976   4.667  16.508  0.00  0.00    +0.000 C 
ATOM      3  C   UNL     1       5.235   3.861  16.216  0.00  0.00    +0.000 C 
ATOM      4  N   UNL     1       6.255   4.426  17.116  0.00  0.00    +0.000 NA
ATOM      5  C   UNL     1       5.497   4.815  18.335  0.00  0.00    +0.000 C 
ENDROOT
BRANCH   1   6
ATOM      6  C   UNL     1       3.205   5.925  18.640  0.00  0.00    +0.000 A 
ATOM      7  C   UNL     1       3.078   7.125  17.910  0.00  0.00    +0.000 A 
ATOM      8  C   UNL     1       2.341   8.204  18.405  0.00  0.00    +0.000 A 
ATOM      9  C   UNL     1       1.734   8.116  19.651  0.00  0.00    +0.000 A 
ATOM     10  C   UNL     1       1.881   6.958  20.410  0.00  0.00    +0.000 A 
ATOM     11  C   UNL     1       2.618   5.876  19.915  0.00  0.00    +0.000 A 
ENDBRANCH   1   6
BRANCH   1  13
ATOM     12  N   UNL     1       2.171   2.980  17.959  0.00  0.00    +0.000 N 
ATOM     13  C   UNL     1       3.321   3.408  18.552  0.00  0.00    +0.000 C 
ATOM     14  O   UNL     1       3.817   2.703  19.429  0.00  0.00    +0.000 OA
ATOM     15  H   UNL     1       1.810   2.092  18.283  0.00  0.00    +0.000 HD
ATOM     16  H   UNL     1       1.804   3.357  17.100  0.00  0.00    +0.000 HD
ENDBRANCH   1  13
BRANCH   4  17
ATOM     17  C   UNL     1       6.917   5.579  16.455  0.00  0.00    +0.000 C 
BRANCH  17  18
ATOM     18  C   UNL     1       7.448   6.628  17.373  0.00  0.00    +0.000 A 
ATOM     19  N   UNL     1       7.532   7.923  17.169  0.00  0.00    +0.000 NA
ATOM     20  C   UNL     1       8.236   8.358  18.265  0.00  0.00    +0.000 A 
ATOM     21  N   UNL     1       8.558   7.382  19.130  0.00  0.00    +0.000 NA
ATOM     22  O   UNL     1       8.032   6.228  18.538  0.00  0.00    +0.000 OA
BRANCH  20  23
ATOM     23  C   UNL     1       8.626   9.753  18.399  0.00  0.00    +0.000 A 
ATOM     24  C   UNL     1       9.497  10.130  19.437  0.00  0.00    +0.000 A 
ATOM     25  C   UNL     1       9.845  11.464  19.612  0.00  0.00    +0.000 A 
ATOM     26  F   UNL     1      10.670  11.799  20.612  0.00  0.00    +0.000 F 
ATOM     27  C   UNL     1       9.340  12.440  18.766  0.00  0.00    +0.000 A 
ATOM     28  F   UNL     1       9.673  13.726  18.946  0.00  0.00    +0.000 F 
ATOM     29  C   UNL     1       8.483  12.075  17.736  0.00  0.00    +0.000 A 
ATOM     30  F   UNL     1       7.983  13.012  16.919  0.00  0.00    +0.000 F 
ATOM     31  C   UNL     1       8.122  10.741  17.543  0.00  0.00    +0.000 A 
ENDBRANCH  20  23
ENDBRANCH  17  18
ENDBRANCH   4  17
TORSDOF 5
ENDMDL
MODEL 9
REMARK VINA RESULT:      -8.8      4.903      7.041
REMARK  Name = 
REMARK  5 active torsions:
REMARK  status: ('A' for Active; 'I' for Inactive)
REMARK    1  A    between atoms: C_2  and  C_4
REMARK    2  A    between atoms: C_4  and  C_5
REMARK    3  A    between atoms: N_13  and  C_14
REMARK    4  A    between atoms: C_14  and  C_15
REMARK    5  A    between atoms: C_17  and  C_18
REMARK                            x       y       z     vdW  Elec       q    Type
REMARK                         _______ _______ _______ _____ _____    ______ ____
ROOT
ATOM      1  C   UNL     1       3.692   3.853  18.228  0.00  0.00    +0.000 C 
ATOM      2  C   UNL     1       3.994   3.808  19.743  0.00  0.00    +0.000 C 
ATOM      3  C   UNL     1       2.649   4.174  20.359  0.00  0.00    +0.000 C 
ATOM      4  N   UNL     1       2.169   5.309  19.554  0.00  0.00    +0.000 NA
ATOM      5  C   UNL     1       2.672   5.030  18.183  0.00  0.00    +0.000 C 
ENDROOT
BRANCH   1   6
ATOM      6  C   UNL     1       4.916   4.119  17.339  0.00  0.00    +0.000 A 
ATOM      7  C   UNL     1       6.154   4.475  17.911  0.00  0.00    +0.000 A 
ATOM      8  C   UNL     1       7.292   4.665  17.123  0.00  0.00    +0.000 A 
ATOM      9  C   UNL     1       7.212   4.527  15.743  0.00  0.00    +0.000 A 
ATOM     10  C   UNL     1       5.991   4.218  15.150  0.00  0.00    +0.000 A 
ATOM     11  C   UNL     1       4.850   4.026  15.939  0.00  0.00    +0.000 A 
ENDBRANCH   1   6
BRANCH   1  13
ATOM     12  N   UNL     1       3.774   1.348  18.125  0.00  0.00    +0.000 N 
ATOM     13  C   UNL     1       3.069   2.481  17.852  0.00  0.00    +0.000 C 
ATOM     14  O   UNL     1       1.949   2.361  17.358  0.00  0.00    +0.000 OA
ATOM     15  H   UNL     1       3.312   0.474  17.907  0.00  0.00    +0.000 HD
ATOM     16  H   UNL     1       4.590   1.318  18.716  0.00  0.00    +0.000 HD
ENDBRANCH   1  13
BRANCH   4  17
ATOM     17  C   UNL     1       2.699   6.577  20.116  0.00  0.00    +0.000 C 
BRANCH  17  18
ATOM     18  C   UNL     1       1.720   7.699  20.204  0.00  0.00    +0.000 A 
ATOM     19  N   UNL     1       1.655   8.784  19.465  0.00  0.00    +0.000 NA
ATOM     20  C   UNL     1       0.678   9.519  20.091  0.00  0.00    +0.000 A 
ATOM     21  N   UNL     1       0.138   8.912  21.160  0.00  0.00    +0.000 NA
ATOM     22  O   UNL     1       0.832   7.699  21.237  0.00  0.00    +0.000 OA
BRANCH  20  23
ATOM     23  C   UNL     1       0.339  10.857  19.631  0.00  0.00    +0.000 A 
ATOM     24  C   UNL     1       1.291  11.604  18.915  0.00  0.00    +0.000 A 
ATOM     25  C   UNL     1       1.004  12.901  18.508  0.00  0.00    +0.000 A 
ATOM     26  F   UNL     1       1.928  13.594  17.833  0.00  0.00    +0.000 F 
ATOM     27  C   UNL     1      -0.224  13.476  18.801  0.00  0.00    +0.000 A 
ATOM     28  F   UNL     1      -0.491  14.731  18.413  0.00  0.00    +0.000 F 
ATOM     29  C   UNL     1      -1.171  12.743  19.505  0.00  0.00    +0.000 A 
ATOM     30  F   UNL     1      -2.357  13.293  19.800  0.00  0.00    +0.000 F 
ATOM     31  C   UNL     1      -0.903  11.439  19.921  0.00  0.00    +0.000 A 
ENDBRANCH  20  23
ENDBRANCH  17  18
ENDBRANCH   4  17
TORSDOF 5
ENDMDL
