MODEL 1
REMARK VINA RESULT:      -9.3      0.000      0.000
REMARK  Name = 
REMARK  4 active torsions:
REMARK  status: ('A' for Active; 'I' for Inactive)
REMARK    1  A    between atoms: C_2  and  C_3
REMARK    2  A    between atoms: C_3  and  C_4
REMARK    3  A    between atoms: C_6  and  C_7
REMARK    4  A    between atoms: N_21  and  C_22
REMARK                            x       y       z     vdW  Elec       q    Type
REMARK                         _______ _______ _______ _____ _____    ______ ____
ROOT
ATOM      1  C   UNL     1       3.265   2.797  19.791  0.00  0.00    +0.000 C 
ATOM      2  S   UNL     1       4.886   3.368  19.212  0.00  0.00    +0.000 S 
ATOM      3  C   UNL     1       4.250   3.574  17.590  0.00  0.00    +0.000 C 
ATOM      4  N   UNL     1       3.011   3.263  17.400  0.00  0.00    +0.000 NA
ATOM      5  C   UNL     1       2.388   2.814  18.547  0.00  0.00    +0.000 C 
ATOM      6  O   UNL     1       1.230   2.409  18.576  0.00  0.00    +0.000 OA
ENDROOT
BRANCH   3   7
ATOM      7  C   UNL     1       5.180   4.090  16.552  0.00  0.00    +0.000 A 
ATOM      8  C   UNL     1       5.127   3.541  15.324  0.00  0.00    +0.000 A 
ATOM      9  C   UNL     1       6.019   4.019  14.269  0.00  0.00    +0.000 A 
ATOM     10  C   UNL     1       6.072   3.448  12.994  0.00  0.00    +0.000 A 
ATOM     11  C   UNL     1       6.951   3.961  12.028  0.00  0.00    +0.000 A 
ATOM     12  C   UNL     1       7.771   5.053  12.324  0.00  0.00    +0.000 A 
ATOM     13  C   UNL     1       7.719   5.629  13.588  0.00  0.00    +0.000 A 
ATOM     14  C   UNL     1       6.850   5.102  14.540  0.00  0.00    +0.000 A 
ATOM     15  O   UNL     1       6.873   5.696  15.809  0.00  0.00    +0.000 OA
ATOM     16  C   UNL     1       6.168   5.147  16.868  0.00  0.00    +0.000 A 
ATOM     17  O   UNL     1       6.386   5.526  18.014  0.00  0.00    +0.000 OA
ENDBRANCH   3   7
BRANCH   1  18
ATOM     18  C   UNL     1       2.697   3.612  20.950  0.00  0.00    +0.000 C 
BRANCH  18  20
ATOM     19  O   UNL     1       0.668   4.819  20.528  0.00  0.00    +0.000 OA
ATOM     20  C   UNL     1       1.894   4.826  20.518  0.00  0.00    +0.000 C 
ATOM     21  N   UNL     1       2.681   5.904  20.164  0.00  0.00    +0.000 N 
ATOM     22  H   UNL     1       3.666   5.882  20.404  0.00  0.00    +0.000 HD
BRANCH  21  23
ATOM     23  C   UNL     1       2.194   7.159  19.723  0.00  0.00    +0.000 A 
ATOM     24  C   UNL     1       1.509   8.053  20.551  0.00  0.00    +0.000 A 
ATOM     25  C   UNL     1       1.122   9.309  20.074  0.00  0.00    +0.000 A 
ATOM     26  C   UNL     1       1.408   9.681  18.761  0.00  0.00    +0.000 A 
ATOM     27  C   UNL     1       2.052   8.782  17.913  0.00  0.00    +0.000 A 
ATOM     28  C   UNL     1       2.423   7.528  18.393  0.00  0.00    +0.000 A 
ATOM     29  F   UNL     1       3.051   6.674  17.568  0.00  0.00    +0.000 F 
ENDBRANCH  21  23
ENDBRANCH  18  20
ENDBRANCH   1  18
TORSDOF 4
ENDMDL
MODEL 2
REMARK VINA RESULT:      -9.2      0.887      1.270
REMARK  Name = 
REMARK  4 active torsions:
REMARK  status: ('A' for Active; 'I' for Inactive)
REMARK    1  A    between atoms: C_2  and  C_3
REMARK    2  A    between atoms: C_3  and  C_4
REMARK    3  A    between atoms: C_6  and  C_7
REMARK    4  A    between atoms: N_21  and  C_22
REMARK                            x       y       z     vdW  Elec       q    Type
REMARK                         _______ _______ _______ _____ _____    ______ ____
ROOT
ATOM      1  C   UNL     1       3.283   2.950  19.853  0.00  0.00    +0.000 C 
ATOM      2  S   UNL     1       4.900   3.545  19.287  0.00  0.00    +0.000 S 
ATOM      3  C   UNL     1       4.309   3.621  17.636  0.00  0.00    +0.000 C 
ATOM      4  N   UNL     1       3.089   3.248  17.430  0.00  0.00    +0.000 NA
ATOM      5  C   UNL     1       2.447   2.851  18.585  0.00  0.00    +0.000 C 
ATOM      6  O   UNL     1       1.305   2.403  18.606  0.00  0.00    +0.000 OA
ENDROOT
BRANCH   3   7
ATOM      7  C   UNL     1       5.252   4.104  16.594  0.00  0.00    +0.000 A 
ATOM      8  C   UNL     1       5.127   3.611  15.348  0.00  0.00    +0.000 A 
ATOM      9  C   UNL     1       6.029   4.060  14.288  0.00  0.00    +0.000 A 
ATOM     10  C   UNL     1       6.006   3.540  12.991  0.00  0.00    +0.000 A 
ATOM     11  C   UNL     1       6.900   4.022  12.023  0.00  0.00    +0.000 A 
ATOM     12  C   UNL     1       7.810   5.033  12.339  0.00  0.00    +0.000 A 
ATOM     13  C   UNL     1       7.835   5.560  13.625  0.00  0.00    +0.000 A 
ATOM     14  C   UNL     1       6.949   5.063  14.579  0.00  0.00    +0.000 A 
ATOM     15  O   UNL     1       7.049   5.602  15.870  0.00  0.00    +0.000 OA
ATOM     16  C   UNL     1       6.327   5.067  16.924  0.00  0.00    +0.000 A 
ATOM     17  O   UNL     1       6.602   5.380  18.078  0.00  0.00    +0.000 OA
ENDBRANCH   3   7
BRANCH   1  18
ATOM     18  C   UNL     1       2.647   3.816  20.938  0.00  0.00    +0.000 C 
BRANCH  18  20
ATOM     19  O   UNL     1       0.656   5.003  20.326  0.00  0.00    +0.000 OA
ATOM     20  C   UNL     1       1.879   5.012  20.404  0.00  0.00    +0.000 C 
ATOM     21  N   UNL     1       2.691   6.076  20.068  0.00  0.00    +0.000 N 
ATOM     22  H   UNL     1       3.657   6.065  20.380  0.00  0.00    +0.000 HD
BRANCH  21  23
ATOM     23  C   UNL     1       2.239   7.314  19.547  0.00  0.00    +0.000 A 
ATOM     24  C   UNL     1       2.412   7.698  18.215  0.00  0.00    +0.000 A 
ATOM     25  C   UNL     1       1.873   8.900  17.747  0.00  0.00    +0.000 A 
ATOM     26  C   UNL     1       1.164   9.735  18.608  0.00  0.00    +0.000 A 
ATOM     27  C   UNL     1       1.022   9.385  19.950  0.00  0.00    +0.000 A 
ATOM     28  C   UNL     1       1.572   8.190  20.410  0.00  0.00    +0.000 A 
ATOM     29  F   UNL     1       1.420   7.860  21.703  0.00  0.00    +0.000 F 
ENDBRANCH  21  23
ENDBRANCH  18  20
ENDBRANCH   1  18
TORSDOF 4
ENDMDL
MODEL 3
REMARK VINA RESULT:      -8.9      2.505      7.139
REMARK  Name = 
REMARK  4 active torsions:
REMARK  status: ('A' for Active; 'I' for Inactive)
REMARK    1  A    between atoms: C_2  and  C_3
REMARK    2  A    between atoms: C_3  and  C_4
REMARK    3  A    between atoms: C_6  and  C_7
REMARK    4  A    between atoms: N_21  and  C_22
REMARK                            x       y       z     vdW  Elec       q    Type
REMARK                         _______ _______ _______ _____ _____    ______ ____
ROOT
ATOM      1  C   UNL     1       1.816   2.677  19.981  0.00  0.00    +0.000 C 
ATOM      2  S   UNL     1       1.187   4.172  19.170  0.00  0.00    +0.000 S 
ATOM      3  C   UNL     1       1.723   5.150  20.525  0.00  0.00    +0.000 C 
ATOM      4  N   UNL     1       2.285   4.532  21.510  0.00  0.00    +0.000 NA
ATOM      5  C   UNL     1       2.371   3.169  21.310  0.00  0.00    +0.000 C 
ATOM      6  O   UNL     1       2.813   2.387  22.146  0.00  0.00    +0.000 OA
ENDROOT
BRANCH   3   7
ATOM      7  C   UNL     1       1.491   6.615  20.444  0.00  0.00    +0.000 A 
ATOM      8  C   UNL     1       0.763   7.196  21.415  0.00  0.00    +0.000 A 
ATOM      9  C   UNL     1       0.512   8.637  21.382  0.00  0.00    +0.000 A 
ATOM     10  C   UNL     1      -0.294   9.296  22.313  0.00  0.00    +0.000 A 
ATOM     11  C   UNL     1      -0.488  10.683  22.222  0.00  0.00    +0.000 A 
ATOM     12  C   UNL     1       0.131  11.419  21.209  0.00  0.00    +0.000 A 
ATOM     13  C   UNL     1       0.940  10.772  20.283  0.00  0.00    +0.000 A 
ATOM     14  C   UNL     1       1.113   9.393  20.380  0.00  0.00    +0.000 A 
ATOM     15  O   UNL     1       1.904   8.788  19.392  0.00  0.00    +0.000 OA
ATOM     16  C   UNL     1       2.007   7.409  19.306  0.00  0.00    +0.000 A 
ATOM     17  O   UNL     1       2.493   6.892  18.306  0.00  0.00    +0.000 OA
ENDBRANCH   3   7
BRANCH   1  18
ATOM     18  C   UNL     1       2.829   1.897  19.147  0.00  0.00    +0.000 C 
BRANCH  18  20
ATOM     19  O   UNL     1       5.134   2.309  19.665  0.00  0.00    +0.000 OA
ATOM     20  C   UNL     1       4.163   2.601  18.976  0.00  0.00    +0.000 C 
ATOM     21  N   UNL     1       4.158   3.544  17.967  0.00  0.00    +0.000 N 
ATOM     22  H   UNL     1       3.380   3.549  17.315  0.00  0.00    +0.000 HD
BRANCH  21  23
ATOM     23  C   UNL     1       5.265   4.345  17.594  0.00  0.00    +0.000 A 
ATOM     24  C   UNL     1       5.981   4.165  16.408  0.00  0.00    +0.000 A 
ATOM     25  C   UNL     1       7.016   5.040  16.063  0.00  0.00    +0.000 A 
ATOM     26  C   UNL     1       7.351   6.098  16.906  0.00  0.00    +0.000 A 
ATOM     27  C   UNL     1       6.674   6.262  18.113  0.00  0.00    +0.000 A 
ATOM     28  C   UNL     1       5.652   5.379  18.454  0.00  0.00    +0.000 A 
ATOM     29  F   UNL     1       5.001   5.554  19.615  0.00  0.00    +0.000 F 
ENDBRANCH  21  23
ENDBRANCH  18  20
ENDBRANCH   1  18
TORSDOF 4
ENDMDL
MODEL 4
REMARK VINA RESULT:      -8.7      4.409      7.030
REMARK  Name = 
REMARK  4 active torsions:
REMARK  status: ('A' for Active; 'I' for Inactive)
REMARK    1  A    between atoms: C_2  and  C_3
REMARK    2  A    between atoms: C_3  and  C_4
REMARK    3  A    between atoms: C_6  and  C_7
REMARK    4  A    between atoms: N_21  and  C_22
REMARK                            x       y       z     vdW  Elec       q    Type
REMARK                         _______ _______ _______ _____ _____    ______ ____
ROOT
ATOM      1  C   UNL     1       0.815  10.504  21.106  0.00  0.00    +0.000 C 
ATOM      2  S   UNL     1       1.207   9.585  19.592  0.00  0.00    +0.000 S 
ATOM      3  C   UNL     1       1.460   8.123  20.529  0.00  0.00    +0.000 C 
ATOM      4  N   UNL     1       1.318   8.213  21.810  0.00  0.00    +0.000 NA
ATOM      5  C   UNL     1       0.976   9.485  22.224  0.00  0.00    +0.000 C 
ATOM      6  O   UNL     1       0.854   9.804  23.402  0.00  0.00    +0.000 OA
ENDROOT
BRANCH   3   7
ATOM      7  C   UNL     1       1.819   6.888  19.785  0.00  0.00    +0.000 A 
ATOM      8  C   UNL     1       1.441   5.704  20.301  0.00  0.00    +0.000 A 
ATOM      9  C   UNL     1       1.767   4.462  19.602  0.00  0.00    +0.000 A 
ATOM     10  C   UNL     1       1.472   3.195  20.113  0.00  0.00    +0.000 A 
ATOM     11  C   UNL     1       1.812   2.044  19.385  0.00  0.00    +0.000 A 
ATOM     12  C   UNL     1       2.436   2.152  18.140  0.00  0.00    +0.000 A 
ATOM     13  C   UNL     1       2.728   3.409  17.622  0.00  0.00    +0.000 A 
ATOM     14  C   UNL     1       2.394   4.541  18.362  0.00  0.00    +0.000 A 
ATOM     15  O   UNL     1       2.752   5.780  17.810  0.00  0.00    +0.000 OA
ATOM     16  C   UNL     1       2.610   6.952  18.535  0.00  0.00    +0.000 A 
ATOM     17  O   UNL     1       3.145   7.984  18.144  0.00  0.00    +0.000 OA
ENDBRANCH   3   7
BRANCH   1  18
ATOM     18  C   UNL     1      -0.554  11.178  21.086  0.00  0.00    +0.000 C 
BRANCH  18  20
ATOM     19  O   UNL     1      -0.693  12.533  19.113  0.00  0.00    +0.000 OA
ATOM     20  C   UNL     1      -1.057  11.518  19.695  0.00  0.00    +0.000 C 
ATOM     21  N   UNL     1      -1.909  10.564  19.175  0.00  0.00    +0.000 N 
ATOM     22  H   UNL     1      -1.967   9.663  19.638  0.00  0.00    +0.000 HD
BRANCH  21  23
ATOM     23  C   UNL     1      -2.523  10.628  17.899  0.00  0.00    +0.000 A 
ATOM     24  C   UNL     1      -2.017   9.982  16.768  0.00  0.00    +0.000 A 
ATOM     25  C   UNL     1      -2.713  10.022  15.556  0.00  0.00    +0.000 A 
ATOM     26  C   UNL     1      -3.918  10.716  15.460  0.00  0.00    +0.000 A 
ATOM     27  C   UNL     1      -4.411  11.401  16.570  0.00  0.00    +0.000 A 
ATOM     28  C   UNL     1      -3.705  11.365  17.770  0.00  0.00    +0.000 A 
ATOM     29  F   UNL     1      -4.196  12.022  18.834  0.00  0.00    +0.000 F 
ENDBRANCH  21  23
ENDBRANCH  18  20
ENDBRANCH   1  18
TORSDOF 4
ENDMDL
MODEL 5
REMARK VINA RESULT:      -8.7      4.162      6.836
REMARK  Name = 
REMARK  4 active torsions:
REMARK  status: ('A' for Active; 'I' for Inactive)
REMARK    1  A    between atoms: C_2  and  C_3
REMARK    2  A    between atoms: C_3  and  C_4
REMARK    3  A    between atoms: C_6  and  C_7
REMARK    4  A    between atoms: N_21  and  C_22
REMARK                            x       y       z     vdW  Elec       q    Type
REMARK                         _______ _______ _______ _____ _____    ______ ____
ROOT
ATOM      1  C   UNL     1       0.840  10.515  21.122  0.00  0.00    +0.000 C 
ATOM      2  S   UNL     1       1.220   9.600  19.603  0.00  0.00    +0.000 S 
ATOM      3  C   UNL     1       1.475   8.134  20.534  0.00  0.00    +0.000 C 
ATOM      4  N   UNL     1       1.341   8.220  21.816  0.00  0.00    +0.000 NA
ATOM      5  C   UNL     1       1.005   9.492  22.236  0.00  0.00    +0.000 C 
ATOM      6  O   UNL     1       0.891   9.807  23.416  0.00  0.00    +0.000 OA
ENDROOT
BRANCH   3   7
ATOM      7  C   UNL     1       1.827   6.901  19.783  0.00  0.00    +0.000 A 
ATOM      8  C   UNL     1       1.475   5.714  20.312  0.00  0.00    +0.000 A 
ATOM      9  C   UNL     1       1.795   4.474  19.608  0.00  0.00    +0.000 A 
ATOM     10  C   UNL     1       1.527   3.205  20.130  0.00  0.00    +0.000 A 
ATOM     11  C   UNL     1       1.859   2.056  19.396  0.00  0.00    +0.000 A 
ATOM     12  C   UNL     1       2.447   2.167  18.134  0.00  0.00    +0.000 A 
ATOM     13  C   UNL     1       2.711   3.425  17.606  0.00  0.00    +0.000 A 
ATOM     14  C   UNL     1       2.387   4.556  18.351  0.00  0.00    +0.000 A 
ATOM     15  O   UNL     1       2.716   5.797  17.786  0.00  0.00    +0.000 OA
ATOM     16  C   UNL     1       2.582   6.969  18.511  0.00  0.00    +0.000 A 
ATOM     17  O   UNL     1       3.095   8.006  18.103  0.00  0.00    +0.000 OA
ENDBRANCH   3   7
BRANCH   1  18
ATOM     18  C   UNL     1      -0.528  11.193  21.114  0.00  0.00    +0.000 C 
BRANCH  18  20
ATOM     19  O   UNL     1      -0.609  12.464  19.082  0.00  0.00    +0.000 OA
ATOM     20  C   UNL     1      -1.049  11.518  19.725  0.00  0.00    +0.000 C 
ATOM     21  N   UNL     1      -2.010  10.631  19.282  0.00  0.00    +0.000 N 
ATOM     22  H   UNL     1      -2.138   9.762  19.791  0.00  0.00    +0.000 HD
BRANCH  21  23
ATOM     23  C   UNL     1      -2.663  10.698  18.026  0.00  0.00    +0.000 A 
ATOM     24  C   UNL     1      -3.859  11.390  17.816  0.00  0.00    +0.000 A 
ATOM     25  C   UNL     1      -4.411  11.481  16.535  0.00  0.00    +0.000 A 
ATOM     26  C   UNL     1      -3.778  10.875  15.452  0.00  0.00    +0.000 A 
ATOM     27  C   UNL     1      -2.608  10.146  15.655  0.00  0.00    +0.000 A 
ATOM     28  C   UNL     1      -2.071  10.050  16.937  0.00  0.00    +0.000 A 
ATOM     29  F   UNL     1      -0.937   9.352  17.118  0.00  0.00    +0.000 F 
ENDBRANCH  21  23
ENDBRANCH  18  20
ENDBRANCH   1  18
TORSDOF 4
ENDMDL
MODEL 6
REMARK VINA RESULT:      -8.6      2.537      7.216
REMARK  Name = 
REMARK  4 active torsions:
REMARK  status: ('A' for Active; 'I' for Inactive)
REMARK    1  A    between atoms: C_2  and  C_3
REMARK    2  A    between atoms: C_3  and  C_4
REMARK    3  A    between atoms: C_6  and  C_7
REMARK    4  A    between atoms: N_21  and  C_22
REMARK                            x       y       z     vdW  Elec       q    Type
REMARK                         _______ _______ _______ _____ _____    ______ ____
ROOT
ATOM      1  C   UNL     1       1.907   2.806  19.896  0.00  0.00    +0.000 C 
ATOM      2  S   UNL     1       1.302   4.320  19.101  0.00  0.00    +0.000 S 
ATOM      3  C   UNL     1       1.705   5.250  20.534  0.00  0.00    +0.000 C 
ATOM      4  N   UNL     1       2.206   4.603  21.533  0.00  0.00    +0.000 NA
ATOM      5  C   UNL     1       2.344   3.252  21.284  0.00  0.00    +0.000 C 
ATOM      6  O   UNL     1       2.742   2.446  22.118  0.00  0.00    +0.000 OA
ENDROOT
BRANCH   3   7
ATOM      7  C   UNL     1       1.440   6.711  20.496  0.00  0.00    +0.000 A 
ATOM      8  C   UNL     1       0.714   7.250  21.493  0.00  0.00    +0.000 A 
ATOM      9  C   UNL     1       0.432   8.685  21.502  0.00  0.00    +0.000 A 
ATOM     10  C   UNL     1      -0.375   9.301  22.463  0.00  0.00    +0.000 A 
ATOM     11  C   UNL     1      -0.601  10.685  22.412  0.00  0.00    +0.000 A 
ATOM     12  C   UNL     1      -0.012  11.462  21.412  0.00  0.00    +0.000 A 
ATOM     13  C   UNL     1       0.797  10.858  20.456  0.00  0.00    +0.000 A 
ATOM     14  C   UNL     1       1.001   9.481  20.513  0.00  0.00    +0.000 A 
ATOM     15  O   UNL     1       1.790   8.921  19.499  0.00  0.00    +0.000 OA
ATOM     16  C   UNL     1       1.922   7.547  19.373  0.00  0.00    +0.000 A 
ATOM     17  O   UNL     1       2.406   7.068  18.353  0.00  0.00    +0.000 OA
ENDBRANCH   3   7
BRANCH   1  18
ATOM     18  C   UNL     1       3.002   2.088  19.112  0.00  0.00    +0.000 C 
BRANCH  18  20
ATOM     19  O   UNL     1       5.218   2.810  19.677  0.00  0.00    +0.000 OA
ATOM     20  C   UNL     1       4.263   2.910  18.915  0.00  0.00    +0.000 C 
ATOM     21  N   UNL     1       4.217   3.721  17.798  0.00  0.00    +0.000 N 
ATOM     22  H   UNL     1       3.482   3.562  17.116  0.00  0.00    +0.000 HD
BRANCH  21  23
ATOM     23  C   UNL     1       5.254   4.590  17.378  0.00  0.00    +0.000 A 
ATOM     24  C   UNL     1       5.545   5.802  18.009  0.00  0.00    +0.000 A 
ATOM     25  C   UNL     1       6.632   6.577  17.592  0.00  0.00    +0.000 A 
ATOM     26  C   UNL     1       7.434   6.151  16.535  0.00  0.00    +0.000 A 
ATOM     27  C   UNL     1       7.128   4.965  15.869  0.00  0.00    +0.000 A 
ATOM     28  C   UNL     1       6.036   4.206  16.283  0.00  0.00    +0.000 A 
ATOM     29  F   UNL     1       5.758   3.060  15.639  0.00  0.00    +0.000 F 
ENDBRANCH  21  23
ENDBRANCH  18  20
ENDBRANCH   1  18
TORSDOF 4
ENDMDL
MODEL 7
REMARK VINA RESULT:      -8.5      2.274      7.714
REMARK  Name = 
REMARK  4 active torsions:
REMARK  status: ('A' for Active; 'I' for Inactive)
REMARK    1  A    between atoms: C_2  and  C_3
REMARK    2  A    between atoms: C_3  and  C_4
REMARK    3  A    between atoms: C_6  and  C_7
REMARK    4  A    between atoms: N_21  and  C_22
REMARK                            x       y       z     vdW  Elec       q    Type
REMARK                         _______ _______ _______ _____ _____    ______ ____
ROOT
ATOM      1  C   UNL     1       3.761   3.627  19.271  0.00  0.00    +0.000 C 
ATOM      2  S   UNL     1       2.194   4.523  19.447  0.00  0.00    +0.000 S 
ATOM      3  C   UNL     1       3.062   6.043  19.576  0.00  0.00    +0.000 C 
ATOM      4  N   UNL     1       4.352   5.989  19.530  0.00  0.00    +0.000 NA
ATOM      5  C   UNL     1       4.831   4.704  19.376  0.00  0.00    +0.000 C 
ATOM      6  O   UNL     1       6.025   4.422  19.371  0.00  0.00    +0.000 OA
ENDROOT
BRANCH   3   7
ATOM      7  C   UNL     1       2.253   7.279  19.731  0.00  0.00    +0.000 A 
ATOM      8  C   UNL     1       1.646   7.497  20.912  0.00  0.00    +0.000 A 
ATOM      9  C   UNL     1       0.844   8.703  21.114  0.00  0.00    +0.000 A 
ATOM     10  C   UNL     1       0.126   8.959  22.285  0.00  0.00    +0.000 A 
ATOM     11  C   UNL     1      -0.620  10.140  22.411  0.00  0.00    +0.000 A 
ATOM     12  C   UNL     1      -0.644  11.076  21.375  0.00  0.00    +0.000 A 
ATOM     13  C   UNL     1       0.072  10.832  20.209  0.00  0.00    +0.000 A 
ATOM     14  C   UNL     1       0.799   9.649  20.095  0.00  0.00    +0.000 A 
ATOM     15  O   UNL     1       1.466   9.437  18.879  0.00  0.00    +0.000 OA
ATOM     16  C   UNL     1       2.082   8.227  18.605  0.00  0.00    +0.000 A 
ATOM     17  O   UNL     1       2.445   7.967  17.463  0.00  0.00    +0.000 OA
ENDBRANCH   3   7
BRANCH   1  18
ATOM     18  C   UNL     1       3.860   2.791  17.998  0.00  0.00    +0.000 C 
BRANCH  18  20
ATOM     19  O   UNL     1       3.620   4.501  16.334  0.00  0.00    +0.000 OA
ATOM     20  C   UNL     1       4.295   3.576  16.774  0.00  0.00    +0.000 C 
ATOM     21  N   UNL     1       5.509   3.163  16.262  0.00  0.00    +0.000 N 
ATOM     22  H   UNL     1       6.087   2.549  16.827  0.00  0.00    +0.000 HD
BRANCH  21  23
ATOM     23  C   UNL     1       6.148   3.721  15.128  0.00  0.00    +0.000 A 
ATOM     24  C   UNL     1       5.894   3.306  13.818  0.00  0.00    +0.000 A 
ATOM     25  C   UNL     1       6.501   3.951  12.737  0.00  0.00    +0.000 A 
ATOM     26  C   UNL     1       7.378   5.013  12.956  0.00  0.00    +0.000 A 
ATOM     27  C   UNL     1       7.674   5.408  14.259  0.00  0.00    +0.000 A 
ATOM     28  C   UNL     1       7.072   4.752  15.330  0.00  0.00    +0.000 A 
ATOM     29  F   UNL     1       7.359   5.149  16.581  0.00  0.00    +0.000 F 
ENDBRANCH  21  23
ENDBRANCH  18  20
ENDBRANCH   1  18
TORSDOF 4
ENDMDL
MODEL 8
REMARK VINA RESULT:      -8.5      3.035      7.228
REMARK  Name = 
REMARK  4 active torsions:
REMARK  status: ('A' for Active; 'I' for Inactive)
REMARK    1  A    between atoms: C_2  and  C_3
REMARK    2  A    between atoms: C_3  and  C_4
REMARK    3  A    between atoms: C_6  and  C_7
REMARK    4  A    between atoms: N_21  and  C_22
REMARK                            x       y       z     vdW  Elec       q    Type
REMARK                         _______ _______ _______ _____ _____    ______ ____
ROOT
ATOM      1  C   UNL     1       2.506   3.086  19.618  0.00  0.00    +0.000 C 
ATOM      2  S   UNL     1       1.986   4.635  18.831  0.00  0.00    +0.000 S 
ATOM      3  C   UNL     1       1.948   5.432  20.394  0.00  0.00    +0.000 C 
ATOM      4  N   UNL     1       2.245   4.716  21.427  0.00  0.00    +0.000 NA
ATOM      5  C   UNL     1       2.554   3.410  21.104  0.00  0.00    +0.000 C 
ATOM      6  O   UNL     1       2.804   2.546  21.939  0.00  0.00    +0.000 OA
ENDROOT
BRANCH   3   7
ATOM      7  C   UNL     1       1.577   6.871  20.418  0.00  0.00    +0.000 A 
ATOM      8  C   UNL     1       0.841   7.318  21.452  0.00  0.00    +0.000 A 
ATOM      9  C   UNL     1       0.455   8.727  21.522  0.00  0.00    +0.000 A 
ATOM     10  C   UNL     1      -0.368   9.247  22.524  0.00  0.00    +0.000 A 
ATOM     11  C   UNL     1      -0.695  10.612  22.531  0.00  0.00    +0.000 A 
ATOM     12  C   UNL     1      -0.191  11.466  21.547  0.00  0.00    +0.000 A 
ATOM     13  C   UNL     1       0.633  10.957  20.550  0.00  0.00    +0.000 A 
ATOM     14  C   UNL     1       0.939   9.598  20.550  0.00  0.00    +0.000 A 
ATOM     15  O   UNL     1       1.739   9.134  19.496  0.00  0.00    +0.000 OA
ATOM     16  C   UNL     1       1.967   7.780  19.316  0.00  0.00    +0.000 A 
ATOM     17  O   UNL     1       2.456   7.374  18.267  0.00  0.00    +0.000 OA
ENDBRANCH   3   7
BRANCH   1  18
ATOM     18  C   UNL     1       3.816   2.522  19.073  0.00  0.00    +0.000 C 
BRANCH  18  20
ATOM     19  O   UNL     1       4.639   3.431  17.013  0.00  0.00    +0.000 OA
ATOM     20  C   UNL     1       4.613   3.506  18.236  0.00  0.00    +0.000 C 
ATOM     21  N   UNL     1       5.246   4.475  18.989  0.00  0.00    +0.000 N 
ATOM     22  H   UNL     1       4.979   4.582  19.962  0.00  0.00    +0.000 HD
BRANCH  21  23
ATOM     23  C   UNL     1       6.053   5.515  18.465  0.00  0.00    +0.000 A 
ATOM     24  C   UNL     1       5.688   6.294  17.364  0.00  0.00    +0.000 A 
ATOM     25  C   UNL     1       6.496   7.356  16.945  0.00  0.00    +0.000 A 
ATOM     26  C   UNL     1       7.682   7.644  17.618  0.00  0.00    +0.000 A 
ATOM     27  C   UNL     1       8.079   6.847  18.690  0.00  0.00    +0.000 A 
ATOM     28  C   UNL     1       7.274   5.784  19.093  0.00  0.00    +0.000 A 
ATOM     29  F   UNL     1       7.664   5.031  20.134  0.00  0.00    +0.000 F 
ENDBRANCH  21  23
ENDBRANCH  18  20
ENDBRANCH   1  18
TORSDOF 4
ENDMDL
MODEL 9
REMARK VINA RESULT:      -8.5      4.392      6.270
REMARK  Name = 
REMARK  4 active torsions:
REMARK  status: ('A' for Active; 'I' for Inactive)
REMARK    1  A    between atoms: C_2  and  C_3
REMARK    2  A    between atoms: C_3  and  C_4
REMARK    3  A    between atoms: C_6  and  C_7
REMARK    4  A    between atoms: N_21  and  C_22
REMARK                            x       y       z     vdW  Elec       q    Type
REMARK                         _______ _______ _______ _____ _____    ______ ____
ROOT
ATOM      1  C   UNL     1       0.747   9.938  19.646  0.00  0.00    +0.000 C 
ATOM      2  S   UNL     1       1.531   9.179  18.197  0.00  0.00    +0.000 S 
ATOM      3  C   UNL     1       2.074   7.830  19.180  0.00  0.00    +0.000 C 
ATOM      4  N   UNL     1       1.779   7.863  20.438  0.00  0.00    +0.000 NA
ATOM      5  C   UNL     1       1.062   8.988  20.792  0.00  0.00    +0.000 C 
ATOM      6  O   UNL     1       0.734   9.247  21.945  0.00  0.00    +0.000 OA
ENDROOT
BRANCH   3   7
ATOM      7  C   UNL     1       2.833   6.750  18.499  0.00  0.00    +0.000 A 
ATOM      8  C   UNL     1       3.702   7.098  17.532  0.00  0.00    +0.000 A 
ATOM      9  C   UNL     1       4.476   6.071  16.837  0.00  0.00    +0.000 A 
ATOM     10  C   UNL     1       5.341   6.350  15.775  0.00  0.00    +0.000 A 
ATOM     11  C   UNL     1       6.055   5.313  15.156  0.00  0.00    +0.000 A 
ATOM     12  C   UNL     1       5.920   3.996  15.601  0.00  0.00    +0.000 A 
ATOM     13  C   UNL     1       5.067   3.711  16.660  0.00  0.00    +0.000 A 
ATOM     14  C   UNL     1       4.356   4.750  17.257  0.00  0.00    +0.000 A 
ATOM     15  O   UNL     1       3.478   4.396  18.292  0.00  0.00    +0.000 OA
ATOM     16  C   UNL     1       2.610   5.327  18.840  0.00  0.00    +0.000 A 
ATOM     17  O   UNL     1       1.690   4.957  19.562  0.00  0.00    +0.000 OA
ENDBRANCH   3   7
BRANCH   1  18
ATOM     18  C   UNL     1      -0.745  10.212  19.472  0.00  0.00    +0.000 C 
BRANCH  18  20
ATOM     19  O   UNL     1      -1.538  12.475  19.501  0.00  0.00    +0.000 OA
ATOM     20  C   UNL     1      -1.224  11.483  20.150  0.00  0.00    +0.000 C 
ATOM     21  N   UNL     1      -1.293  11.376  21.525  0.00  0.00    +0.000 N 
ATOM     22  H   UNL     1      -1.229  10.453  21.941  0.00  0.00    +0.000 HD
BRANCH  21  23
ATOM     23  C   UNL     1      -1.706  12.408  22.403  0.00  0.00    +0.000 A 
ATOM     24  C   UNL     1      -2.965  12.446  23.009  0.00  0.00    +0.000 A 
ATOM     25  C   UNL     1      -3.282  13.452  23.926  0.00  0.00    +0.000 A 
ATOM     26  C   UNL     1      -2.347  14.436  24.240  0.00  0.00    +0.000 A 
ATOM     27  C   UNL     1      -1.103  14.435  23.610  0.00  0.00    +0.000 A 
ATOM     28  C   UNL     1      -0.800  13.435  22.689  0.00  0.00    +0.000 A 
ATOM     29  F   UNL     1       0.405  13.440  22.096  0.00  0.00    +0.000 F 
ENDBRANCH  21  23
ENDBRANCH  18  20
ENDBRANCH   1  18
TORSDOF 4
ENDMDL
