MODEL 1
REMARK VINA RESULT:      -8.9      0.000      0.000
REMARK  Name = 
REMARK  4 active torsions:
REMARK  status: ('A' for Active; 'I' for Inactive)
REMARK    1  A    between atoms: N_3  and  C_4
REMARK    2  A    between atoms: N_8  and  C_9
REMARK    3  A    between atoms: C_9  and  C_10
REMARK    4  A    between atoms: N_17  and  C_18
REMARK                            x       y       z     vdW  Elec       q    Type
REMARK                         _______ _______ _______ _____ _____    ______ ____
ROOT
ATOM      1  O   UNL     1       0.927   5.361  20.360  0.00  0.00    +0.000 OA
ATOM      2  C   UNL     1       1.945   6.022  20.391  0.00  0.00    +0.000 C 
ATOM      3  N   UNL     1       3.235   5.477  20.116  0.00  0.00    +0.000 N 
ATOM      4  N   UNL     1       2.067   7.348  20.693  0.00  0.00    +0.000 N 
ATOM      5  H   UNL     1       4.043   6.052  20.292  0.00  0.00    +0.000 HD
ATOM      6  H   UNL     1       2.934   7.813  20.475  0.00  0.00    +0.000 HD
ENDROOT
BRANCH   4   7
ATOM      7  C   UNL     1       0.945   8.242  20.976  0.00  0.00    +0.000 C 
ATOM      8  C   UNL     1       0.677   9.388  19.969  0.00  0.00    +0.000 C 
ATOM      9  C   UNL     1      -0.180  10.300  20.806  0.00  0.00    +0.000 A 
ATOM     10  C   UNL     1      -0.992  11.345  20.390  0.00  0.00    +0.000 A 
ATOM     11  C   UNL     1      -1.686  12.075  21.361  0.00  0.00    +0.000 A 
ATOM     12  C   UNL     1      -1.567  11.754  22.721  0.00  0.00    +0.000 A 
ATOM     13  C   UNL     1      -0.734  10.712  23.134  0.00  0.00    +0.000 A 
ATOM     14  C   UNL     1      -0.041  10.001  22.168  0.00  0.00    +0.000 A 
ATOM     15  C   UNL     1       0.962   8.904  22.371  0.00  0.00    +0.000 C 
ENDBRANCH   4   7
BRANCH   3  16
ATOM     16  C   UNL     1       3.458   4.194  19.612  0.00  0.00    +0.000 A 
ATOM     17  C   UNL     1       3.262   2.987  20.247  0.00  0.00    +0.000 A 
ATOM     18  C   UNL     1       3.535   2.003  19.278  0.00  0.00    +0.000 A 
ATOM     19  N   UNL     1       3.922   2.531  18.117  0.00  0.00    +0.000 NA
ATOM     20  N   UNL     1       3.885   3.862  18.337  0.00  0.00    +0.000 N 
BRANCH  20  21
ATOM     21  C   UNL     1       4.344   4.747  17.271  0.00  0.00    +0.000 C 
BRANCH  21  22
ATOM     22  C   UNL     1       5.558   5.568  17.646  0.00  0.00    +0.000 A 
ATOM     23  C   UNL     1       6.472   5.052  18.583  0.00  0.00    +0.000 A 
ATOM     24  C   UNL     1       7.599   5.788  18.956  0.00  0.00    +0.000 A 
ATOM     25  C   UNL     1       7.831   7.030  18.381  0.00  0.00    +0.000 A 
ATOM     26  F   UNL     1       8.895   7.748  18.763  0.00  0.00    +0.000 F 
ATOM     27  C   UNL     1       6.977   7.534  17.410  0.00  0.00    +0.000 A 
ATOM     28  C   UNL     1       5.853   6.797  17.029  0.00  0.00    +0.000 A 
ENDBRANCH  21  22
ENDBRANCH  20  21
ENDBRANCH   3  16
TORSDOF 4
ENDMDL
MODEL 2
REMARK VINA RESULT:      -8.9      5.295      8.029
REMARK  Name = 
REMARK  4 active torsions:
REMARK  status: ('A' for Active; 'I' for Inactive)
REMARK    1  A    between atoms: N_3  and  C_4
REMARK    2  A    between atoms: N_8  and  C_9
REMARK    3  A    between atoms: C_9  and  C_10
REMARK    4  A    between atoms: N_17  and  C_18
REMARK                            x       y       z     vdW  Elec       q    Type
REMARK                         _______ _______ _______ _____ _____    ______ ____
ROOT
ATOM      1  O   UNL     1       7.095   8.615  17.191  0.00  0.00    +0.000 OA
ATOM      2  C   UNL     1       7.810   8.055  17.996  0.00  0.00    +0.000 C 
ATOM      3  N   UNL     1       7.805   6.640  18.189  0.00  0.00    +0.000 N 
ATOM      4  N   UNL     1       8.710   8.626  18.849  0.00  0.00    +0.000 N 
ATOM      5  H   UNL     1       8.325   6.263  18.964  0.00  0.00    +0.000 HD
ATOM      6  H   UNL     1       9.382   8.032  19.306  0.00  0.00    +0.000 HD
ENDROOT
BRANCH   4   7
ATOM      7  C   UNL     1       9.021  10.054  18.893  0.00  0.00    +0.000 C 
ATOM      8  C   UNL     1       9.992  10.604  17.819  0.00  0.00    +0.000 C 
ATOM      9  C   UNL     1      10.405  11.905  18.455  0.00  0.00    +0.000 A 
ATOM     10  C   UNL     1      11.021  12.998  17.865  0.00  0.00    +0.000 A 
ATOM     11  C   UNL     1      11.331  14.101  18.669  0.00  0.00    +0.000 A 
ATOM     12  C   UNL     1      11.022  14.101  20.037  0.00  0.00    +0.000 A 
ATOM     13  C   UNL     1      10.417  12.990  20.628  0.00  0.00    +0.000 A 
ATOM     14  C   UNL     1      10.123  11.898  19.828  0.00  0.00    +0.000 A 
ATOM     15  C   UNL     1       9.553  10.574  20.246  0.00  0.00    +0.000 C 
ENDBRANCH   4   7
BRANCH   3  16
ATOM     16  C   UNL     1       7.127   5.735  17.370  0.00  0.00    +0.000 A 
ATOM     17  C   UNL     1       7.425   5.373  16.074  0.00  0.00    +0.000 A 
ATOM     18  C   UNL     1       6.504   4.361  15.744  0.00  0.00    +0.000 A 
ATOM     19  N   UNL     1       5.645   4.117  16.734  0.00  0.00    +0.000 NA
ATOM     20  N   UNL     1       6.025   4.968  17.710  0.00  0.00    +0.000 N 
BRANCH  20  21
ATOM     21  C   UNL     1       5.220   5.019  18.927  0.00  0.00    +0.000 C 
BRANCH  21  22
ATOM     22  C   UNL     1       3.894   4.302  18.807  0.00  0.00    +0.000 A 
ATOM     23  C   UNL     1       3.732   3.051  19.432  0.00  0.00    +0.000 A 
ATOM     24  C   UNL     1       2.522   2.360  19.335  0.00  0.00    +0.000 A 
ATOM     25  C   UNL     1       1.464   2.921  18.635  0.00  0.00    +0.000 A 
ATOM     26  F   UNL     1       0.315   2.243  18.516  0.00  0.00    +0.000 F 
ATOM     27  C   UNL     1       1.578   4.180  18.061  0.00  0.00    +0.000 A 
ATOM     28  C   UNL     1       2.784   4.878  18.163  0.00  0.00    +0.000 A 
ENDBRANCH  21  22
ENDBRANCH  20  21
ENDBRANCH   3  16
TORSDOF 4
ENDMDL
MODEL 3
REMARK VINA RESULT:      -8.7      2.438      4.060
REMARK  Name = 
REMARK  4 active torsions:
REMARK  status: ('A' for Active; 'I' for Inactive)
REMARK    1  A    between atoms: N_3  and  C_4
REMARK    2  A    between atoms: N_8  and  C_9
REMARK    3  A    between atoms: C_9  and  C_10
REMARK    4  A    between atoms: N_17  and  C_18
REMARK                            x       y       z     vdW  Elec       q    Type
REMARK                         _______ _______ _______ _____ _____    ______ ____
ROOT
ATOM      1  O   UNL     1       2.000   7.611  17.947  0.00  0.00    +0.000 OA
ATOM      2  C   UNL     1       2.498   7.215  18.981  0.00  0.00    +0.000 C 
ATOM      3  N   UNL     1       3.619   6.332  19.016  0.00  0.00    +0.000 N 
ATOM      4  N   UNL     1       2.106   7.503  20.257  0.00  0.00    +0.000 N 
ATOM      5  H   UNL     1       3.891   5.942  19.904  0.00  0.00    +0.000 HD
ATOM      6  H   UNL     1       2.733   7.281  21.013  0.00  0.00    +0.000 HD
ENDROOT
BRANCH   4   7
ATOM      7  C   UNL     1       1.022   8.419  20.606  0.00  0.00    +0.000 C 
ATOM      8  C   UNL     1       1.012   9.805  19.913  0.00  0.00    +0.000 C 
ATOM      9  C   UNL     1       0.097  10.570  20.832  0.00  0.00    +0.000 A 
ATOM     10  C   UNL     1      -0.555  11.772  20.599  0.00  0.00    +0.000 A 
ATOM     11  C   UNL     1      -1.346  12.308  21.621  0.00  0.00    +0.000 A 
ATOM     12  C   UNL     1      -1.481  11.644  22.849  0.00  0.00    +0.000 A 
ATOM     13  C   UNL     1      -0.808  10.442  23.082  0.00  0.00    +0.000 A 
ATOM     14  C   UNL     1      -0.018   9.923  22.070  0.00  0.00    +0.000 A 
ATOM     15  C   UNL     1       0.853   8.702  22.114  0.00  0.00    +0.000 C 
ENDBRANCH   4   7
BRANCH   3  16
ATOM     16  C   UNL     1       4.373   5.969  17.898  0.00  0.00    +0.000 A 
ATOM     17  C   UNL     1       5.488   6.597  17.386  0.00  0.00    +0.000 A 
ATOM     18  C   UNL     1       5.926   5.781  16.326  0.00  0.00    +0.000 A 
ATOM     19  N   UNL     1       5.129   4.730  16.135  0.00  0.00    +0.000 NA
ATOM     20  N   UNL     1       4.182   4.863  17.087  0.00  0.00    +0.000 N 
BRANCH  20  21
ATOM     21  C   UNL     1       3.083   3.903  17.101  0.00  0.00    +0.000 C 
BRANCH  21  22
ATOM     22  C   UNL     1       2.636   3.515  18.493  0.00  0.00    +0.000 A 
ATOM     23  C   UNL     1       1.298   3.737  18.870  0.00  0.00    +0.000 A 
ATOM     24  C   UNL     1       0.854   3.397  20.150  0.00  0.00    +0.000 A 
ATOM     25  C   UNL     1       1.734   2.813  21.050  0.00  0.00    +0.000 A 
ATOM     26  F   UNL     1       1.316   2.516  22.287  0.00  0.00    +0.000 F 
ATOM     27  C   UNL     1       3.042   2.527  20.682  0.00  0.00    +0.000 A 
ATOM     28  C   UNL     1       3.487   2.860  19.401  0.00  0.00    +0.000 A 
ENDBRANCH  21  22
ENDBRANCH  20  21
ENDBRANCH   3  16
TORSDOF 4
ENDMDL
MODEL 4
REMARK VINA RESULT:      -8.6      4.980      7.949
REMARK  Name = 
REMARK  4 active torsions:
REMARK  status: ('A' for Active; 'I' for Inactive)
REMARK    1  A    between atoms: N_3  and  C_4
REMARK    2  A    between atoms: N_8  and  C_9
REMARK    3  A    between atoms: C_9  and  C_10
REMARK    4  A    between atoms: N_17  and  C_18
REMARK                            x       y       z     vdW  Elec       q    Type
REMARK                         _______ _______ _______ _____ _____    ______ ____
ROOT
ATOM      1  O   UNL     1       7.040   8.621  17.067  0.00  0.00    +0.000 OA
ATOM      2  C   UNL     1       7.719   8.045  17.894  0.00  0.00    +0.000 C 
ATOM      3  N   UNL     1       7.670   6.633  18.093  0.00  0.00    +0.000 N 
ATOM      4  N   UNL     1       8.612   8.597  18.767  0.00  0.00    +0.000 N 
ATOM      5  H   UNL     1       8.160   6.245  18.883  0.00  0.00    +0.000 HD
ATOM      6  H   UNL     1       9.256   7.987  19.244  0.00  0.00    +0.000 HD
ENDROOT
BRANCH   4   7
ATOM      7  C   UNL     1       8.961  10.016  18.813  0.00  0.00    +0.000 C 
ATOM      8  C   UNL     1       9.953  10.539  17.744  0.00  0.00    +0.000 C 
ATOM      9  C   UNL     1      10.397  11.828  18.382  0.00  0.00    +0.000 A 
ATOM     10  C   UNL     1      11.045  12.905  17.794  0.00  0.00    +0.000 A 
ATOM     11  C   UNL     1      11.381  13.999  18.599  0.00  0.00    +0.000 A 
ATOM     12  C   UNL     1      11.064  14.008  19.966  0.00  0.00    +0.000 A 
ATOM     13  C   UNL     1      10.426  12.914  20.554  0.00  0.00    +0.000 A 
ATOM     14  C   UNL     1      10.107  11.830  19.753  0.00  0.00    +0.000 A 
ATOM     15  C   UNL     1       9.499  10.523  20.168  0.00  0.00    +0.000 C 
ENDBRANCH   4   7
BRANCH   3  16
ATOM     16  C   UNL     1       6.988   5.742  17.261  0.00  0.00    +0.000 A 
ATOM     17  C   UNL     1       7.521   4.819  16.388  0.00  0.00    +0.000 A 
ATOM     18  C   UNL     1       6.420   4.108  15.874  0.00  0.00    +0.000 A 
ATOM     19  N   UNL     1       5.259   4.566  16.343  0.00  0.00    +0.000 NA
ATOM     20  N   UNL     1       5.617   5.567  17.174  0.00  0.00    +0.000 N 
BRANCH  20  21
ATOM     21  C   UNL     1       4.557   6.352  17.799  0.00  0.00    +0.000 C 
BRANCH  21  22
ATOM     22  C   UNL     1       3.491   5.510  18.463  0.00  0.00    +0.000 A 
ATOM     23  C   UNL     1       3.533   5.326  19.858  0.00  0.00    +0.000 A 
ATOM     24  C   UNL     1       2.567   4.549  20.502  0.00  0.00    +0.000 A 
ATOM     25  C   UNL     1       1.545   3.971  19.762  0.00  0.00    +0.000 A 
ATOM     26  F   UNL     1       0.638   3.199  20.376  0.00  0.00    +0.000 F 
ATOM     27  C   UNL     1       1.447   4.187  18.394  0.00  0.00    +0.000 A 
ATOM     28  C   UNL     1       2.406   4.970  17.749  0.00  0.00    +0.000 A 
ENDBRANCH  21  22
ENDBRANCH  20  21
ENDBRANCH   3  16
TORSDOF 4
ENDMDL
MODEL 5
REMARK VINA RESULT:      -8.6      1.093      1.821
REMARK  Name = 
REMARK  4 active torsions:
REMARK  status: ('A' for Active; 'I' for Inactive)
REMARK    1  A    between atoms: N_3  and  C_4
REMARK    2  A    between atoms: N_8  and  C_9
REMARK    3  A    between atoms: C_9  and  C_10
REMARK    4  A    between atoms: N_17  and  C_18
REMARK                            x       y       z     vdW  Elec       q    Type
REMARK                         _______ _______ _______ _____ _____    ______ ____
ROOT
ATOM      1  O   UNL     1       2.751   5.811  20.429  0.00  0.00    +0.000 OA
ATOM      2  C   UNL     1       2.456   6.251  19.336  0.00  0.00    +0.000 C 
ATOM      3  N   UNL     1       2.643   5.518  18.126  0.00  0.00    +0.000 N 
ATOM      4  N   UNL     1       1.925   7.475  19.048  0.00  0.00    +0.000 N 
ATOM      5  H   UNL     1       2.501   5.996  17.251  0.00  0.00    +0.000 HD
ATOM      6  H   UNL     1       1.534   7.626  18.132  0.00  0.00    +0.000 HD
ENDROOT
BRANCH   4   7
ATOM      7  C   UNL     1       1.550   8.474  20.048  0.00  0.00    +0.000 C 
ATOM      8  C   UNL     1       0.604   8.019  21.187  0.00  0.00    +0.000 C 
ATOM      9  C   UNL     1       0.107   9.350  21.685  0.00  0.00    +0.000 A 
ATOM     10  C   UNL     1      -0.530   9.641  22.883  0.00  0.00    +0.000 A 
ATOM     11  C   UNL     1      -0.924  10.962  23.122  0.00  0.00    +0.000 A 
ATOM     12  C   UNL     1      -0.677  11.967  22.176  0.00  0.00    +0.000 A 
ATOM     13  C   UNL     1      -0.050  11.664  20.965  0.00  0.00    +0.000 A 
ATOM     14  C   UNL     1       0.326  10.351  20.731  0.00  0.00    +0.000 A 
ATOM     15  C   UNL     1       0.936   9.775  19.486  0.00  0.00    +0.000 C 
ENDBRANCH   4   7
BRANCH   3  16
ATOM     16  C   UNL     1       3.010   4.171  18.068  0.00  0.00    +0.000 A 
ATOM     17  C   UNL     1       2.496   3.119  18.794  0.00  0.00    +0.000 A 
ATOM     18  C   UNL     1       3.129   1.968  18.289  0.00  0.00    +0.000 A 
ATOM     19  N   UNL     1       4.019   2.257  17.339  0.00  0.00    +0.000 NA
ATOM     20  N   UNL     1       3.947   3.599  17.224  0.00  0.00    +0.000 N 
BRANCH  20  21
ATOM     21  C   UNL     1       4.874   4.260  16.310  0.00  0.00    +0.000 C 
BRANCH  21  22
ATOM     22  C   UNL     1       5.896   5.130  17.008  0.00  0.00    +0.000 A 
ATOM     23  C   UNL     1       5.960   6.500  16.692  0.00  0.00    +0.000 A 
ATOM     24  C   UNL     1       6.896   7.329  17.314  0.00  0.00    +0.000 A 
ATOM     25  C   UNL     1       7.756   6.803  18.267  0.00  0.00    +0.000 A 
ATOM     26  F   UNL     1       8.674   7.592  18.839  0.00  0.00    +0.000 F 
ATOM     27  C   UNL     1       7.671   5.468  18.641  0.00  0.00    +0.000 A 
ATOM     28  C   UNL     1       6.731   4.638  18.027  0.00  0.00    +0.000 A 
ENDBRANCH  21  22
ENDBRANCH  20  21
ENDBRANCH   3  16
TORSDOF 4
ENDMDL
MODEL 6
REMARK VINA RESULT:      -8.5      1.971      2.553
REMARK  Name = 
REMARK  4 active torsions:
REMARK  status: ('A' for Active; 'I' for Inactive)
REMARK    1  A    between atoms: N_3  and  C_4
REMARK    2  A    between atoms: N_8  and  C_9
REMARK    3  A    between atoms: C_9  and  C_10
REMARK    4  A    between atoms: N_17  and  C_18
REMARK                            x       y       z     vdW  Elec       q    Type
REMARK                         _______ _______ _______ _____ _____    ______ ____
ROOT
ATOM      1  O   UNL     1       1.917   5.879  20.804  0.00  0.00    +0.000 OA
ATOM      2  C   UNL     1       2.040   6.415  19.721  0.00  0.00    +0.000 C 
ATOM      3  N   UNL     1       2.411   5.704  18.540  0.00  0.00    +0.000 N 
ATOM      4  N   UNL     1       1.873   7.736  19.423  0.00  0.00    +0.000 N 
ATOM      5  H   UNL     1       2.624   6.235  17.711  0.00  0.00    +0.000 HD
ATOM      6  H   UNL     1       1.798   8.004  18.455  0.00  0.00    +0.000 HD
ENDROOT
BRANCH   4   7
ATOM      7  C   UNL     1       1.440   8.755  20.377  0.00  0.00    +0.000 C 
ATOM      8  C   UNL     1       0.371   8.344  21.420  0.00  0.00    +0.000 C 
ATOM      9  C   UNL     1      -0.122   9.696  21.863  0.00  0.00    +0.000 A 
ATOM     10  C   UNL     1      -0.861  10.019  22.991  0.00  0.00    +0.000 A 
ATOM     11  C   UNL     1      -1.226  11.356  23.186  0.00  0.00    +0.000 A 
ATOM     12  C   UNL     1      -0.849  12.344  22.266  0.00  0.00    +0.000 A 
ATOM     13  C   UNL     1      -0.119  12.009  21.123  0.00  0.00    +0.000 A 
ATOM     14  C   UNL     1       0.229  10.682  20.931  0.00  0.00    +0.000 A 
ATOM     15  C   UNL     1       0.935  10.074  19.755  0.00  0.00    +0.000 C 
ENDBRANCH   4   7
BRANCH   3  16
ATOM     16  C   UNL     1       2.498   4.313  18.450  0.00  0.00    +0.000 A 
ATOM     17  C   UNL     1       1.468   3.399  18.407  0.00  0.00    +0.000 A 
ATOM     18  C   UNL     1       2.083   2.148  18.214  0.00  0.00    +0.000 A 
ATOM     19  N   UNL     1       3.413   2.237  18.181  0.00  0.00    +0.000 NA
ATOM     20  N   UNL     1       3.653   3.556  18.340  0.00  0.00    +0.000 N 
BRANCH  20  21
ATOM     21  C   UNL     1       5.042   3.993  18.439  0.00  0.00    +0.000 C 
BRANCH  21  22
ATOM     22  C   UNL     1       5.683   4.279  17.099  0.00  0.00    +0.000 A 
ATOM     23  C   UNL     1       4.911   4.156  15.929  0.00  0.00    +0.000 A 
ATOM     24  C   UNL     1       5.475   4.406  14.676  0.00  0.00    +0.000 A 
ATOM     25  C   UNL     1       6.802   4.800  14.586  0.00  0.00    +0.000 A 
ATOM     26  F   UNL     1       7.351   5.008  13.381  0.00  0.00    +0.000 F 
ATOM     27  C   UNL     1       7.568   4.987  15.729  0.00  0.00    +0.000 A 
ATOM     28  C   UNL     1       7.005   4.746  16.983  0.00  0.00    +0.000 A 
ENDBRANCH  21  22
ENDBRANCH  20  21
ENDBRANCH   3  16
TORSDOF 4
ENDMDL
MODEL 7
REMARK VINA RESULT:      -8.4      2.540      4.168
REMARK  Name = 
REMARK  4 active torsions:
REMARK  status: ('A' for Active; 'I' for Inactive)
REMARK    1  A    between atoms: N_3  and  C_4
REMARK    2  A    between atoms: N_8  and  C_9
REMARK    3  A    between atoms: C_9  and  C_10
REMARK    4  A    between atoms: N_17  and  C_18
REMARK                            x       y       z     vdW  Elec       q    Type
REMARK                         _______ _______ _______ _____ _____    ______ ____
ROOT
ATOM      1  O   UNL     1       3.251   6.685  19.518  0.00  0.00    +0.000 OA
ATOM      2  C   UNL     1       3.079   7.308  18.490  0.00  0.00    +0.000 C 
ATOM      3  N   UNL     1       3.856   7.094  17.312  0.00  0.00    +0.000 N 
ATOM      4  N   UNL     1       2.168   8.299  18.261  0.00  0.00    +0.000 N 
ATOM      5  H   UNL     1       3.746   7.737  16.545  0.00  0.00    +0.000 HD
ATOM      6  H   UNL     1       1.992   8.578  17.309  0.00  0.00    +0.000 HD
ENDROOT
BRANCH   4   7
ATOM      7  C   UNL     1       1.168   8.748  19.227  0.00  0.00    +0.000 C 
ATOM      8  C   UNL     1       0.798  10.252  19.221  0.00  0.00    +0.000 C 
ATOM      9  C   UNL     1       0.155  10.387  20.576  0.00  0.00    +0.000 A 
ATOM     10  C   UNL     1      -0.654  11.410  21.051  0.00  0.00    +0.000 A 
ATOM     11  C   UNL     1      -1.124  11.329  22.366  0.00  0.00    +0.000 A 
ATOM     12  C   UNL     1      -0.791  10.238  23.182  0.00  0.00    +0.000 A 
ATOM     13  C   UNL     1       0.037   9.220  22.702  0.00  0.00    +0.000 A 
ATOM     14  C   UNL     1       0.509   9.313  21.403  0.00  0.00    +0.000 A 
ATOM     15  C   UNL     1       1.465   8.395  20.701  0.00  0.00    +0.000 C 
ENDBRANCH   4   7
BRANCH   3  16
ATOM     16  C   UNL     1       4.762   6.045  17.144  0.00  0.00    +0.000 A 
ATOM     17  C   UNL     1       6.133   6.117  17.029  0.00  0.00    +0.000 A 
ATOM     18  C   UNL     1       6.578   4.783  16.984  0.00  0.00    +0.000 A 
ATOM     19  N   UNL     1       5.569   3.912  17.021  0.00  0.00    +0.000 NA
ATOM     20  N   UNL     1       4.471   4.691  17.103  0.00  0.00    +0.000 N 
BRANCH  20  21
ATOM     21  C   UNL     1       3.165   4.041  17.074  0.00  0.00    +0.000 C 
BRANCH  21  22
ATOM     22  C   UNL     1       2.661   3.632  18.440  0.00  0.00    +0.000 A 
ATOM     23  C   UNL     1       1.293   3.774  18.737  0.00  0.00    +0.000 A 
ATOM     24  C   UNL     1       0.796   3.411  19.991  0.00  0.00    +0.000 A 
ATOM     25  C   UNL     1       1.656   2.885  20.945  0.00  0.00    +0.000 A 
ATOM     26  F   UNL     1       1.185   2.568  22.158  0.00  0.00    +0.000 F 
ATOM     27  C   UNL     1       2.998   2.678  20.656  0.00  0.00    +0.000 A 
ATOM     28  C   UNL     1       3.496   3.033  19.400  0.00  0.00    +0.000 A 
ENDBRANCH  21  22
ENDBRANCH  20  21
ENDBRANCH   3  16
TORSDOF 4
ENDMDL
MODEL 8
REMARK VINA RESULT:      -8.4      1.816      2.334
REMARK  Name = 
REMARK  4 active torsions:
REMARK  status: ('A' for Active; 'I' for Inactive)
REMARK    1  A    between atoms: N_3  and  C_4
REMARK    2  A    between atoms: N_8  and  C_9
REMARK    3  A    between atoms: C_9  and  C_10
REMARK    4  A    between atoms: N_17  and  C_18
REMARK                            x       y       z     vdW  Elec       q    Type
REMARK                         _______ _______ _______ _____ _____    ______ ____
ROOT
ATOM      1  O   UNL     1       1.761   5.900  21.064  0.00  0.00    +0.000 OA
ATOM      2  C   UNL     1       1.891   6.369  19.951  0.00  0.00    +0.000 C 
ATOM      3  N   UNL     1       2.232   5.582  18.810  0.00  0.00    +0.000 N 
ATOM      4  N   UNL     1       1.759   7.676  19.579  0.00  0.00    +0.000 N 
ATOM      5  H   UNL     1       2.452   6.058  17.951  0.00  0.00    +0.000 HD
ATOM      6  H   UNL     1       1.684   7.890  18.598  0.00  0.00    +0.000 HD
ENDROOT
BRANCH   4   7
ATOM      7  C   UNL     1       1.363   8.759  20.477  0.00  0.00    +0.000 C 
ATOM      8  C   UNL     1       0.257   8.453  21.517  0.00  0.00    +0.000 C 
ATOM      9  C   UNL     1      -0.173   9.848  21.887  0.00  0.00    +0.000 A 
ATOM     10  C   UNL     1      -0.913  10.262  22.984  0.00  0.00    +0.000 A 
ATOM     11  C   UNL     1      -1.212  11.622  23.110  0.00  0.00    +0.000 A 
ATOM     12  C   UNL     1      -0.769  12.546  22.152  0.00  0.00    +0.000 A 
ATOM     13  C   UNL     1      -0.038  12.120  21.040  0.00  0.00    +0.000 A 
ATOM     14  C   UNL     1       0.244  10.769  20.917  0.00  0.00    +0.000 A 
ATOM     15  C   UNL     1       0.937  10.072  19.784  0.00  0.00    +0.000 C 
ENDBRANCH   4   7
BRANCH   3  16
ATOM     16  C   UNL     1       2.278   4.186  18.800  0.00  0.00    +0.000 A 
ATOM     17  C   UNL     1       1.223   3.302  18.739  0.00  0.00    +0.000 A 
ATOM     18  C   UNL     1       1.807   2.024  18.652  0.00  0.00    +0.000 A 
ATOM     19  N   UNL     1       3.139   2.073  18.699  0.00  0.00    +0.000 NA
ATOM     20  N   UNL     1       3.412   3.390  18.804  0.00  0.00    +0.000 N 
BRANCH  20  21
ATOM     21  C   UNL     1       4.805   3.791  18.968  0.00  0.00    +0.000 C 
BRANCH  21  22
ATOM     22  C   UNL     1       5.493   4.136  17.666  0.00  0.00    +0.000 A 
ATOM     23  C   UNL     1       6.836   4.558  17.691  0.00  0.00    +0.000 A 
ATOM     24  C   UNL     1       7.498   4.890  16.507  0.00  0.00    +0.000 A 
ATOM     25  C   UNL     1       6.834   4.782  15.293  0.00  0.00    +0.000 A 
ATOM     26  F   UNL     1       7.460   5.132  14.162  0.00  0.00    +0.000 F 
ATOM     27  C   UNL     1       5.530   4.310  15.237  0.00  0.00    +0.000 A 
ATOM     28  C   UNL     1       4.867   3.970  16.417  0.00  0.00    +0.000 A 
ENDBRANCH  21  22
ENDBRANCH  20  21
ENDBRANCH   3  16
TORSDOF 4
ENDMDL
MODEL 9
REMARK VINA RESULT:      -8.4      4.406      9.346
REMARK  Name = 
REMARK  4 active torsions:
REMARK  status: ('A' for Active; 'I' for Inactive)
REMARK    1  A    between atoms: N_3  and  C_4
REMARK    2  A    between atoms: N_8  and  C_9
REMARK    3  A    between atoms: C_9  and  C_10
REMARK    4  A    between atoms: N_17  and  C_18
REMARK                            x       y       z     vdW  Elec       q    Type
REMARK                         _______ _______ _______ _____ _____    ______ ____
ROOT
ATOM      1  O   UNL     1       1.746   9.906  17.358  0.00  0.00    +0.000 OA
ATOM      2  C   UNL     1       1.661   9.612  18.533  0.00  0.00    +0.000 C 
ATOM      3  N   UNL     1       1.249  10.539  19.538  0.00  0.00    +0.000 N 
ATOM      4  N   UNL     1       1.940   8.408  19.112  0.00  0.00    +0.000 N 
ATOM      5  H   UNL     1       1.331  10.264  20.503  0.00  0.00    +0.000 HD
ATOM      6  H   UNL     1       1.624   8.244  20.055  0.00  0.00    +0.000 HD
ENDROOT
BRANCH   4   7
ATOM      7  C   UNL     1       2.340   7.207  18.381  0.00  0.00    +0.000 C 
ATOM      8  C   UNL     1       2.306   5.862  19.149  0.00  0.00    +0.000 C 
ATOM      9  C   UNL     1       3.185   5.015  18.266  0.00  0.00    +0.000 A 
ATOM     10  C   UNL     1       3.308   3.634  18.241  0.00  0.00    +0.000 A 
ATOM     11  C   UNL     1       4.214   3.064  17.339  0.00  0.00    +0.000 A 
ATOM     12  C   UNL     1       4.974   3.870  16.479  0.00  0.00    +0.000 A 
ATOM     13  C   UNL     1       4.857   5.261  16.522  0.00  0.00    +0.000 A 
ATOM     14  C   UNL     1       3.967   5.818  17.426  0.00  0.00    +0.000 A 
ATOM     15  C   UNL     1       3.728   7.273  17.707  0.00  0.00    +0.000 C 
ENDBRANCH   4   7
BRANCH   3  16
ATOM     16  C   UNL     1       0.731  11.809  19.275  0.00  0.00    +0.000 A 
ATOM     17  C   UNL     1       1.422  12.990  19.109  0.00  0.00    +0.000 A 
ATOM     18  C   UNL     1       0.451  13.949  18.765  0.00  0.00    +0.000 A 
ATOM     19  N   UNL     1      -0.781  13.440  18.755  0.00  0.00    +0.000 NA
ATOM     20  N   UNL     1      -0.599  12.143  19.080  0.00  0.00    +0.000 N 
BRANCH  20  21
ATOM     21  C   UNL     1      -1.782  11.304  19.244  0.00  0.00    +0.000 C 
BRANCH  21  22
ATOM     22  C   UNL     1      -2.485  10.988  17.943  0.00  0.00    +0.000 A 
ATOM     23  C   UNL     1      -1.898  10.073  17.050  0.00  0.00    +0.000 A 
ATOM     24  C   UNL     1      -2.519   9.764  15.838  0.00  0.00    +0.000 A 
ATOM     25  C   UNL     1      -3.736  10.349  15.520  0.00  0.00    +0.000 A 
ATOM     26  F   UNL     1      -4.314  10.077  14.343  0.00  0.00    +0.000 F 
ATOM     27  C   UNL     1      -4.366  11.209  16.411  0.00  0.00    +0.000 A 
ATOM     28  C   UNL     1      -3.752  11.513  17.627  0.00  0.00    +0.000 A 
ENDBRANCH  21  22
ENDBRANCH  20  21
ENDBRANCH   3  16
TORSDOF 4
ENDMDL
