MODEL 1
REMARK VINA RESULT:      -8.5      0.000      0.000
REMARK  Name = 
REMARK  7 active torsions:
REMARK  status: ('A' for Active; 'I' for Inactive)
REMARK    1  A    between atoms: C_1  and  C_2
REMARK    2  A    between atoms: C_5  and  C_6
REMARK    3  A    between atoms: C_6  and  O_8
REMARK    4  A    between atoms: O_8  and  C_9
REMARK    5  A    between atoms: C_9  and  C_10
REMARK    6  A    between atoms: N_14  and  C_15
REMARK    7  A    between atoms: C_26  and  O_27
REMARK                            x       y       z     vdW  Elec       q    Type
REMARK                         _______ _______ _______ _____ _____    ______ ____
ROOT
ATOM      1  C   UNL     1       2.657   7.304  18.684  0.00  0.00    +0.000 A 
ATOM      2  N   UNL     1       3.392   7.904  17.761  0.00  0.00    +0.000 NA
ATOM      3  N   UNL     1       4.099   6.961  17.076  0.00  0.00    +0.000 NA
ATOM      4  C   UNL     1       3.785   5.785  17.563  0.00  0.00    +0.000 A 
ATOM      5  N   UNL     1       4.249   4.557  17.126  0.00  0.00    +0.000 N 
ATOM      6  C   UNL     1       5.240   4.422  16.077  0.00  0.00    +0.000 C 
ATOM      7  C   UNL     1       3.751   3.399  17.701  0.00  0.00    +0.000 A 
ATOM      8  O   UNL     1       4.071   2.272  17.323  0.00  0.00    +0.000 OA
ATOM      9  C   UNL     1       2.813   3.542  18.846  0.00  0.00    +0.000 A 
ATOM     10  C   UNL     1       2.323   2.370  19.442  0.00  0.00    +0.000 A 
ATOM     11  C   UNL     1       1.510   2.450  20.567  0.00  0.00    +0.000 A 
ATOM     12  C   UNL     1       1.223   3.696  21.118  0.00  0.00    +0.000 A 
ATOM     13  C   UNL     1       1.692   4.872  20.518  0.00  0.00    +0.000 A 
ATOM     14  C   UNL     1       2.453   4.806  19.351  0.00  0.00    +0.000 A 
ATOM     15  N   UNL     1       2.903   5.935  18.625  0.00  0.00    +0.000 N 
ENDROOT
BRANCH   1  16
ATOM     16  C   UNL     1       1.758   8.074  19.589  0.00  0.00    +0.000 C 
BRANCH  16  17
ATOM     17  O   UNL     1       1.410   9.324  18.953  0.00  0.00    +0.000 OA
BRANCH  17  18
ATOM     18  C   UNL     1       0.600  10.139  19.667  0.00  0.00    +0.000 C 
ATOM     19  O   UNL     1       0.836  10.558  20.787  0.00  0.00    +0.000 OA
BRANCH  18  24
ATOM     20  C   UNL     1      -4.293  11.276  16.702  0.00  0.00    +0.000 C 
ATOM     21  C   UNL     1      -3.036  11.007  17.482  0.00  0.00    +0.000 A 
ATOM     22  C   UNL     1      -2.084  10.108  16.994  0.00  0.00    +0.000 A 
ATOM     23  C   UNL     1      -0.904   9.863  17.706  0.00  0.00    +0.000 A 
ATOM     24  C   UNL     1      -0.660  10.497  18.934  0.00  0.00    +0.000 A 
ATOM     25  C   UNL     1      -1.602  11.409  19.426  0.00  0.00    +0.000 A 
ATOM     26  C   UNL     1      -2.763  11.669  18.688  0.00  0.00    +0.000 A 
BRANCH  26  27
ATOM     27  O   UNL     1      -3.665  12.598  19.130  0.00  0.00    +0.000 OA
ATOM     28  H   UNL     1      -3.665  13.354  18.519  0.00  0.00    +0.000 HD
ENDBRANCH  26  27
ENDBRANCH  18  24
ENDBRANCH  17  18
ENDBRANCH  16  17
ENDBRANCH   1  16
TORSDOF 5
ENDMDL
MODEL 2
REMARK VINA RESULT:      -8.4      0.908      1.294
REMARK  Name = 
REMARK  7 active torsions:
REMARK  status: ('A' for Active; 'I' for Inactive)
REMARK    1  A    between atoms: C_1  and  C_2
REMARK    2  A    between atoms: C_5  and  C_6
REMARK    3  A    between atoms: C_6  and  O_8
REMARK    4  A    between atoms: O_8  and  C_9
REMARK    5  A    between atoms: C_9  and  C_10
REMARK    6  A    between atoms: N_14  and  C_15
REMARK    7  A    between atoms: C_26  and  O_27
REMARK                            x       y       z     vdW  Elec       q    Type
REMARK                         _______ _______ _______ _____ _____    ______ ____
ROOT
ATOM      1  C   UNL     1       2.741   7.271  18.543  0.00  0.00    +0.000 A 
ATOM      2  N   UNL     1       3.506   7.825  17.616  0.00  0.00    +0.000 NA
ATOM      3  N   UNL     1       4.205   6.846  16.974  0.00  0.00    +0.000 NA
ATOM      4  C   UNL     1       3.855   5.693  17.491  0.00  0.00    +0.000 A 
ATOM      5  N   UNL     1       4.299   4.442  17.101  0.00  0.00    +0.000 N 
ATOM      6  C   UNL     1       5.306   4.252  16.076  0.00  0.00    +0.000 C 
ATOM      7  C   UNL     1       3.765   3.314  17.702  0.00  0.00    +0.000 A 
ATOM      8  O   UNL     1       4.066   2.169  17.365  0.00  0.00    +0.000 OA
ATOM      9  C   UNL     1       2.809   3.513  18.824  0.00  0.00    +0.000 A 
ATOM     10  C   UNL     1       2.282   2.371  19.446  0.00  0.00    +0.000 A 
ATOM     11  C   UNL     1       1.450   2.504  20.552  0.00  0.00    +0.000 A 
ATOM     12  C   UNL     1       1.181   3.773  21.058  0.00  0.00    +0.000 A 
ATOM     13  C   UNL     1       1.687   4.919  20.432  0.00  0.00    +0.000 A 
ATOM     14  C   UNL     1       2.468   4.800  19.282  0.00  0.00    +0.000 A 
ATOM     15  N   UNL     1       2.957   5.895  18.530  0.00  0.00    +0.000 N 
ENDROOT
BRANCH   1  16
ATOM     16  C   UNL     1       1.843   8.088  19.405  0.00  0.00    +0.000 C 
BRANCH  16  17
ATOM     17  O   UNL     1       1.288   9.166  18.619  0.00  0.00    +0.000 OA
BRANCH  17  18
ATOM     18  C   UNL     1       0.577  10.088  19.308  0.00  0.00    +0.000 C 
ATOM     19  O   UNL     1       0.936  10.622  20.342  0.00  0.00    +0.000 OA
BRANCH  18  24
ATOM     20  C   UNL     1      -4.524  11.600  16.918  0.00  0.00    +0.000 C 
ATOM     21  C   UNL     1      -3.209  11.187  17.517  0.00  0.00    +0.000 A 
ATOM     22  C   UNL     1      -2.784  11.737  18.729  0.00  0.00    +0.000 A 
ATOM     23  C   UNL     1      -1.568  11.347  19.302  0.00  0.00    +0.000 A 
ATOM     24  C   UNL     1      -0.739  10.412  18.662  0.00  0.00    +0.000 A 
ATOM     25  C   UNL     1      -1.160   9.846  17.453  0.00  0.00    +0.000 A 
ATOM     26  C   UNL     1      -2.394  10.222  16.907  0.00  0.00    +0.000 A 
BRANCH  26  27
ATOM     27  O   UNL     1      -2.844   9.635  15.756  0.00  0.00    +0.000 OA
ATOM     28  H   UNL     1      -2.919   8.677  15.897  0.00  0.00    +0.000 HD
ENDBRANCH  26  27
ENDBRANCH  18  24
ENDBRANCH  17  18
ENDBRANCH  16  17
ENDBRANCH   1  16
TORSDOF 5
ENDMDL
MODEL 3
REMARK VINA RESULT:      -8.2      1.388      3.048
REMARK  Name = 
REMARK  7 active torsions:
REMARK  status: ('A' for Active; 'I' for Inactive)
REMARK    1  A    between atoms: C_1  and  C_2
REMARK    2  A    between atoms: C_5  and  C_6
REMARK    3  A    between atoms: C_6  and  O_8
REMARK    4  A    between atoms: O_8  and  C_9
REMARK    5  A    between atoms: C_9  and  C_10
REMARK    6  A    between atoms: N_14  and  C_15
REMARK    7  A    between atoms: C_26  and  O_27
REMARK                            x       y       z     vdW  Elec       q    Type
REMARK                         _______ _______ _______ _____ _____    ______ ____
ROOT
ATOM      1  C   UNL     1       2.202   7.215  19.456  0.00  0.00    +0.000 A 
ATOM      2  N   UNL     1       1.430   6.905  20.486  0.00  0.00    +0.000 NA
ATOM      3  N   UNL     1       1.706   5.629  20.879  0.00  0.00    +0.000 NA
ATOM      4  C   UNL     1       2.657   5.164  20.105  0.00  0.00    +0.000 A 
ATOM      5  N   UNL     1       3.258   3.920  20.188  0.00  0.00    +0.000 N 
ATOM      6  C   UNL     1       2.838   2.909  21.138  0.00  0.00    +0.000 C 
ATOM      7  C   UNL     1       4.310   3.615  19.340  0.00  0.00    +0.000 A 
ATOM      8  O   UNL     1       4.931   2.555  19.397  0.00  0.00    +0.000 OA
ATOM      9  C   UNL     1       4.670   4.613  18.297  0.00  0.00    +0.000 A 
ATOM     10  C   UNL     1       5.723   4.298  17.424  0.00  0.00    +0.000 A 
ATOM     11  C   UNL     1       6.043   5.160  16.383  0.00  0.00    +0.000 A 
ATOM     12  C   UNL     1       5.286   6.313  16.190  0.00  0.00    +0.000 A 
ATOM     13  C   UNL     1       4.247   6.645  17.068  0.00  0.00    +0.000 A 
ATOM     14  C   UNL     1       3.960   5.821  18.156  0.00  0.00    +0.000 A 
ATOM     15  N   UNL     1       2.989   6.109  19.144  0.00  0.00    +0.000 N 
ENDROOT
BRANCH   1  16
ATOM     16  C   UNL     1       2.143   8.556  18.812  0.00  0.00    +0.000 C 
BRANCH  16  17
ATOM     17  O   UNL     1       1.027   9.294  19.361  0.00  0.00    +0.000 OA
BRANCH  17  18
ATOM     18  C   UNL     1       0.785  10.498  18.794  0.00  0.00    +0.000 C 
ATOM     19  O   UNL     1       1.632  11.334  18.533  0.00  0.00    +0.000 OA
BRANCH  18  24
ATOM     20  C   UNL     1      -4.888  11.097  17.577  0.00  0.00    +0.000 C 
ATOM     21  C   UNL     1      -3.426  10.969  17.904  0.00  0.00    +0.000 A 
ATOM     22  C   UNL     1      -2.636  10.028  17.237  0.00  0.00    +0.000 A 
ATOM     23  C   UNL     1      -1.271   9.912  17.523  0.00  0.00    +0.000 A 
ATOM     24  C   UNL     1      -0.670  10.721  18.500  0.00  0.00    +0.000 A 
ATOM     25  C   UNL     1      -1.450  11.674  19.166  0.00  0.00    +0.000 A 
ATOM     26  C   UNL     1      -2.807  11.802  18.847  0.00  0.00    +0.000 A 
BRANCH  26  27
ATOM     27  O   UNL     1      -3.568  12.766  19.450  0.00  0.00    +0.000 OA
ATOM     28  H   UNL     1      -4.461  12.749  19.068  0.00  0.00    +0.000 HD
ENDBRANCH  26  27
ENDBRANCH  18  24
ENDBRANCH  17  18
ENDBRANCH  16  17
ENDBRANCH   1  16
TORSDOF 5
ENDMDL
MODEL 4
REMARK VINA RESULT:      -8.1      1.175      2.928
REMARK  Name = 
REMARK  7 active torsions:
REMARK  status: ('A' for Active; 'I' for Inactive)
REMARK    1  A    between atoms: C_1  and  C_2
REMARK    2  A    between atoms: C_5  and  C_6
REMARK    3  A    between atoms: C_6  and  O_8
REMARK    4  A    between atoms: O_8  and  C_9
REMARK    5  A    between atoms: C_9  and  C_10
REMARK    6  A    between atoms: N_14  and  C_15
REMARK    7  A    between atoms: C_26  and  O_27
REMARK                            x       y       z     vdW  Elec       q    Type
REMARK                         _______ _______ _______ _____ _____    ______ ____
ROOT
ATOM      1  C   UNL     1       1.965   6.679  19.997  0.00  0.00    +0.000 A 
ATOM      2  N   UNL     1       1.154   6.061  20.840  0.00  0.00    +0.000 NA
ATOM      3  N   UNL     1       1.189   4.721  20.589  0.00  0.00    +0.000 NA
ATOM      4  C   UNL     1       2.034   4.516  19.608  0.00  0.00    +0.000 A 
ATOM      5  N   UNL     1       2.393   3.294  19.068  0.00  0.00    +0.000 N 
ATOM      6  C   UNL     1       1.797   2.042  19.493  0.00  0.00    +0.000 C 
ATOM      7  C   UNL     1       3.367   3.246  18.083  0.00  0.00    +0.000 A 
ATOM      8  O   UNL     1       3.781   2.192  17.600  0.00  0.00    +0.000 OA
ATOM      9  C   UNL     1       3.902   4.537  17.575  0.00  0.00    +0.000 A 
ATOM     10  C   UNL     1       4.874   4.491  16.564  0.00  0.00    +0.000 A 
ATOM     11  C   UNL     1       5.345   5.670  15.999  0.00  0.00    +0.000 A 
ATOM     12  C   UNL     1       4.815   6.889  16.415  0.00  0.00    +0.000 A 
ATOM     13  C   UNL     1       3.859   6.945  17.437  0.00  0.00    +0.000 A 
ATOM     14  C   UNL     1       3.428   5.772  18.057  0.00  0.00    +0.000 A 
ATOM     15  N   UNL     1       2.531   5.728  19.151  0.00  0.00    +0.000 N 
ENDROOT
BRANCH   1  16
ATOM     16  C   UNL     1       2.154   8.156  20.034  0.00  0.00    +0.000 C 
BRANCH  16  17
ATOM     17  O   UNL     1       1.174   8.777  19.172  0.00  0.00    +0.000 OA
BRANCH  17  18
ATOM     18  C   UNL     1       0.629   9.924  19.637  0.00  0.00    +0.000 C 
ATOM     19  O   UNL     1       1.070  10.590  20.558  0.00  0.00    +0.000 OA
BRANCH  18  24
ATOM     20  C   UNL     1      -4.196  11.221  16.626  0.00  0.00    +0.000 C 
ATOM     21  C   UNL     1      -2.956  10.912  17.418  0.00  0.00    +0.000 A 
ATOM     22  C   UNL     1      -2.032   9.978  16.941  0.00  0.00    +0.000 A 
ATOM     23  C   UNL     1      -0.867   9.694  17.664  0.00  0.00    +0.000 A 
ATOM     24  C   UNL     1      -0.612  10.324  18.892  0.00  0.00    +0.000 A 
ATOM     25  C   UNL     1      -1.525  11.269  19.373  0.00  0.00    +0.000 A 
ATOM     26  C   UNL     1      -2.670  11.567  18.624  0.00  0.00    +0.000 A 
BRANCH  26  27
ATOM     27  O   UNL     1      -3.543  12.529  19.055  0.00  0.00    +0.000 OA
ATOM     28  H   UNL     1      -4.361  12.470  18.534  0.00  0.00    +0.000 HD
ENDBRANCH  26  27
ENDBRANCH  18  24
ENDBRANCH  17  18
ENDBRANCH  16  17
ENDBRANCH   1  16
TORSDOF 5
ENDMDL
MODEL 5
REMARK VINA RESULT:      -8.1      2.666      8.410
REMARK  Name = 
REMARK  7 active torsions:
REMARK  status: ('A' for Active; 'I' for Inactive)
REMARK    1  A    between atoms: C_1  and  C_2
REMARK    2  A    between atoms: C_5  and  C_6
REMARK    3  A    between atoms: C_6  and  O_8
REMARK    4  A    between atoms: O_8  and  C_9
REMARK    5  A    between atoms: C_9  and  C_10
REMARK    6  A    between atoms: N_14  and  C_15
REMARK    7  A    between atoms: C_26  and  O_27
REMARK                            x       y       z     vdW  Elec       q    Type
REMARK                         _______ _______ _______ _____ _____    ______ ____
ROOT
ATOM      1  C   UNL     1       0.358  10.065  19.026  0.00  0.00    +0.000 A 
ATOM      2  N   UNL     1       0.961  10.417  20.150  0.00  0.00    +0.000 NA
ATOM      3  N   UNL     1       0.161  11.288  20.829  0.00  0.00    +0.000 NA
ATOM      4  C   UNL     1      -0.938  11.454  20.134  0.00  0.00    +0.000 A 
ATOM      5  N   UNL     1      -2.029  12.229  20.484  0.00  0.00    +0.000 N 
ATOM      6  C   UNL     1      -2.060  13.045  21.682  0.00  0.00    +0.000 C 
ATOM      7  C   UNL     1      -3.150  12.232  19.669  0.00  0.00    +0.000 A 
ATOM      8  O   UNL     1      -4.179  12.848  19.946  0.00  0.00    +0.000 OA
ATOM      9  C   UNL     1      -3.077  11.478  18.389  0.00  0.00    +0.000 A 
ATOM     10  C   UNL     1      -4.204  11.496  17.553  0.00  0.00    +0.000 A 
ATOM     11  C   UNL     1      -4.157  10.876  16.310  0.00  0.00    +0.000 A 
ATOM     12  C   UNL     1      -2.974  10.276  15.888  0.00  0.00    +0.000 A 
ATOM     13  C   UNL     1      -1.850  10.237  16.723  0.00  0.00    +0.000 A 
ATOM     14  C   UNL     1      -1.908  10.798  17.999  0.00  0.00    +0.000 A 
ATOM     15  N   UNL     1      -0.859  10.738  18.947  0.00  0.00    +0.000 N 
ENDROOT
BRANCH   1  16
ATOM     16  C   UNL     1       0.980   9.105  18.073  0.00  0.00    +0.000 C 
BRANCH  16  17
ATOM     17  O   UNL     1       2.312   8.781  18.534  0.00  0.00    +0.000 OA
BRANCH  17  18
ATOM     18  C   UNL     1       2.872   7.682  17.980  0.00  0.00    +0.000 C 
ATOM     19  O   UNL     1       3.657   7.687  17.048  0.00  0.00    +0.000 OA
BRANCH  18  24
ATOM     20  C   UNL     1       1.050   2.884  20.753  0.00  0.00    +0.000 C 
ATOM     21  C   UNL     1       1.526   4.104  20.014  0.00  0.00    +0.000 A 
ATOM     22  C   UNL     1       1.866   5.263  20.717  0.00  0.00    +0.000 A 
ATOM     23  C   UNL     1       2.324   6.399  20.039  0.00  0.00    +0.000 A 
ATOM     24  C   UNL     1       2.431   6.407  18.640  0.00  0.00    +0.000 A 
ATOM     25  C   UNL     1       2.103   5.248  17.927  0.00  0.00    +0.000 A 
ATOM     26  C   UNL     1       1.677   4.108  18.620  0.00  0.00    +0.000 A 
BRANCH  26  27
ATOM     27  O   UNL     1       1.406   2.951  17.941  0.00  0.00    +0.000 OA
ATOM     28  H   UNL     1       2.054   2.846  17.225  0.00  0.00    +0.000 HD
ENDBRANCH  26  27
ENDBRANCH  18  24
ENDBRANCH  17  18
ENDBRANCH  16  17
ENDBRANCH   1  16
TORSDOF 5
ENDMDL
MODEL 6
REMARK VINA RESULT:      -8.0      1.629      3.287
REMARK  Name = 
REMARK  7 active torsions:
REMARK  status: ('A' for Active; 'I' for Inactive)
REMARK    1  A    between atoms: C_1  and  C_2
REMARK    2  A    between atoms: C_5  and  C_6
REMARK    3  A    between atoms: C_6  and  O_8
REMARK    4  A    between atoms: O_8  and  C_9
REMARK    5  A    between atoms: C_9  and  C_10
REMARK    6  A    between atoms: N_14  and  C_15
REMARK    7  A    between atoms: C_26  and  O_27
REMARK                            x       y       z     vdW  Elec       q    Type
REMARK                         _______ _______ _______ _____ _____    ______ ____
ROOT
ATOM      1  C   UNL     1       2.127   7.205  19.532  0.00  0.00    +0.000 A 
ATOM      2  N   UNL     1       1.369   6.853  20.558  0.00  0.00    +0.000 NA
ATOM      3  N   UNL     1       1.674   5.573  20.916  0.00  0.00    +0.000 NA
ATOM      4  C   UNL     1       2.630   5.149  20.125  0.00  0.00    +0.000 A 
ATOM      5  N   UNL     1       3.257   3.916  20.173  0.00  0.00    +0.000 N 
ATOM      6  C   UNL     1       2.865   2.872  21.100  0.00  0.00    +0.000 C 
ATOM      7  C   UNL     1       4.310   3.656  19.311  0.00  0.00    +0.000 A 
ATOM      8  O   UNL     1       4.954   2.607  19.337  0.00  0.00    +0.000 OA
ATOM      9  C   UNL     1       4.642   4.687  18.292  0.00  0.00    +0.000 A 
ATOM     10  C   UNL     1       5.696   4.417  17.405  0.00  0.00    +0.000 A 
ATOM     11  C   UNL     1       5.991   5.312  16.384  0.00  0.00    +0.000 A 
ATOM     12  C   UNL     1       5.209   6.453  16.225  0.00  0.00    +0.000 A 
ATOM     13  C   UNL     1       4.168   6.741  17.118  0.00  0.00    +0.000 A 
ATOM     14  C   UNL     1       3.906   5.883  18.186  0.00  0.00    +0.000 A 
ATOM     15  N   UNL     1       2.935   6.125  19.187  0.00  0.00    +0.000 N 
ENDROOT
BRANCH   1  16
ATOM     16  C   UNL     1       2.035   8.561  18.922  0.00  0.00    +0.000 C 
BRANCH  16  17
ATOM     17  O   UNL     1       0.942   9.280  19.536  0.00  0.00    +0.000 OA
BRANCH  17  18
ATOM     18  C   UNL     1       0.690  10.508  19.028  0.00  0.00    +0.000 C 
ATOM     19  O   UNL     1       1.495  11.421  18.964  0.00  0.00    +0.000 OA
BRANCH  18  24
ATOM     20  C   UNL     1      -4.787  11.336  17.200  0.00  0.00    +0.000 C 
ATOM     21  C   UNL     1      -3.373  11.098  17.655  0.00  0.00    +0.000 A 
ATOM     22  C   UNL     1      -2.890  11.725  18.807  0.00  0.00    +0.000 A 
ATOM     23  C   UNL     1      -1.581  11.498  19.246  0.00  0.00    +0.000 A 
ATOM     24  C   UNL     1      -0.718  10.655  18.529  0.00  0.00    +0.000 A 
ATOM     25  C   UNL     1      -1.195  10.014  17.380  0.00  0.00    +0.000 A 
ATOM     26  C   UNL     1      -2.518  10.224  16.969  0.00  0.00    +0.000 A 
BRANCH  26  27
ATOM     27  O   UNL     1      -3.014   9.561  15.881  0.00  0.00    +0.000 OA
ATOM     28  H   UNL     1      -3.897   9.218  16.095  0.00  0.00    +0.000 HD
ENDBRANCH  26  27
ENDBRANCH  18  24
ENDBRANCH  17  18
ENDBRANCH  16  17
ENDBRANCH   1  16
TORSDOF 5
ENDMDL
MODEL 7
REMARK VINA RESULT:      -8.0      2.351      3.941
REMARK  Name = 
REMARK  7 active torsions:
REMARK  status: ('A' for Active; 'I' for Inactive)
REMARK    1  A    between atoms: C_1  and  C_2
REMARK    2  A    between atoms: C_5  and  C_6
REMARK    3  A    between atoms: C_6  and  O_8
REMARK    4  A    between atoms: O_8  and  C_9
REMARK    5  A    between atoms: C_9  and  C_10
REMARK    6  A    between atoms: N_14  and  C_15
REMARK    7  A    between atoms: C_26  and  O_27
REMARK                            x       y       z     vdW  Elec       q    Type
REMARK                         _______ _______ _______ _____ _____    ______ ____
ROOT
ATOM      1  C   UNL     1       2.441   7.365  18.972  0.00  0.00    +0.000 A 
ATOM      2  N   UNL     1       1.628   7.212  20.006  0.00  0.00    +0.000 NA
ATOM      3  N   UNL     1       1.823   5.974  20.544  0.00  0.00    +0.000 NA
ATOM      4  C   UNL     1       2.765   5.377  19.855  0.00  0.00    +0.000 A 
ATOM      5  N   UNL     1       3.293   4.121  20.092  0.00  0.00    +0.000 N 
ATOM      6  C   UNL     1       2.795   3.244  21.133  0.00  0.00    +0.000 C 
ATOM      7  C   UNL     1       4.347   3.669  19.314  0.00  0.00    +0.000 A 
ATOM      8  O   UNL     1       4.907   2.590  19.505  0.00  0.00    +0.000 OA
ATOM      9  C   UNL     1       4.788   4.525  18.180  0.00  0.00    +0.000 A 
ATOM     10  C   UNL     1       5.842   4.060  17.380  0.00  0.00    +0.000 A 
ATOM     11  C   UNL     1       6.236   4.783  16.260  0.00  0.00    +0.000 A 
ATOM     12  C   UNL     1       5.549   5.946  15.920  0.00  0.00    +0.000 A 
ATOM     13  C   UNL     1       4.508   6.428  16.724  0.00  0.00    +0.000 A 
ATOM     14  C   UNL     1       4.150   5.745  17.886  0.00  0.00    +0.000 A 
ATOM     15  N   UNL     1       3.172   6.191  18.807  0.00  0.00    +0.000 N 
ENDROOT
BRANCH   1  16
ATOM     16  C   UNL     1       2.472   8.628  18.184  0.00  0.00    +0.000 C 
BRANCH  16  17
ATOM     17  O   UNL     1       1.226   9.334  18.377  0.00  0.00    +0.000 OA
BRANCH  17  18
ATOM     18  C   UNL     1       1.338  10.619  18.784  0.00  0.00    +0.000 C 
ATOM     19  O   UNL     1       2.057  11.459  18.271  0.00  0.00    +0.000 OA
BRANCH  18  24
ATOM     20  C   UNL     1      -2.267  11.904  23.186  0.00  0.00    +0.000 C 
ATOM     21  C   UNL     1      -1.318  11.562  22.071  0.00  0.00    +0.000 A 
ATOM     22  C   UNL     1      -1.466  12.157  20.815  0.00  0.00    +0.000 A 
ATOM     23  C   UNL     1      -0.579  11.856  19.775  0.00  0.00    +0.000 A 
ATOM     24  C   UNL     1       0.464  10.936  19.963  0.00  0.00    +0.000 A 
ATOM     25  C   UNL     1       0.628  10.342  21.220  0.00  0.00    +0.000 A 
ATOM     26  C   UNL     1      -0.247  10.677  22.261  0.00  0.00    +0.000 A 
BRANCH  26  27
ATOM     27  O   UNL     1      -0.065  10.148  23.510  0.00  0.00    +0.000 OA
ATOM     28  H   UNL     1      -0.900   9.751  23.810  0.00  0.00    +0.000 HD
ENDBRANCH  26  27
ENDBRANCH  18  24
ENDBRANCH  17  18
ENDBRANCH  16  17
ENDBRANCH   1  16
TORSDOF 5
ENDMDL
MODEL 8
REMARK VINA RESULT:      -8.0      2.983      8.494
REMARK  Name = 
REMARK  7 active torsions:
REMARK  status: ('A' for Active; 'I' for Inactive)
REMARK    1  A    between atoms: C_1  and  C_2
REMARK    2  A    between atoms: C_5  and  C_6
REMARK    3  A    between atoms: C_6  and  O_8
REMARK    4  A    between atoms: O_8  and  C_9
REMARK    5  A    between atoms: C_9  and  C_10
REMARK    6  A    between atoms: N_14  and  C_15
REMARK    7  A    between atoms: C_26  and  O_27
REMARK                            x       y       z     vdW  Elec       q    Type
REMARK                         _______ _______ _______ _____ _____    ______ ____
ROOT
ATOM      1  C   UNL     1       0.511   8.966  21.251  0.00  0.00    +0.000 A 
ATOM      2  N   UNL     1       0.890   9.211  22.496  0.00  0.00    +0.000 NA
ATOM      3  N   UNL     1       0.383  10.416  22.884  0.00  0.00    +0.000 NA
ATOM      4  C   UNL     1      -0.321  10.899  21.888  0.00  0.00    +0.000 A 
ATOM      5  N   UNL     1      -1.036  12.084  21.878  0.00  0.00    +0.000 N 
ATOM      6  C   UNL     1      -1.033  13.011  22.992  0.00  0.00    +0.000 C 
ATOM      7  C   UNL     1      -1.796  12.409  20.766  0.00  0.00    +0.000 A 
ATOM      8  O   UNL     1      -2.504  13.414  20.709  0.00  0.00    +0.000 OA
ATOM      9  C   UNL     1      -1.715  11.509  19.585  0.00  0.00    +0.000 A 
ATOM     10  C   UNL     1      -2.469  11.848  18.450  0.00  0.00    +0.000 A 
ATOM     11  C   UNL     1      -2.363  11.085  17.293  0.00  0.00    +0.000 A 
ATOM     12  C   UNL     1      -1.476  10.013  17.258  0.00  0.00    +0.000 A 
ATOM     13  C   UNL     1      -0.734   9.656  18.391  0.00  0.00    +0.000 A 
ATOM     14  C   UNL     1      -0.882  10.374  19.578  0.00  0.00    +0.000 A 
ATOM     15  N   UNL     1      -0.243  10.045  20.797  0.00  0.00    +0.000 N 
ENDROOT
BRANCH   1  16
ATOM     16  C   UNL     1       0.898   7.710  20.551  0.00  0.00    +0.000 C 
BRANCH  16  17
ATOM     17  O   UNL     1       2.267   7.825  20.100  0.00  0.00    +0.000 OA
BRANCH  17  18
ATOM     18  C   UNL     1       2.494   7.457  18.819  0.00  0.00    +0.000 C 
ATOM     19  O   UNL     1       2.468   8.205  17.857  0.00  0.00    +0.000 OA
BRANCH  18  24
ATOM     20  C   UNL     1       3.502   1.764  18.042  0.00  0.00    +0.000 C 
ATOM     21  C   UNL     1       3.264   3.232  18.262  0.00  0.00    +0.000 A 
ATOM     22  C   UNL     1       2.065   3.820  17.849  0.00  0.00    +0.000 A 
ATOM     23  C   UNL     1       1.828   5.182  18.063  0.00  0.00    +0.000 A 
ATOM     24  C   UNL     1       2.796   5.993  18.678  0.00  0.00    +0.000 A 
ATOM     25  C   UNL     1       3.995   5.412  19.106  0.00  0.00    +0.000 A 
ATOM     26  C   UNL     1       4.206   4.040  18.914  0.00  0.00    +0.000 A 
BRANCH  26  27
ATOM     27  O   UNL     1       5.349   3.449  19.378  0.00  0.00    +0.000 OA
ATOM     28  H   UNL     1       6.113   3.991  19.121  0.00  0.00    +0.000 HD
ENDBRANCH  26  27
ENDBRANCH  18  24
ENDBRANCH  17  18
ENDBRANCH  16  17
ENDBRANCH   1  16
TORSDOF 5
ENDMDL
MODEL 9
REMARK VINA RESULT:      -8.0      3.112      7.937
REMARK  Name = 
REMARK  7 active torsions:
REMARK  status: ('A' for Active; 'I' for Inactive)
REMARK    1  A    between atoms: C_1  and  C_2
REMARK    2  A    between atoms: C_5  and  C_6
REMARK    3  A    between atoms: C_6  and  O_8
REMARK    4  A    between atoms: O_8  and  C_9
REMARK    5  A    between atoms: C_9  and  C_10
REMARK    6  A    between atoms: N_14  and  C_15
REMARK    7  A    between atoms: C_26  and  O_27
REMARK                            x       y       z     vdW  Elec       q    Type
REMARK                         _______ _______ _______ _____ _____    ______ ____
ROOT
ATOM      1  C   UNL     1       1.930   8.464  18.611  0.00  0.00    +0.000 A 
ATOM      2  N   UNL     1       2.493   8.964  17.523  0.00  0.00    +0.000 NA
ATOM      3  N   UNL     1       2.331  10.318  17.522  0.00  0.00    +0.000 NA
ATOM      4  C   UNL     1       1.688  10.649  18.616  0.00  0.00    +0.000 A 
ATOM      5  N   UNL     1       1.353  11.928  19.023  0.00  0.00    +0.000 N 
ATOM      6  C   UNL     1       1.620  13.104  18.218  0.00  0.00    +0.000 C 
ATOM      7  C   UNL     1       0.741  12.111  20.253  0.00  0.00    +0.000 A 
ATOM      8  O   UNL     1       0.470  13.222  20.708  0.00  0.00    +0.000 OA
ATOM      9  C   UNL     1       0.374  10.898  21.031  0.00  0.00    +0.000 A 
ATOM     10  C   UNL     1      -0.263  11.081  22.268  0.00  0.00    +0.000 A 
ATOM     11  C   UNL     1      -0.700   9.979  22.994  0.00  0.00    +0.000 A 
ATOM     12  C   UNL     1      -0.537   8.701  22.465  0.00  0.00    +0.000 A 
ATOM     13  C   UNL     1       0.115   8.509  21.240  0.00  0.00    +0.000 A 
ATOM     14  C   UNL     1       0.616   9.603  20.535  0.00  0.00    +0.000 A 
ATOM     15  N   UNL     1       1.360   9.508  19.335  0.00  0.00    +0.000 N 
ENDROOT
BRANCH   1  16
ATOM     16  C   UNL     1       1.957   7.004  18.903  0.00  0.00    +0.000 C 
BRANCH  16  17
ATOM     17  O   UNL     1       3.214   6.673  19.537  0.00  0.00    +0.000 OA
BRANCH  17  18
ATOM     18  C   UNL     1       3.656   5.411  19.336  0.00  0.00    +0.000 C 
ATOM     19  O   UNL     1       3.402   4.456  20.049  0.00  0.00    +0.000 OA
BRANCH  18  24
ATOM     20  C   UNL     1       6.771   4.827  14.439  0.00  0.00    +0.000 C 
ATOM     21  C   UNL     1       5.991   4.991  15.714  0.00  0.00    +0.000 A 
ATOM     22  C   UNL     1       4.863   4.202  15.955  0.00  0.00    +0.000 A 
ATOM     23  C   UNL     1       4.139   4.338  17.145  0.00  0.00    +0.000 A 
ATOM     24  C   UNL     1       4.516   5.282  18.113  0.00  0.00    +0.000 A 
ATOM     25  C   UNL     1       5.651   6.070  17.886  0.00  0.00    +0.000 A 
ATOM     26  C   UNL     1       6.385   5.901  16.705  0.00  0.00    +0.000 A 
BRANCH  26  27
ATOM     27  O   UNL     1       7.528   6.625  16.496  0.00  0.00    +0.000 OA
ATOM     28  H   UNL     1       7.750   6.599  15.551  0.00  0.00    +0.000 HD
ENDBRANCH  26  27
ENDBRANCH  18  24
ENDBRANCH  17  18
ENDBRANCH  16  17
ENDBRANCH   1  16
TORSDOF 5
ENDMDL
