MODEL 1
REMARK VINA RESULT:      -8.4      0.000      0.000
REMARK  Name = 
REMARK  3 active torsions:
REMARK  status: ('A' for Active; 'I' for Inactive)
REMARK    1  A    between atoms: C_2  and  C_4
REMARK    2  A    between atoms: C_9  and  C_10
REMARK    3  A    between atoms: C_15  and  C_16
REMARK                            x       y       z     vdW  Elec       q    Type
REMARK                         _______ _______ _______ _____ _____    ______ ____
ROOT
ATOM      1  C   UNL     1       5.175   5.520  18.916  0.00  0.00    +0.000 C 
ATOM      2  O   UNL     1       5.773   5.177  19.938  0.00  0.00    +0.000 OA
ATOM      3  N   UNL     1       3.988   6.268  19.050  0.00  0.00    +0.000 N 
ATOM      4  C   UNL     1       3.255   7.065  18.057  0.00  0.00    +0.000 C 
ATOM      5  C   UNL     1       2.433   8.116  18.831  0.00  0.00    +0.000 C 
ATOM      6  C   UNL     1       1.816   7.808  19.995  0.00  0.00    +0.000 C 
ATOM      7  C   UNL     1       2.046   6.446  20.607  0.00  0.00    +0.000 C 
ATOM      8  C   UNL     1       2.946   5.522  19.746  0.00  0.00    +0.000 C 
ATOM      9  C   UNL     1       2.191   4.944  18.535  0.00  0.00    +0.000 C 
ATOM     10  C   UNL     1       2.231   6.070  17.482  0.00  0.00    +0.000 C 
ENDROOT
BRANCH   1  16
ATOM     11  C   UNL     1       6.731   5.875  16.945  0.00  0.00    +0.000 A 
ATOM     12  N   UNL     1       7.124   5.646  15.642  0.00  0.00    +0.000 NA
ATOM     13  C   UNL     1       6.589   4.559  15.062  0.00  0.00    +0.000 A 
ATOM     14  C   UNL     1       5.707   3.728  15.739  0.00  0.00    +0.000 A 
ATOM     15  N   UNL     1       5.269   3.962  17.007  0.00  0.00    +0.000 NA
ATOM     16  C   UNL     1       5.783   5.074  17.612  0.00  0.00    +0.000 A 
BRANCH  11  18
ATOM     17  N   UNL     1       8.148   6.578  18.780  0.00  0.00    +0.000 N 
ATOM     18  C   UNL     1       7.551   6.943  17.593  0.00  0.00    +0.000 C 
ATOM     19  O   UNL     1       7.574   8.099  17.191  0.00  0.00    +0.000 OA
ATOM     20  H   UNL     1       8.553   7.310  19.350  0.00  0.00    +0.000 HD
ATOM     21  H   UNL     1       7.884   5.701  19.220  0.00  0.00    +0.000 HD
ENDBRANCH  11  18
ENDBRANCH   1  16
BRANCH   6  22
ATOM     22  C   UNL     1       0.888   8.705  20.716  0.00  0.00    +0.000 A 
ATOM     23  C   UNL     1       0.651   8.548  22.092  0.00  0.00    +0.000 A 
ATOM     24  C   UNL     1      -0.165   9.449  22.788  0.00  0.00    +0.000 A 
ATOM     25  C   UNL     1      -0.753  10.518  22.116  0.00  0.00    +0.000 A 
ATOM     26  C   UNL     1      -0.526  10.688  20.753  0.00  0.00    +0.000 A 
ATOM     27  C   UNL     1       0.291   9.785  20.056  0.00  0.00    +0.000 A 
ENDBRANCH   6  22
TORSDOF 3
ENDMDL
MODEL 2
REMARK VINA RESULT:      -8.1      0.657      1.167
REMARK  Name = 
REMARK  3 active torsions:
REMARK  status: ('A' for Active; 'I' for Inactive)
REMARK    1  A    between atoms: C_2  and  C_4
REMARK    2  A    between atoms: C_9  and  C_10
REMARK    3  A    between atoms: C_15  and  C_16
REMARK                            x       y       z     vdW  Elec       q    Type
REMARK                         _______ _______ _______ _____ _____    ______ ____
ROOT
ATOM      1  C   UNL     1       5.096   5.360  18.935  0.00  0.00    +0.000 C 
ATOM      2  O   UNL     1       5.628   4.918  19.956  0.00  0.00    +0.000 OA
ATOM      3  N   UNL     1       3.961   6.184  19.069  0.00  0.00    +0.000 N 
ATOM      4  C   UNL     1       3.327   7.086  18.098  0.00  0.00    +0.000 C 
ATOM      5  C   UNL     1       2.551   8.150  18.902  0.00  0.00    +0.000 C 
ATOM      6  C   UNL     1       1.869   7.825  20.023  0.00  0.00    +0.000 C 
ATOM      7  C   UNL     1       1.976   6.419  20.564  0.00  0.00    +0.000 C 
ATOM      8  C   UNL     1       2.842   5.480  19.684  0.00  0.00    +0.000 C 
ATOM      9  C   UNL     1       2.097   5.026  18.416  0.00  0.00    +0.000 C 
ATOM     10  C   UNL     1       2.258   6.202  17.431  0.00  0.00    +0.000 C 
ENDROOT
BRANCH   1  16
ATOM     11  C   UNL     1       6.706   5.741  17.013  0.00  0.00    +0.000 A 
ATOM     12  N   UNL     1       7.124   5.546  15.712  0.00  0.00    +0.000 NA
ATOM     13  C   UNL     1       6.575   4.494  15.082  0.00  0.00    +0.000 A 
ATOM     14  C   UNL     1       5.656   3.664  15.711  0.00  0.00    +0.000 A 
ATOM     15  N   UNL     1       5.195   3.866  16.976  0.00  0.00    +0.000 NA
ATOM     16  C   UNL     1       5.723   4.943  17.631  0.00  0.00    +0.000 A 
BRANCH  11  18
ATOM     17  N   UNL     1       7.643   7.974  17.067  0.00  0.00    +0.000 N 
ATOM     18  C   UNL     1       7.539   6.764  17.716  0.00  0.00    +0.000 C 
ATOM     19  O   UNL     1       8.204   6.509  18.710  0.00  0.00    +0.000 OA
ATOM     20  H   UNL     1       8.339   8.630  17.398  0.00  0.00    +0.000 HD
ATOM     21  H   UNL     1       7.304   8.058  16.112  0.00  0.00    +0.000 HD
ENDBRANCH  11  18
ENDBRANCH   1  16
BRANCH   6  22
ATOM     22  C   UNL     1       0.978   8.747  20.761  0.00  0.00    +0.000 A 
ATOM     23  C   UNL     1       0.316   9.796  20.102  0.00  0.00    +0.000 A 
ATOM     24  C   UNL     1      -0.590  10.616  20.787  0.00  0.00    +0.000 A 
ATOM     25  C   UNL     1      -0.844  10.396  22.139  0.00  0.00    +0.000 A 
ATOM     26  C   UNL     1      -0.197   9.358  22.805  0.00  0.00    +0.000 A 
ATOM     27  C   UNL     1       0.710   8.537  22.118  0.00  0.00    +0.000 A 
ENDBRANCH   6  22
TORSDOF 3
ENDMDL
MODEL 3
REMARK VINA RESULT:      -7.6      2.603      7.908
REMARK  Name = 
REMARK  3 active torsions:
REMARK  status: ('A' for Active; 'I' for Inactive)
REMARK    1  A    between atoms: C_2  and  C_4
REMARK    2  A    between atoms: C_9  and  C_10
REMARK    3  A    between atoms: C_15  and  C_16
REMARK                            x       y       z     vdW  Elec       q    Type
REMARK                         _______ _______ _______ _____ _____    ______ ____
ROOT
ATOM      1  C   UNL     1       2.370   5.399  18.102  0.00  0.00    +0.000 C 
ATOM      2  O   UNL     1       1.485   4.571  17.878  0.00  0.00    +0.000 OA
ATOM      3  N   UNL     1       3.528   5.380  17.300  0.00  0.00    +0.000 N 
ATOM      4  C   UNL     1       4.570   6.400  17.119  0.00  0.00    +0.000 C 
ATOM      5  C   UNL     1       5.225   6.145  15.745  0.00  0.00    +0.000 C 
ATOM      6  C   UNL     1       5.466   4.890  15.304  0.00  0.00    +0.000 C 
ATOM      7  C   UNL     1       4.966   3.719  16.116  0.00  0.00    +0.000 C 
ATOM      8  C   UNL     1       4.271   4.133  17.439  0.00  0.00    +0.000 C 
ATOM      9  C   UNL     1       5.285   4.558  18.517  0.00  0.00    +0.000 C 
ATOM     10  C   UNL     1       5.631   6.020  18.167  0.00  0.00    +0.000 C 
ENDROOT
BRANCH   1  16
ATOM     11  C   UNL     1       1.605   5.878  20.472  0.00  0.00    +0.000 A 
ATOM     12  N   UNL     1       1.117   6.718  21.452  0.00  0.00    +0.000 NA
ATOM     13  C   UNL     1       1.218   8.031  21.188  0.00  0.00    +0.000 A 
ATOM     14  C   UNL     1       1.782   8.498  20.009  0.00  0.00    +0.000 A 
ATOM     15  N   UNL     1       2.226   7.687  19.009  0.00  0.00    +0.000 NA
ATOM     16  C   UNL     1       2.115   6.346  19.245  0.00  0.00    +0.000 A 
BRANCH  11  18
ATOM     17  N   UNL     1       0.656   3.650  20.523  0.00  0.00    +0.000 N 
ATOM     18  C   UNL     1       1.686   4.462  20.944  0.00  0.00    +0.000 C 
ATOM     19  O   UNL     1       2.511   4.081  21.763  0.00  0.00    +0.000 OA
ATOM     20  H   UNL     1       0.559   2.744  20.963  0.00  0.00    +0.000 HD
ATOM     21  H   UNL     1      -0.154   4.066  20.073  0.00  0.00    +0.000 HD
ENDBRANCH  11  18
ENDBRANCH   1  16
BRANCH   6  22
ATOM     22  C   UNL     1       6.225   4.563  14.077  0.00  0.00    +0.000 A 
ATOM     23  C   UNL     1       5.789   3.553  13.203  0.00  0.00    +0.000 A 
ATOM     24  C   UNL     1       6.465   3.302  12.002  0.00  0.00    +0.000 A 
ATOM     25  C   UNL     1       7.584   4.057  11.662  0.00  0.00    +0.000 A 
ATOM     26  C   UNL     1       8.028   5.062  12.517  0.00  0.00    +0.000 A 
ATOM     27  C   UNL     1       7.350   5.314  13.719  0.00  0.00    +0.000 A 
ENDBRANCH   6  22
TORSDOF 3
ENDMDL
MODEL 4
REMARK VINA RESULT:      -7.5      1.411      2.574
REMARK  Name = 
REMARK  3 active torsions:
REMARK  status: ('A' for Active; 'I' for Inactive)
REMARK    1  A    between atoms: C_2  and  C_4
REMARK    2  A    between atoms: C_9  and  C_10
REMARK    3  A    between atoms: C_15  and  C_16
REMARK                            x       y       z     vdW  Elec       q    Type
REMARK                         _______ _______ _______ _____ _____    ______ ____
ROOT
ATOM      1  C   UNL     1       4.747   5.668  18.716  0.00  0.00    +0.000 C 
ATOM      2  O   UNL     1       5.495   5.373  19.650  0.00  0.00    +0.000 OA
ATOM      3  N   UNL     1       3.606   6.449  18.988  0.00  0.00    +0.000 N 
ATOM      4  C   UNL     1       2.736   7.202  18.074  0.00  0.00    +0.000 C 
ATOM      5  C   UNL     1       2.061   8.316  18.900  0.00  0.00    +0.000 C 
ATOM      6  C   UNL     1       1.632   8.092  20.164  0.00  0.00    +0.000 C 
ATOM      7  C   UNL     1       1.938   6.765  20.817  0.00  0.00    +0.000 C 
ATOM      8  C   UNL     1       2.678   5.771  19.885  0.00  0.00    +0.000 C 
ATOM      9  C   UNL     1       1.733   5.138  18.847  0.00  0.00    +0.000 C 
ATOM     10  C   UNL     1       1.620   6.198  17.731  0.00  0.00    +0.000 C 
ENDROOT
BRANCH   1  16
ATOM     11  C   UNL     1       4.953   3.771  17.045  0.00  0.00    +0.000 A 
ATOM     12  N   UNL     1       5.517   3.177  15.935  0.00  0.00    +0.000 NA
ATOM     13  C   UNL     1       6.208   4.000  15.129  0.00  0.00    +0.000 A 
ATOM     14  C   UNL     1       6.333   5.355  15.403  0.00  0.00    +0.000 A 
ATOM     15  N   UNL     1       5.825   5.953  16.517  0.00  0.00    +0.000 NA
ATOM     16  C   UNL     1       5.135   5.131  17.363  0.00  0.00    +0.000 A 
BRANCH  11  18
ATOM     17  N   UNL     1       4.476   2.318  18.924  0.00  0.00    +0.000 N 
ATOM     18  C   UNL     1       4.004   2.852  17.745  0.00  0.00    +0.000 C 
ATOM     19  O   UNL     1       2.953   2.476  17.245  0.00  0.00    +0.000 OA
ATOM     20  H   UNL     1       3.958   1.552  19.336  0.00  0.00    +0.000 HD
ATOM     21  H   UNL     1       5.455   2.436  19.167  0.00  0.00    +0.000 HD
ENDBRANCH  11  18
ENDBRANCH   1  16
BRANCH   6  22
ATOM     22  C   UNL     1       0.841   9.052  20.964  0.00  0.00    +0.000 A 
ATOM     23  C   UNL     1       0.195  10.141  20.357  0.00  0.00    +0.000 A 
ATOM     24  C   UNL     1      -0.620  11.001  21.105  0.00  0.00    +0.000 A 
ATOM     25  C   UNL     1      -0.797  10.781  22.469  0.00  0.00    +0.000 A 
ATOM     26  C   UNL     1      -0.164   9.704  23.085  0.00  0.00    +0.000 A 
ATOM     27  C   UNL     1       0.651   8.844  22.335  0.00  0.00    +0.000 A 
ENDBRANCH   6  22
TORSDOF 3
ENDMDL
MODEL 5
REMARK VINA RESULT:      -7.2      6.755      9.820
REMARK  Name = 
REMARK  3 active torsions:
REMARK  status: ('A' for Active; 'I' for Inactive)
REMARK    1  A    between atoms: C_2  and  C_4
REMARK    2  A    between atoms: C_9  and  C_10
REMARK    3  A    between atoms: C_15  and  C_16
REMARK                            x       y       z     vdW  Elec       q    Type
REMARK                         _______ _______ _______ _____ _____    ______ ____
ROOT
ATOM      1  C   UNL     1       9.361  13.779  19.842  0.00  0.00    +0.000 C 
ATOM      2  O   UNL     1       8.817  13.920  20.940  0.00  0.00    +0.000 OA
ATOM      3  N   UNL     1       9.315  12.513  19.225  0.00  0.00    +0.000 N 
ATOM      4  C   UNL     1       9.578  12.131  17.832  0.00  0.00    +0.000 C 
ATOM      5  C   UNL     1       8.821  10.812  17.569  0.00  0.00    +0.000 C 
ATOM      6  C   UNL     1       8.758   9.839  18.506  0.00  0.00    +0.000 C 
ATOM      7  C   UNL     1       9.333  10.104  19.877  0.00  0.00    +0.000 C 
ATOM      8  C   UNL     1      10.005  11.496  20.010  0.00  0.00    +0.000 C 
ATOM      9  C   UNL     1      11.385  11.539  19.330  0.00  0.00    +0.000 C 
ATOM     10  C   UNL     1      11.073  11.762  17.836  0.00  0.00    +0.000 C 
ENDROOT
BRANCH   1  16
ATOM     11  C   UNL     1       9.401  15.815  18.330  0.00  0.00    +0.000 A 
ATOM     12  N   UNL     1      10.062  16.782  17.600  0.00  0.00    +0.000 NA
ATOM     13  C   UNL     1      11.361  16.945  17.904  0.00  0.00    +0.000 A 
ATOM     14  C   UNL     1      11.981  16.190  18.889  0.00  0.00    +0.000 A 
ATOM     15  N   UNL     1      11.361  15.198  19.587  0.00  0.00    +0.000 NA
ATOM     16  C   UNL     1      10.044  14.999  19.282  0.00  0.00    +0.000 A 
BRANCH  11  18
ATOM     17  N   UNL     1       7.426  14.907  17.262  0.00  0.00    +0.000 N 
ATOM     18  C   UNL     1       7.923  15.869  18.112  0.00  0.00    +0.000 C 
ATOM     19  O   UNL     1       7.224  16.782  18.529  0.00  0.00    +0.000 OA
ATOM     20  H   UNL     1       6.474  15.013  16.934  0.00  0.00    +0.000 HD
ATOM     21  H   UNL     1       8.071  14.338  16.721  0.00  0.00    +0.000 HD
ENDBRANCH  11  18
ENDBRANCH   1  16
BRANCH   6  22
ATOM     22  C   UNL     1       8.189   8.492  18.281  0.00  0.00    +0.000 A 
ATOM     23  C   UNL     1       8.539   7.412  19.107  0.00  0.00    +0.000 A 
ATOM     24  C   UNL     1       7.936   6.157  18.943  0.00  0.00    +0.000 A 
ATOM     25  C   UNL     1       6.977   5.971  17.950  0.00  0.00    +0.000 A 
ATOM     26  C   UNL     1       6.619   7.033  17.124  0.00  0.00    +0.000 A 
ATOM     27  C   UNL     1       7.223   8.288  17.290  0.00  0.00    +0.000 A 
ENDBRANCH   6  22
TORSDOF 3
ENDMDL
MODEL 6
REMARK VINA RESULT:      -7.0      3.488      7.751
REMARK  Name = 
REMARK  3 active torsions:
REMARK  status: ('A' for Active; 'I' for Inactive)
REMARK    1  A    between atoms: C_2  and  C_4
REMARK    2  A    between atoms: C_9  and  C_10
REMARK    3  A    between atoms: C_15  and  C_16
REMARK                            x       y       z     vdW  Elec       q    Type
REMARK                         _______ _______ _______ _____ _____    ______ ____
ROOT
ATOM      1  C   UNL     1       5.066   4.347  19.476  0.00  0.00    +0.000 C 
ATOM      2  O   UNL     1       6.063   4.762  20.071  0.00  0.00    +0.000 OA
ATOM      3  N   UNL     1       5.078   4.335  18.067  0.00  0.00    +0.000 N 
ATOM      4  C   UNL     1       4.205   3.628  17.120  0.00  0.00    +0.000 C 
ATOM      5  C   UNL     1       4.995   3.467  15.805  0.00  0.00    +0.000 C 
ATOM      6  C   UNL     1       5.790   4.455  15.337  0.00  0.00    +0.000 C 
ATOM      7  C   UNL     1       6.006   5.686  16.185  0.00  0.00    +0.000 C 
ATOM      8  C   UNL     1       5.197   5.676  17.508  0.00  0.00    +0.000 C 
ATOM      9  C   UNL     1       3.708   5.992  17.279  0.00  0.00    +0.000 C 
ATOM     10  C   UNL     1       3.095   4.652  16.821  0.00  0.00    +0.000 C 
ENDROOT
BRANCH   1  16
ATOM     11  C   UNL     1       3.746   2.554  20.690  0.00  0.00    +0.000 A 
ATOM     12  N   UNL     1       2.587   2.062  21.257  0.00  0.00    +0.000 NA
ATOM     13  C   UNL     1       1.641   2.978  21.520  0.00  0.00    +0.000 A 
ATOM     14  C   UNL     1       1.830   4.325  21.242  0.00  0.00    +0.000 A 
ATOM     15  N   UNL     1       2.945   4.825  20.640  0.00  0.00    +0.000 NA
ATOM     16  C   UNL     1       3.915   3.908  20.343  0.00  0.00    +0.000 A 
BRANCH  11  18
ATOM     17  N   UNL     1       4.821   0.703  19.557  0.00  0.00    +0.000 N 
ATOM     18  C   UNL     1       4.830   1.525  20.661  0.00  0.00    +0.000 C 
ATOM     19  O   UNL     1       5.576   1.320  21.609  0.00  0.00    +0.000 OA
ATOM     20  H   UNL     1       5.407  -0.122  19.577  0.00  0.00    +0.000 HD
ATOM     21  H   UNL     1       4.024   0.723  18.927  0.00  0.00    +0.000 HD
ENDBRANCH  11  18
ENDBRANCH   1  16
BRANCH   6  22
ATOM     22  C   UNL     1       6.456   4.443  14.016  0.00  0.00    +0.000 A 
ATOM     23  C   UNL     1       6.044   3.558  13.006  0.00  0.00    +0.000 A 
ATOM     24  C   UNL     1       6.621   3.605  11.730  0.00  0.00    +0.000 A 
ATOM     25  C   UNL     1       7.616   4.538  11.450  0.00  0.00    +0.000 A 
ATOM     26  C   UNL     1       8.033   5.424  12.440  0.00  0.00    +0.000 A 
ATOM     27  C   UNL     1       7.455   5.376  13.717  0.00  0.00    +0.000 A 
ENDBRANCH   6  22
TORSDOF 3
ENDMDL
MODEL 7
REMARK VINA RESULT:      -7.0      6.888     10.022
REMARK  Name = 
REMARK  3 active torsions:
REMARK  status: ('A' for Active; 'I' for Inactive)
REMARK    1  A    between atoms: C_2  and  C_4
REMARK    2  A    between atoms: C_9  and  C_10
REMARK    3  A    between atoms: C_15  and  C_16
REMARK                            x       y       z     vdW  Elec       q    Type
REMARK                         _______ _______ _______ _____ _____    ______ ____
ROOT
ATOM      1  C   UNL     1       9.660  13.835  20.032  0.00  0.00    +0.000 C 
ATOM      2  O   UNL     1       9.218  13.941  21.178  0.00  0.00    +0.000 OA
ATOM      3  N   UNL     1       9.538  12.594  19.375  0.00  0.00    +0.000 N 
ATOM      4  C   UNL     1       9.670  12.262  17.950  0.00  0.00    +0.000 C 
ATOM      5  C   UNL     1       8.869  10.966  17.708  0.00  0.00    +0.000 C 
ATOM      6  C   UNL     1       8.872   9.958  18.610  0.00  0.00    +0.000 C 
ATOM      7  C   UNL     1       9.571  10.162  19.933  0.00  0.00    +0.000 C 
ATOM      8  C   UNL     1      10.276  11.537  20.057  0.00  0.00    +0.000 C 
ATOM      9  C   UNL     1      11.591  11.588  19.259  0.00  0.00    +0.000 C 
ATOM     10  C   UNL     1      11.152  11.872  17.808  0.00  0.00    +0.000 C 
ENDROOT
BRANCH   1  16
ATOM     11  C   UNL     1       9.628  15.886  18.540  0.00  0.00    +0.000 A 
ATOM     12  N   UNL     1      10.254  16.865  17.796  0.00  0.00    +0.000 NA
ATOM     13  C   UNL     1      11.561  17.035  18.051  0.00  0.00    +0.000 A 
ATOM     14  C   UNL     1      12.225  16.275  19.005  0.00  0.00    +0.000 A 
ATOM     15  N   UNL     1      11.638  15.272  19.715  0.00  0.00    +0.000 NA
ATOM     16  C   UNL     1      10.312  15.066  19.459  0.00  0.00    +0.000 A 
BRANCH  11  18
ATOM     17  N   UNL     1       7.656  15.263  17.278  0.00  0.00    +0.000 N 
ATOM     18  C   UNL     1       8.142  15.931  18.380  0.00  0.00    +0.000 C 
ATOM     19  O   UNL     1       7.420  16.629  19.079  0.00  0.00    +0.000 OA
ATOM     20  H   UNL     1       6.690  15.419  17.019  0.00  0.00    +0.000 HD
ATOM     21  H   UNL     1       8.306  14.928  16.572  0.00  0.00    +0.000 HD
ENDBRANCH  11  18
ENDBRANCH   1  16
BRANCH   6  22
ATOM     22  C   UNL     1       8.262   8.629  18.386  0.00  0.00    +0.000 A 
ATOM     23  C   UNL     1       7.412   8.398  17.293  0.00  0.00    +0.000 A 
ATOM     24  C   UNL     1       6.901   7.118  17.038  0.00  0.00    +0.000 A 
ATOM     25  C   UNL     1       7.236   6.056  17.875  0.00  0.00    +0.000 A 
ATOM     26  C   UNL     1       8.079   6.269  18.962  0.00  0.00    +0.000 A 
ATOM     27  C   UNL     1       8.590   7.551  19.216  0.00  0.00    +0.000 A 
ENDBRANCH   6  22
TORSDOF 3
ENDMDL
MODEL 8
REMARK VINA RESULT:      -6.8      6.979     11.504
REMARK  Name = 
REMARK  3 active torsions:
REMARK  status: ('A' for Active; 'I' for Inactive)
REMARK    1  A    between atoms: C_2  and  C_4
REMARK    2  A    between atoms: C_9  and  C_10
REMARK    3  A    between atoms: C_15  and  C_16
REMARK                            x       y       z     vdW  Elec       q    Type
REMARK                         _______ _______ _______ _____ _____    ______ ____
ROOT
ATOM      1  C   UNL     1      -3.526  12.535  23.191  0.00  0.00    +0.000 C 
ATOM      2  O   UNL     1      -3.735  11.779  24.141  0.00  0.00    +0.000 OA
ATOM      3  N   UNL     1      -2.534  12.181  22.254  0.00  0.00    +0.000 N 
ATOM      4  C   UNL     1      -2.287  12.692  20.899  0.00  0.00    +0.000 C 
ATOM      5  C   UNL     1      -1.528  11.593  20.128  0.00  0.00    +0.000 C 
ATOM      6  C   UNL     1      -0.567  10.852  20.724  0.00  0.00    +0.000 C 
ATOM      7  C   UNL     1      -0.325  11.020  22.205  0.00  0.00    +0.000 C 
ATOM      8  C   UNL     1      -1.208  12.116  22.857  0.00  0.00    +0.000 C 
ATOM      9  C   UNL     1      -0.707  13.534  22.528  0.00  0.00    +0.000 C 
ATOM     10  C   UNL     1      -1.271  13.827  21.122  0.00  0.00    +0.000 C 
ENDROOT
BRANCH   1  16
ATOM     11  C   UNL     1      -5.675  13.769  22.649  0.00  0.00    +0.000 A 
ATOM     12  N   UNL     1      -6.384  14.914  22.350  0.00  0.00    +0.000 NA
ATOM     13  C   UNL     1      -5.757  16.069  22.628  0.00  0.00    +0.000 A 
ATOM     14  C   UNL     1      -4.485  16.094  23.183  0.00  0.00    +0.000 A 
ATOM     15  N   UNL     1      -3.749  14.978  23.441  0.00  0.00    +0.000 NA
ATOM     16  C   UNL     1      -4.357  13.790  23.148  0.00  0.00    +0.000 A 
BRANCH  11  18
ATOM     17  N   UNL     1      -7.023  12.081  23.747  0.00  0.00    +0.000 N 
ATOM     18  C   UNL     1      -6.528  12.545  22.548  0.00  0.00    +0.000 C 
ATOM     19  O   UNL     1      -6.657  11.910  21.511  0.00  0.00    +0.000 OA
ATOM     20  H   UNL     1      -7.442  11.160  23.760  0.00  0.00    +0.000 HD
ATOM     21  H   UNL     1      -6.670  12.473  24.616  0.00  0.00    +0.000 HD
ENDBRANCH  11  18
ENDBRANCH   1  16
BRANCH   6  22
ATOM     22  C   UNL     1       0.311   9.891  20.020  0.00  0.00    +0.000 A 
ATOM     23  C   UNL     1       0.620  10.056  18.660  0.00  0.00    +0.000 A 
ATOM     24  C   UNL     1       1.516   9.191  18.017  0.00  0.00    +0.000 A 
ATOM     25  C   UNL     1       2.113   8.153  18.728  0.00  0.00    +0.000 A 
ATOM     26  C   UNL     1       1.819   7.979  20.078  0.00  0.00    +0.000 A 
ATOM     27  C   UNL     1       0.921   8.845  20.721  0.00  0.00    +0.000 A 
ENDBRANCH   6  22
TORSDOF 3
ENDMDL
MODEL 9
REMARK VINA RESULT:      -6.7      6.699     11.109
REMARK  Name = 
REMARK  3 active torsions:
REMARK  status: ('A' for Active; 'I' for Inactive)
REMARK    1  A    between atoms: C_2  and  C_4
REMARK    2  A    between atoms: C_9  and  C_10
REMARK    3  A    between atoms: C_15  and  C_16
REMARK                            x       y       z     vdW  Elec       q    Type
REMARK                         _______ _______ _______ _____ _____    ______ ____
ROOT
ATOM      1  C   UNL     1      -3.317  12.475  22.817  0.00  0.00    +0.000 C 
ATOM      2  O   UNL     1      -3.531  11.775  23.809  0.00  0.00    +0.000 OA
ATOM      3  N   UNL     1      -2.296  12.088  21.926  0.00  0.00    +0.000 N 
ATOM      4  C   UNL     1      -2.030  12.519  20.547  0.00  0.00    +0.000 C 
ATOM      5  C   UNL     1      -1.226  11.393  19.864  0.00  0.00    +0.000 C 
ATOM      6  C   UNL     1      -0.261  10.716  20.527  0.00  0.00    +0.000 C 
ATOM      7  C   UNL     1      -0.059  10.984  21.999  0.00  0.00    +0.000 C 
ATOM      8  C   UNL     1      -0.983  12.095  22.561  0.00  0.00    +0.000 C 
ATOM      9  C   UNL     1      -0.510  13.503  22.153  0.00  0.00    +0.000 C 
ATOM     10  C   UNL     1      -1.048  13.691  20.720  0.00  0.00    +0.000 C 
ENDROOT
BRANCH   1  16
ATOM     11  C   UNL     1      -5.277  13.719  21.794  0.00  0.00    +0.000 A 
ATOM     12  N   UNL     1      -5.936  14.877  21.436  0.00  0.00    +0.000 NA
ATOM     13  C   UNL     1      -5.502  15.996  22.038  0.00  0.00    +0.000 A 
ATOM     14  C   UNL     1      -4.464  15.975  22.959  0.00  0.00    +0.000 A 
ATOM     15  N   UNL     1      -3.769  14.852  23.291  0.00  0.00    +0.000 NA
ATOM     16  C   UNL     1      -4.179  13.703  22.676  0.00  0.00    +0.000 A 
BRANCH  11  18
ATOM     17  N   UNL     1      -5.792  12.249  19.939  0.00  0.00    +0.000 N 
ATOM     18  C   UNL     1      -5.975  12.501  21.280  0.00  0.00    +0.000 C 
ATOM     19  O   UNL     1      -6.771  11.859  21.952  0.00  0.00    +0.000 OA
ATOM     20  H   UNL     1      -6.387  11.556  19.503  0.00  0.00    +0.000 HD
ATOM     21  H   UNL     1      -5.350  12.954  19.356  0.00  0.00    +0.000 HD
ENDBRANCH  11  18
ENDBRANCH   1  16
BRANCH   6  22
ATOM     22  C   UNL     1       0.656   9.736  19.905  0.00  0.00    +0.000 A 
ATOM     23  C   UNL     1       1.155   8.646  20.637  0.00  0.00    +0.000 A 
ATOM     24  C   UNL     1       1.957   7.675  20.023  0.00  0.00    +0.000 A 
ATOM     25  C   UNL     1       2.268   7.784  18.670  0.00  0.00    +0.000 A 
ATOM     26  C   UNL     1       1.780   8.858  17.930  0.00  0.00    +0.000 A 
ATOM     27  C   UNL     1       0.977   9.830  18.546  0.00  0.00    +0.000 A 
ENDBRANCH   6  22
TORSDOF 3
ENDMDL
