MODEL 1
REMARK VINA RESULT:      -8.5      0.000      0.000
REMARK  Name = 
REMARK  5 active torsions:
REMARK  status: ('A' for Active; 'I' for Inactive)
REMARK    1  A    between atoms: C_1  and  C_2
REMARK    2  A    between atoms: C_2  and  C_3
REMARK    3  A    between atoms: C_6  and  C_7
REMARK    4  A    between atoms: C_11  and  N_12
REMARK    5  A    between atoms: C_20  and  C_21
REMARK                            x       y       z     vdW  Elec       q    Type
REMARK                         _______ _______ _______ _____ _____    ______ ____
ROOT
ATOM      1  C   UNL     1       2.239   5.813  20.120  0.00  0.00    +0.000 A 
ATOM      2  C   UNL     1       1.143   5.124  20.662  0.00  0.00    +0.000 A 
ATOM      3  C   UNL     1       1.245   3.770  20.960  0.00  0.00    +0.000 A 
ATOM      4  C   UNL     1       2.394   3.074  20.603  0.00  0.00    +0.000 A 
ATOM      5  C   UNL     1       3.383   3.717  19.836  0.00  0.00    +0.000 A 
ATOM      6  C   UNL     1       3.385   5.114  19.744  0.00  0.00    +0.000 A 
ENDROOT
BRANCH   5   7
ATOM      7  N   UNL     1       4.055   2.970  18.779  0.00  0.00    +0.000 N 
ATOM      8  C   UNL     1       5.514   3.240  18.801  0.00  0.00    +0.000 C 
ATOM      9  C   UNL     1       5.638   4.378  17.836  0.00  0.00    +0.000 A 
ATOM     10  C   UNL     1       4.575   4.275  16.931  0.00  0.00    +0.000 A 
ATOM     11  C   UNL     1       4.298   5.239  15.982  0.00  0.00    +0.000 A 
ATOM     12  C   UNL     1       5.122   6.356  15.973  0.00  0.00    +0.000 A 
ATOM     13  F   UNL     1       4.853   7.363  15.134  0.00  0.00    +0.000 F 
ATOM     14  C   UNL     1       6.183   6.496  16.883  0.00  0.00    +0.000 A 
ATOM     15  C   UNL     1       6.465   5.505  17.840  0.00  0.00    +0.000 A 
ATOM     16  C   UNL     1       3.633   3.259  17.455  0.00  0.00    +0.000 C 
ATOM     17  O   UNL     1       2.598   2.940  16.900  0.00  0.00    +0.000 OA
BRANCH  15  18
ATOM     18  C   UNL     1       7.545   5.756  18.860  0.00  0.00    +0.000 C 
ATOM     19  F   UNL     1       8.164   6.965  18.730  0.00  0.00    +0.000 F 
ATOM     20  F   UNL     1       7.064   5.728  20.127  0.00  0.00    +0.000 F 
ATOM     21  F   UNL     1       8.535   4.824  18.812  0.00  0.00    +0.000 F 
ENDBRANCH  15  18
ENDBRANCH   5   7
BRANCH   1  25
ATOM     22  C   UNL     1       1.059  10.204  19.907  0.00  0.00    +0.000 C 
ATOM     23  N   UNL     1       1.115   9.260  20.788  0.00  0.00    +0.000 NA
ATOM     24  N   UNL     1       1.301   7.914  20.646  0.00  0.00    +0.000 NA
ATOM     25  C   UNL     1       2.083   7.274  19.841  0.00  0.00    +0.000 C 
ATOM     26  C   UNL     1       2.872   7.829  18.680  0.00  0.00    +0.000 C 
ATOM     27  O   UNL     1       2.095   8.059  17.514  0.00  0.00    +0.000 OA
ATOM     28  C   UNL     1       0.986   8.940  17.702  0.00  0.00    +0.000 C 
ATOM     29  C   UNL     1       1.374  10.206  18.432  0.00  0.00    +0.000 C 
BRANCH  22  31
ATOM     30  C   UNL     1      -0.186  11.290  21.755  0.00  0.00    +0.000 C 
ATOM     31  C   UNL     1       0.593  11.544  20.474  0.00  0.00    +0.000 C 
ENDBRANCH  22  31
ENDBRANCH   1  25
TORSDOF 4
ENDMDL
MODEL 2
REMARK VINA RESULT:      -8.1      3.288      4.849
REMARK  Name = 
REMARK  5 active torsions:
REMARK  status: ('A' for Active; 'I' for Inactive)
REMARK    1  A    between atoms: C_1  and  C_2
REMARK    2  A    between atoms: C_2  and  C_3
REMARK    3  A    between atoms: C_6  and  C_7
REMARK    4  A    between atoms: C_11  and  N_12
REMARK    5  A    between atoms: C_20  and  C_21
REMARK                            x       y       z     vdW  Elec       q    Type
REMARK                         _______ _______ _______ _____ _____    ______ ____
ROOT
ATOM      1  C   UNL     1       1.475   9.053  19.173  0.00  0.00    +0.000 A 
ATOM      2  C   UNL     1       1.236   8.506  20.442  0.00  0.00    +0.000 A 
ATOM      3  C   UNL     1       1.901   7.354  20.845  0.00  0.00    +0.000 A 
ATOM      4  C   UNL     1       2.710   6.678  19.939  0.00  0.00    +0.000 A 
ATOM      5  C   UNL     1       2.746   7.095  18.596  0.00  0.00    +0.000 A 
ATOM      6  C   UNL     1       2.270   8.368  18.256  0.00  0.00    +0.000 A 
ENDROOT
BRANCH   5   7
ATOM      7  N   UNL     1       2.786   6.087  17.543  0.00  0.00    +0.000 N 
ATOM      8  C   UNL     1       1.767   5.037  17.792  0.00  0.00    +0.000 C 
ATOM      9  C   UNL     1       2.548   4.015  18.558  0.00  0.00    +0.000 A 
ATOM     10  C   UNL     1       3.890   4.146  18.181  0.00  0.00    +0.000 A 
ATOM     11  C   UNL     1       4.915   3.453  18.792  0.00  0.00    +0.000 A 
ATOM     12  C   UNL     1       4.559   2.614  19.838  0.00  0.00    +0.000 A 
ATOM     13  F   UNL     1       5.516   1.979  20.526  0.00  0.00    +0.000 F 
ATOM     14  C   UNL     1       3.223   2.478  20.253  0.00  0.00    +0.000 A 
ATOM     15  C   UNL     1       2.183   3.181  19.619  0.00  0.00    +0.000 A 
ATOM     16  C   UNL     1       4.017   5.396  17.396  0.00  0.00    +0.000 C 
ATOM     17  O   UNL     1       5.065   5.801  16.926  0.00  0.00    +0.000 OA
BRANCH  15  18
ATOM     18  C   UNL     1       0.785   3.082  20.173  0.00  0.00    +0.000 C 
ATOM     19  F   UNL     1       0.187   4.289  20.394  0.00  0.00    +0.000 F 
ATOM     20  F   UNL     1      -0.046   2.412  19.339  0.00  0.00    +0.000 F 
ATOM     21  F   UNL     1       0.742   2.422  21.362  0.00  0.00    +0.000 F 
ENDBRANCH  15  18
ENDBRANCH   5   7
BRANCH   1  25
ATOM     22  C   UNL     1      -0.152  13.276  18.675  0.00  0.00    +0.000 C 
ATOM     23  N   UNL     1       0.979  12.698  18.914  0.00  0.00    +0.000 NA
ATOM     24  N   UNL     1       1.271  11.404  19.243  0.00  0.00    +0.000 NA
ATOM     25  C   UNL     1       0.750  10.307  18.800  0.00  0.00    +0.000 C 
ATOM     26  C   UNL     1      -0.476  10.148  17.935  0.00  0.00    +0.000 C 
ATOM     27  O   UNL     1      -1.700  10.275  18.643  0.00  0.00    +0.000 OA
ATOM     28  C   UNL     1      -1.860  11.512  19.339  0.00  0.00    +0.000 C 
ATOM     29  C   UNL     1      -1.535  12.707  18.471  0.00  0.00    +0.000 C 
BRANCH  22  31
ATOM     30  C   UNL     1       1.301  15.234  19.115  0.00  0.00    +0.000 C 
ATOM     31  C   UNL     1      -0.055  14.797  18.583  0.00  0.00    +0.000 C 
ENDBRANCH  22  31
ENDBRANCH   1  25
TORSDOF 4
ENDMDL
MODEL 3
REMARK VINA RESULT:      -8.1      2.547      4.321
REMARK  Name = 
REMARK  5 active torsions:
REMARK  status: ('A' for Active; 'I' for Inactive)
REMARK    1  A    between atoms: C_1  and  C_2
REMARK    2  A    between atoms: C_2  and  C_3
REMARK    3  A    between atoms: C_6  and  C_7
REMARK    4  A    between atoms: C_11  and  N_12
REMARK    5  A    between atoms: C_20  and  C_21
REMARK                            x       y       z     vdW  Elec       q    Type
REMARK                         _______ _______ _______ _____ _____    ______ ____
ROOT
ATOM      1  C   UNL     1       1.208   9.119  19.596  0.00  0.00    +0.000 A 
ATOM      2  C   UNL     1       1.748   9.699  18.438  0.00  0.00    +0.000 A 
ATOM      3  C   UNL     1       2.512   8.936  17.562  0.00  0.00    +0.000 A 
ATOM      4  C   UNL     1       2.841   7.629  17.902  0.00  0.00    +0.000 A 
ATOM      5  C   UNL     1       2.506   7.138  19.177  0.00  0.00    +0.000 A 
ATOM      6  C   UNL     1       1.552   7.815  19.948  0.00  0.00    +0.000 A 
ENDROOT
BRANCH   5   7
ATOM      7  N   UNL     1       3.457   6.283  19.878  0.00  0.00    +0.000 N 
ATOM      8  C   UNL     1       4.607   5.958  18.999  0.00  0.00    +0.000 C 
ATOM      9  C   UNL     1       4.173   4.667  18.377  0.00  0.00    +0.000 A 
ATOM     10  C   UNL     1       3.292   4.048  19.272  0.00  0.00    +0.000 A 
ATOM     11  C   UNL     1       2.589   2.901  18.965  0.00  0.00    +0.000 A 
ATOM     12  C   UNL     1       2.776   2.381  17.692  0.00  0.00    +0.000 A 
ATOM     13  F   UNL     1       2.059   1.319  17.305  0.00  0.00    +0.000 F 
ATOM     14  C   UNL     1       3.637   2.992  16.765  0.00  0.00    +0.000 A 
ATOM     15  C   UNL     1       4.357   4.156  17.090  0.00  0.00    +0.000 A 
ATOM     16  C   UNL     1       2.952   5.035  20.324  0.00  0.00    +0.000 C 
ATOM     17  O   UNL     1       2.199   4.806  21.253  0.00  0.00    +0.000 OA
BRANCH  15  18
ATOM     18  C   UNL     1       5.181   4.830  16.023  0.00  0.00    +0.000 C 
ATOM     19  F   UNL     1       4.781   6.102  15.731  0.00  0.00    +0.000 F 
ATOM     20  F   UNL     1       6.485   4.933  16.377  0.00  0.00    +0.000 F 
ATOM     21  F   UNL     1       5.162   4.153  14.843  0.00  0.00    +0.000 F 
ENDBRANCH  15  18
ENDBRANCH   5   7
BRANCH   1  25
ATOM     22  C   UNL     1      -0.590  12.335  22.269  0.00  0.00    +0.000 C 
ATOM     23  N   UNL     1       0.176  12.259  21.231  0.00  0.00    +0.000 NA
ATOM     24  N   UNL     1       0.803  11.188  20.659  0.00  0.00    +0.000 NA
ATOM     25  C   UNL     1       0.375   9.980  20.490  0.00  0.00    +0.000 C 
ATOM     26  C   UNL     1      -0.871   9.351  21.064  0.00  0.00    +0.000 C 
ATOM     27  O   UNL     1      -0.747   8.965  22.426  0.00  0.00    +0.000 OA
ATOM     28  C   UNL     1      -0.388  10.025  23.314  0.00  0.00    +0.000 C 
ATOM     29  C   UNL     1      -1.236  11.260  23.109  0.00  0.00    +0.000 C 
BRANCH  22  31
ATOM     30  C   UNL     1      -2.132  13.767  23.577  0.00  0.00    +0.000 C 
ATOM     31  C   UNL     1      -0.884  13.768  22.709  0.00  0.00    +0.000 C 
ENDBRANCH  22  31
ENDBRANCH   1  25
TORSDOF 4
ENDMDL
MODEL 4
REMARK VINA RESULT:      -8.0      2.458      4.255
REMARK  Name = 
REMARK  5 active torsions:
REMARK  status: ('A' for Active; 'I' for Inactive)
REMARK    1  A    between atoms: C_1  and  C_2
REMARK    2  A    between atoms: C_2  and  C_3
REMARK    3  A    between atoms: C_6  and  C_7
REMARK    4  A    between atoms: C_11  and  N_12
REMARK    5  A    between atoms: C_20  and  C_21
REMARK                            x       y       z     vdW  Elec       q    Type
REMARK                         _______ _______ _______ _____ _____    ______ ____
ROOT
ATOM      1  C   UNL     1       1.182   9.401  19.554  0.00  0.00    +0.000 A 
ATOM      2  C   UNL     1       1.678   9.777  18.296  0.00  0.00    +0.000 A 
ATOM      3  C   UNL     1       2.291   8.837  17.475  0.00  0.00    +0.000 A 
ATOM      4  C   UNL     1       2.519   7.553  17.955  0.00  0.00    +0.000 A 
ATOM      5  C   UNL     1       2.244   7.258  19.303  0.00  0.00    +0.000 A 
ATOM      6  C   UNL     1       1.426   8.120  20.045  0.00  0.00    +0.000 A 
ENDROOT
BRANCH   5   7
ATOM      7  N   UNL     1       3.162   6.397  20.041  0.00  0.00    +0.000 N 
ATOM      8  C   UNL     1       4.382   6.135  19.238  0.00  0.00    +0.000 C 
ATOM      9  C   UNL     1       4.029   4.860  18.537  0.00  0.00    +0.000 A 
ATOM     10  C   UNL     1       3.101   4.185  19.339  0.00  0.00    +0.000 A 
ATOM     11  C   UNL     1       2.452   3.035  18.937  0.00  0.00    +0.000 A 
ATOM     12  C   UNL     1       2.747   2.571  17.663  0.00  0.00    +0.000 A 
ATOM     13  F   UNL     1       2.088   1.509  17.183  0.00  0.00    +0.000 F 
ATOM     14  C   UNL     1       3.658   3.239  16.827  0.00  0.00    +0.000 A 
ATOM     15  C   UNL     1       4.321   4.405  17.249  0.00  0.00    +0.000 A 
ATOM     16  C   UNL     1       2.658   5.121  20.400  0.00  0.00    +0.000 C 
ATOM     17  O   UNL     1       1.844   4.838  21.260  0.00  0.00    +0.000 OA
BRANCH  15  18
ATOM     18  C   UNL     1       5.205   5.140  16.274  0.00  0.00    +0.000 C 
ATOM     19  F   UNL     1       4.751   6.383  15.939  0.00  0.00    +0.000 F 
ATOM     20  F   UNL     1       6.454   5.329  16.763  0.00  0.00    +0.000 F 
ATOM     21  F   UNL     1       5.355   4.470  15.100  0.00  0.00    +0.000 F 
ENDBRANCH  15  18
ENDBRANCH   5   7
BRANCH   1  25
ATOM     22  C   UNL     1      -1.443  11.871  22.335  0.00  0.00    +0.000 C 
ATOM     23  N   UNL     1      -0.984  10.665  22.257  0.00  0.00    +0.000 NA
ATOM     24  N   UNL     1      -0.364  10.008  21.231  0.00  0.00    +0.000 NA
ATOM     25  C   UNL     1       0.510  10.446  20.386  0.00  0.00    +0.000 C 
ATOM     26  C   UNL     1       0.948  11.873  20.162  0.00  0.00    +0.000 C 
ATOM     27  O   UNL     1       0.033  12.643  19.397  0.00  0.00    +0.000 OA
ATOM     28  C   UNL     1      -1.287  12.710  19.939  0.00  0.00    +0.000 C 
ATOM     29  C   UNL     1      -1.288  13.054  21.412  0.00  0.00    +0.000 C 
BRANCH  22  31
ATOM     30  C   UNL     1      -3.651  12.635  23.159  0.00  0.00    +0.000 C 
ATOM     31  C   UNL     1      -2.283  12.127  23.585  0.00  0.00    +0.000 C 
ENDBRANCH  22  31
ENDBRANCH   1  25
TORSDOF 4
ENDMDL
MODEL 5
REMARK VINA RESULT:      -7.9      5.124      9.162
REMARK  Name = 
REMARK  5 active torsions:
REMARK  status: ('A' for Active; 'I' for Inactive)
REMARK    1  A    between atoms: C_1  and  C_2
REMARK    2  A    between atoms: C_2  and  C_3
REMARK    3  A    between atoms: C_6  and  C_7
REMARK    4  A    between atoms: C_11  and  N_12
REMARK    5  A    between atoms: C_20  and  C_21
REMARK                            x       y       z     vdW  Elec       q    Type
REMARK                         _______ _______ _______ _____ _____    ______ ____
ROOT
ATOM      1  C   UNL     1       1.362   8.345  19.986  0.00  0.00    +0.000 A 
ATOM      2  C   UNL     1       1.394   8.368  21.388  0.00  0.00    +0.000 A 
ATOM      3  C   UNL     1       0.513   9.178  22.096  0.00  0.00    +0.000 A 
ATOM      4  C   UNL     1      -0.316  10.055  21.406  0.00  0.00    +0.000 A 
ATOM      5  C   UNL     1      -0.164  10.203  20.016  0.00  0.00    +0.000 A 
ATOM      6  C   UNL     1       0.546   9.236  19.292  0.00  0.00    +0.000 A 
ENDROOT
BRANCH   5   7
ATOM      7  N   UNL     1      -0.282  11.533  19.429  0.00  0.00    +0.000 N 
ATOM      8  C   UNL     1      -0.338  12.565  20.494  0.00  0.00    +0.000 C 
ATOM      9  C   UNL     1      -1.812  12.720  20.704  0.00  0.00    +0.000 A 
ATOM     10  C   UNL     1      -2.444  12.375  19.504  0.00  0.00    +0.000 A 
ATOM     11  C   UNL     1      -3.814  12.271  19.376  0.00  0.00    +0.000 A 
ATOM     12  C   UNL     1      -4.563  12.506  20.521  0.00  0.00    +0.000 A 
ATOM     13  F   UNL     1      -5.890  12.338  20.483  0.00  0.00    +0.000 F 
ATOM     14  C   UNL     1      -3.956  12.833  21.746  0.00  0.00    +0.000 A 
ATOM     15  C   UNL     1      -2.559  12.946  21.864  0.00  0.00    +0.000 A 
ATOM     16  C   UNL     1      -1.428  11.753  18.622  0.00  0.00    +0.000 C 
ATOM     17  O   UNL     1      -1.662  11.337  17.503  0.00  0.00    +0.000 OA
BRANCH  15  18
ATOM     18  C   UNL     1      -1.955  13.192  23.223  0.00  0.00    +0.000 C 
ATOM     19  F   UNL     1      -1.115  14.267  23.273  0.00  0.00    +0.000 F 
ATOM     20  F   UNL     1      -2.901  13.427  24.164  0.00  0.00    +0.000 F 
ATOM     21  F   UNL     1      -1.230  12.132  23.671  0.00  0.00    +0.000 F 
ENDBRANCH  15  18
ENDBRANCH   5   7
BRANCH   1  25
ATOM     22  C   UNL     1       4.189   6.220  17.119  0.00  0.00    +0.000 C 
ATOM     23  N   UNL     1       3.860   7.430  17.432  0.00  0.00    +0.000 NA
ATOM     24  N   UNL     1       2.824   7.909  18.185  0.00  0.00    +0.000 NA
ATOM     25  C   UNL     1       2.316   7.438  19.275  0.00  0.00    +0.000 C 
ATOM     26  C   UNL     1       2.590   6.104  19.924  0.00  0.00    +0.000 C 
ATOM     27  O   UNL     1       1.917   5.015  19.308  0.00  0.00    +0.000 OA
ATOM     28  C   UNL     1       2.200   4.850  17.918  0.00  0.00    +0.000 C 
ATOM     29  C   UNL     1       3.683   4.891  17.624  0.00  0.00    +0.000 C 
BRANCH  22  31
ATOM     30  C   UNL     1       5.368   4.706  15.551  0.00  0.00    +0.000 C 
ATOM     31  C   UNL     1       5.281   6.138  16.054  0.00  0.00    +0.000 C 
ENDBRANCH  22  31
ENDBRANCH   1  25
TORSDOF 4
ENDMDL
MODEL 6
REMARK VINA RESULT:      -7.9      2.031      3.306
REMARK  Name = 
REMARK  5 active torsions:
REMARK  status: ('A' for Active; 'I' for Inactive)
REMARK    1  A    between atoms: C_1  and  C_2
REMARK    2  A    between atoms: C_2  and  C_3
REMARK    3  A    between atoms: C_6  and  C_7
REMARK    4  A    between atoms: C_11  and  N_12
REMARK    5  A    between atoms: C_20  and  C_21
REMARK                            x       y       z     vdW  Elec       q    Type
REMARK                         _______ _______ _______ _____ _____    ______ ____
ROOT
ATOM      1  C   UNL     1       1.551   8.520  19.390  0.00  0.00    +0.000 A 
ATOM      2  C   UNL     1       2.256   9.226  18.404  0.00  0.00    +0.000 A 
ATOM      3  C   UNL     1       3.046   8.545  17.484  0.00  0.00    +0.000 A 
ATOM      4  C   UNL     1       3.231   7.175  17.623  0.00  0.00    +0.000 A 
ATOM      5  C   UNL     1       2.723   6.518  18.759  0.00  0.00    +0.000 A 
ATOM      6  C   UNL     1       1.750   7.150  19.543  0.00  0.00    +0.000 A 
ENDROOT
BRANCH   5   7
ATOM      7  N   UNL     1       3.522   5.472  19.388  0.00  0.00    +0.000 N 
ATOM      8  C   UNL     1       4.944   5.888  19.473  0.00  0.00    +0.000 C 
ATOM      9  C   UNL     1       5.514   5.320  18.211  0.00  0.00    +0.000 A 
ATOM     10  C   UNL     1       4.735   4.210  17.863  0.00  0.00    +0.000 A 
ATOM     11  C   UNL     1       4.890   3.522  16.676  0.00  0.00    +0.000 A 
ATOM     12  C   UNL     1       5.861   3.998  15.806  0.00  0.00    +0.000 A 
ATOM     13  F   UNL     1       6.002   3.427  14.605  0.00  0.00    +0.000 F 
ATOM     14  C   UNL     1       6.644   5.123  16.118  0.00  0.00    +0.000 A 
ATOM     15  C   UNL     1       6.485   5.812  17.334  0.00  0.00    +0.000 A 
ATOM     16  C   UNL     1       3.529   4.218  18.725  0.00  0.00    +0.000 C 
ATOM     17  O   UNL     1       2.646   3.383  18.666  0.00  0.00    +0.000 OA
BRANCH  15  18
ATOM     18  C   UNL     1       7.274   7.074  17.571  0.00  0.00    +0.000 C 
ATOM     19  F   UNL     1       6.504   8.189  17.742  0.00  0.00    +0.000 F 
ATOM     20  F   UNL     1       8.045   6.991  18.683  0.00  0.00    +0.000 F 
ATOM     21  F   UNL     1       8.120   7.360  16.545  0.00  0.00    +0.000 F 
ENDBRANCH  15  18
ENDBRANCH   5   7
BRANCH   1  25
ATOM     22  C   UNL     1      -0.432  11.597  22.097  0.00  0.00    +0.000 C 
ATOM     23  N   UNL     1       0.205  11.567  20.973  0.00  0.00    +0.000 NA
ATOM     24  N   UNL     1       0.931  10.571  20.382  0.00  0.00    +0.000 NA
ATOM     25  C   UNL     1       0.697   9.300  20.338  0.00  0.00    +0.000 C 
ATOM     26  C   UNL     1      -0.345   8.524  21.105  0.00  0.00    +0.000 C 
ATOM     27  O   UNL     1       0.007   8.268  22.457  0.00  0.00    +0.000 OA
ATOM     28  C   UNL     1       0.285   9.436  23.231  0.00  0.00    +0.000 C 
ATOM     29  C   UNL     1      -0.779  10.499  23.072  0.00  0.00    +0.000 C 
BRANCH  22  31
ATOM     30  C   UNL     1      -2.399  12.932  22.795  0.00  0.00    +0.000 C 
ATOM     31  C   UNL     1      -0.910  12.993  22.492  0.00  0.00    +0.000 C 
ENDBRANCH  22  31
ENDBRANCH   1  25
TORSDOF 4
ENDMDL
MODEL 7
REMARK VINA RESULT:      -7.8      6.453      9.255
REMARK  Name = 
REMARK  5 active torsions:
REMARK  status: ('A' for Active; 'I' for Inactive)
REMARK    1  A    between atoms: C_1  and  C_2
REMARK    2  A    between atoms: C_2  and  C_3
REMARK    3  A    between atoms: C_6  and  C_7
REMARK    4  A    between atoms: C_11  and  N_12
REMARK    5  A    between atoms: C_20  and  C_21
REMARK                            x       y       z     vdW  Elec       q    Type
REMARK                         _______ _______ _______ _____ _____    ______ ____
ROOT
ATOM      1  C   UNL     1      -3.871  10.977  18.118  0.00  0.00    +0.000 A 
ATOM      2  C   UNL     1      -4.027  10.630  16.767  0.00  0.00    +0.000 A 
ATOM      3  C   UNL     1      -2.991  10.008  16.079  0.00  0.00    +0.000 A 
ATOM      4  C   UNL     1      -1.758   9.844  16.700  0.00  0.00    +0.000 A 
ATOM      5  C   UNL     1      -1.537  10.418  17.965  0.00  0.00    +0.000 A 
ATOM      6  C   UNL     1      -2.631  10.830  18.737  0.00  0.00    +0.000 A 
ENDROOT
BRANCH   5   7
ATOM      7  N   UNL     1      -0.243  11.031  18.247  0.00  0.00    +0.000 N 
ATOM      8  C   UNL     1       0.473  10.266  19.298  0.00  0.00    +0.000 C 
ATOM      9  C   UNL     1       0.058  10.983  20.546  0.00  0.00    +0.000 A 
ATOM     10  C   UNL     1      -0.242  12.303  20.189  0.00  0.00    +0.000 A 
ATOM     11  C   UNL     1      -0.791  13.215  21.068  0.00  0.00    +0.000 A 
ATOM     12  C   UNL     1      -1.062  12.756  22.349  0.00  0.00    +0.000 A 
ATOM     13  F   UNL     1      -1.671  13.566  23.222  0.00  0.00    +0.000 F 
ATOM     14  C   UNL     1      -0.791  11.430  22.730  0.00  0.00    +0.000 A 
ATOM     15  C   UNL     1      -0.223  10.510  21.831  0.00  0.00    +0.000 A 
ATOM     16  C   UNL     1      -0.283  12.372  18.710  0.00  0.00    +0.000 C 
ATOM     17  O   UNL     1      -0.526  13.386  18.082  0.00  0.00    +0.000 OA
BRANCH  15  18
ATOM     18  C   UNL     1      -0.055   9.074  22.258  0.00  0.00    +0.000 C 
ATOM     19  F   UNL     1      -0.825   8.191  21.558  0.00  0.00    +0.000 F 
ATOM     20  F   UNL     1       1.221   8.644  22.104  0.00  0.00    +0.000 F 
ATOM     21  F   UNL     1      -0.364   8.881  23.568  0.00  0.00    +0.000 F 
ENDBRANCH  15  18
ENDBRANCH   5   7
BRANCH   1  25
ATOM     22  C   UNL     1      -6.727  13.198  20.880  0.00  0.00    +0.000 C 
ATOM     23  N   UNL     1      -5.504  13.295  20.475  0.00  0.00    +0.000 NA
ATOM     24  N   UNL     1      -4.716  12.413  19.789  0.00  0.00    +0.000 NA
ATOM     25  C   UNL     1      -5.025  11.621  18.816  0.00  0.00    +0.000 C 
ATOM     26  C   UNL     1      -6.402  11.295  18.290  0.00  0.00    +0.000 C 
ATOM     27  O   UNL     1      -7.117  10.363  19.088  0.00  0.00    +0.000 OA
ATOM     28  C   UNL     1      -7.292  10.756  20.450  0.00  0.00    +0.000 C 
ATOM     29  C   UNL     1      -7.796  12.176  20.578  0.00  0.00    +0.000 C 
BRANCH  22  31
ATOM     30  C   UNL     1      -6.852  13.897  23.254  0.00  0.00    +0.000 C 
ATOM     31  C   UNL     1      -7.150  14.321  21.825  0.00  0.00    +0.000 C 
ENDBRANCH  22  31
ENDBRANCH   1  25
TORSDOF 4
ENDMDL
MODEL 8
REMARK VINA RESULT:      -7.8      5.453      9.490
REMARK  Name = 
REMARK  5 active torsions:
REMARK  status: ('A' for Active; 'I' for Inactive)
REMARK    1  A    between atoms: C_1  and  C_2
REMARK    2  A    between atoms: C_2  and  C_3
REMARK    3  A    between atoms: C_6  and  C_7
REMARK    4  A    between atoms: C_11  and  N_12
REMARK    5  A    between atoms: C_20  and  C_21
REMARK                            x       y       z     vdW  Elec       q    Type
REMARK                         _______ _______ _______ _____ _____    ______ ____
ROOT
ATOM      1  C   UNL     1       1.083   8.627  20.440  0.00  0.00    +0.000 A 
ATOM      2  C   UNL     1       1.116   8.571  21.842  0.00  0.00    +0.000 A 
ATOM      3  C   UNL     1       0.226   9.328  22.595  0.00  0.00    +0.000 A 
ATOM      4  C   UNL     1      -0.613  10.234  21.956  0.00  0.00    +0.000 A 
ATOM      5  C   UNL     1      -0.464  10.463  20.576  0.00  0.00    +0.000 A 
ATOM      6  C   UNL     1       0.256   9.547  19.799  0.00  0.00    +0.000 A 
ENDROOT
BRANCH   5   7
ATOM      7  N   UNL     1      -0.597  11.823  20.066  0.00  0.00    +0.000 N 
ATOM      8  C   UNL     1      -1.084  12.731  21.135  0.00  0.00    +0.000 C 
ATOM      9  C   UNL     1      -2.566  12.695  20.926  0.00  0.00    +0.000 A 
ATOM     10  C   UNL     1      -2.791  12.402  19.576  0.00  0.00    +0.000 A 
ATOM     11  C   UNL     1      -4.046  12.157  19.057  0.00  0.00    +0.000 A 
ATOM     12  C   UNL     1      -5.105  12.191  19.953  0.00  0.00    +0.000 A 
ATOM     13  F   UNL     1      -6.335  11.878  19.528  0.00  0.00    +0.000 F 
ATOM     14  C   UNL     1      -4.908  12.461  21.319  0.00  0.00    +0.000 A 
ATOM     15  C   UNL     1      -3.626  12.719  21.837  0.00  0.00    +0.000 A 
ATOM     16  C   UNL     1      -1.497  11.991  18.982  0.00  0.00    +0.000 C 
ATOM     17  O   UNL     1      -1.356  11.664  17.819  0.00  0.00    +0.000 OA
BRANCH  15  18
ATOM     18  C   UNL     1      -3.458  12.895  23.324  0.00  0.00    +0.000 C 
ATOM     19  F   UNL     1      -4.634  12.973  24.012  0.00  0.00    +0.000 F 
ATOM     20  F   UNL     1      -2.777  11.866  23.884  0.00  0.00    +0.000 F 
ATOM     21  F   UNL     1      -2.766  14.023  23.641  0.00  0.00    +0.000 F 
ENDBRANCH  15  18
ENDBRANCH   5   7
BRANCH   1  25
ATOM     22  C   UNL     1       3.843   6.639  17.415  0.00  0.00    +0.000 C 
ATOM     23  N   UNL     1       3.451   7.830  17.729  0.00  0.00    +0.000 NA
ATOM     24  N   UNL     1       2.441   8.253  18.546  0.00  0.00    +0.000 NA
ATOM     25  C   UNL     1       2.046   7.773  19.679  0.00  0.00    +0.000 C 
ATOM     26  C   UNL     1       2.462   6.477  20.331  0.00  0.00    +0.000 C 
ATOM     27  O   UNL     1       1.826   5.329  19.786  0.00  0.00    +0.000 OA
ATOM     28  C   UNL     1       2.021   5.152  18.382  0.00  0.00    +0.000 C 
ATOM     29  C   UNL     1       3.472   5.290  17.979  0.00  0.00    +0.000 C 
BRANCH  22  31
ATOM     30  C   UNL     1       5.222   5.162  15.980  0.00  0.00    +0.000 C 
ATOM     31  C   UNL     1       4.860   6.609  16.275  0.00  0.00    +0.000 C 
ENDBRANCH  22  31
ENDBRANCH   1  25
TORSDOF 4
ENDMDL
MODEL 9
REMARK VINA RESULT:      -7.7      3.315      4.805
REMARK  Name = 
REMARK  5 active torsions:
REMARK  status: ('A' for Active; 'I' for Inactive)
REMARK    1  A    between atoms: C_1  and  C_2
REMARK    2  A    between atoms: C_2  and  C_3
REMARK    3  A    between atoms: C_6  and  C_7
REMARK    4  A    between atoms: C_11  and  N_12
REMARK    5  A    between atoms: C_20  and  C_21
REMARK                            x       y       z     vdW  Elec       q    Type
REMARK                         _______ _______ _______ _____ _____    ______ ____
ROOT
ATOM      1  C   UNL     1       1.019   8.925  19.642  0.00  0.00    +0.000 A 
ATOM      2  C   UNL     1       0.988   8.254  20.874  0.00  0.00    +0.000 A 
ATOM      3  C   UNL     1       1.890   7.229  21.137  0.00  0.00    +0.000 A 
ATOM      4  C   UNL     1       2.740   6.790  20.129  0.00  0.00    +0.000 A 
ATOM      5  C   UNL     1       2.592   7.299  18.826  0.00  0.00    +0.000 A 
ATOM      6  C   UNL     1       1.857   8.474  18.624  0.00  0.00    +0.000 A 
ENDROOT
BRANCH   5   7
ATOM      7  N   UNL     1       2.743   6.395  17.692  0.00  0.00    +0.000 N 
ATOM      8  C   UNL     1       1.778   5.272  17.793  0.00  0.00    +0.000 C 
ATOM      9  C   UNL     1       2.582   4.230  18.507  0.00  0.00    +0.000 A 
ATOM     10  C   UNL     1       3.930   4.469  18.214  0.00  0.00    +0.000 A 
ATOM     11  C   UNL     1       4.965   3.781  18.814  0.00  0.00    +0.000 A 
ATOM     12  C   UNL     1       4.611   2.831  19.763  0.00  0.00    +0.000 A 
ATOM     13  F   UNL     1       5.570   2.191  20.441  0.00  0.00    +0.000 F 
ATOM     14  C   UNL     1       3.267   2.585  20.093  0.00  0.00    +0.000 A 
ATOM     15  C   UNL     1       2.218   3.284  19.469  0.00  0.00    +0.000 A 
ATOM     16  C   UNL     1       4.019   5.790  17.550  0.00  0.00    +0.000 C 
ATOM     17  O   UNL     1       5.061   6.293  17.173  0.00  0.00    +0.000 OA
BRANCH  15  18
ATOM     18  C   UNL     1       0.804   3.057  19.938  0.00  0.00    +0.000 C 
ATOM     19  F   UNL     1       0.018   2.394  19.040  0.00  0.00    +0.000 F 
ATOM     20  F   UNL     1       0.757   2.320  21.075  0.00  0.00    +0.000 F 
ATOM     21  F   UNL     1       0.154   4.220  20.214  0.00  0.00    +0.000 F 
ENDBRANCH  15  18
ENDBRANCH   5   7
BRANCH   1  25
ATOM     22  C   UNL     1      -2.175  12.159  19.883  0.00  0.00    +0.000 C 
ATOM     23  N   UNL     1      -1.272  11.635  20.644  0.00  0.00    +0.000 NA
ATOM     24  N   UNL     1      -0.514  10.509  20.488  0.00  0.00    +0.000 NA
ATOM     25  C   UNL     1       0.042  10.035  19.421  0.00  0.00    +0.000 C 
ATOM     26  C   UNL     1      -0.158  10.486  17.995  0.00  0.00    +0.000 C 
ATOM     27  O   UNL     1      -1.361  10.014  17.405  0.00  0.00    +0.000 OA
ATOM     28  C   UNL     1      -2.550  10.376  18.109  0.00  0.00    +0.000 C 
ATOM     29  C   UNL     1      -2.585  11.845  18.465  0.00  0.00    +0.000 C 
BRANCH  22  31
ATOM     30  C   UNL     1      -4.390  12.842  20.760  0.00  0.00    +0.000 C 
ATOM     31  C   UNL     1      -2.954  13.293  20.548  0.00  0.00    +0.000 C 
ENDBRANCH  22  31
ENDBRANCH   1  25
TORSDOF 4
ENDMDL
