MODEL 1
REMARK VINA RESULT:      -9.7      0.000      0.000
REMARK  Name = 
REMARK  4 active torsions:
REMARK  status: ('A' for Active; 'I' for Inactive)
REMARK    1  A    between atoms: C_7  and  C_8
REMARK    2  A    between atoms: N_10  and  C_11
REMARK    3  A    between atoms: C_15  and  S_16
REMARK    4  A    between atoms: S_16  and  N_19
REMARK                            x       y       z     vdW  Elec       q    Type
REMARK                         _______ _______ _______ _____ _____    ______ ____
ROOT
ATOM      1  C   UNL     1       1.947   8.591  18.438  0.00  0.00    +0.000 C 
ATOM      2  O   UNL     1       2.042   8.808  17.236  0.00  0.00    +0.000 OA
ATOM      3  N   UNL     1       2.239   7.396  19.081  0.00  0.00    +0.000 N 
ATOM      4  H   UNL     1       1.937   7.290  20.041  0.00  0.00    +0.000 HD
ENDROOT
BRANCH   1  11
ATOM      5  O   UNL     1      -1.550  13.159  23.560  0.00  0.00    +0.000 OA
ATOM      6  C   UNL     1      -1.054  12.298  22.838  0.00  0.00    +0.000 C 
ATOM      7  C   UNL     1      -1.192  10.800  23.107  0.00  0.00    +0.000 C 
ATOM      8  O   UNL     1      -0.280   9.897  22.499  0.00  0.00    +0.000 OA
ATOM      9  C   UNL     1       0.229  10.324  21.304  0.00  0.00    +0.000 A 
ATOM     10  C   UNL     1       0.842   9.358  20.512  0.00  0.00    +0.000 A 
ATOM     11  C   UNL     1       1.413   9.703  19.276  0.00  0.00    +0.000 A 
ATOM     12  C   UNL     1       1.379  11.036  18.849  0.00  0.00    +0.000 A 
ATOM     13  C   UNL     1       0.774  12.012  19.656  0.00  0.00    +0.000 A 
ATOM     14  C   UNL     1       0.196  11.652  20.878  0.00  0.00    +0.000 A 
ATOM     15  N   UNL     1      -0.400  12.624  21.681  0.00  0.00    +0.000 N 
ATOM     16  H   UNL     1      -0.366  13.606  21.438  0.00  0.00    +0.000 HD
ENDBRANCH   1  11
BRANCH   3  17
ATOM     17  C   UNL     1       2.708   6.218  18.440  0.00  0.00    +0.000 A 
ATOM     18  C   UNL     1       1.911   5.088  18.228  0.00  0.00    +0.000 A 
ATOM     19  C   UNL     1       2.435   3.927  17.650  0.00  0.00    +0.000 A 
ATOM     20  C   UNL     1       3.773   3.872  17.276  0.00  0.00    +0.000 A 
ATOM     21  C   UNL     1       4.575   4.997  17.466  0.00  0.00    +0.000 A 
ATOM     22  C   UNL     1       4.037   6.180  18.005  0.00  0.00    +0.000 A 
BRANCH  21  23
ATOM     23  S   UNL     1       6.257   4.982  16.899  0.00  0.00    +0.000 S 
ATOM     24  O   UNL     1       6.557   6.297  16.363  0.00  0.00    +0.000 OA
ATOM     25  O   UNL     1       7.094   4.410  17.930  0.00  0.00    +0.000 OA
BRANCH  23  26
ATOM     26  N   UNL     1       6.285   3.962  15.571  0.00  0.00    +0.000 N 
ATOM     27  C   UNL     1       6.733   4.335  14.306  0.00  0.00    +0.000 C 
ATOM     28  N   UNL     1       7.626   5.247  14.120  0.00  0.00    +0.000 NA
ATOM     29  C   UNL     1       7.802   5.350  12.665  0.00  0.00    +0.000 C 
ATOM     30  C   UNL     1       7.202   4.085  12.075  0.00  0.00    +0.000 C 
ATOM     31  C   UNL     1       6.164   3.674  13.095  0.00  0.00    +0.000 C 
ATOM     32  H   UNL     1       5.671   3.163  15.702  0.00  0.00    +0.000 HD
ENDBRANCH  23  26
ENDBRANCH  21  23
ENDBRANCH   3  17
TORSDOF 4
ENDMDL
MODEL 2
REMARK VINA RESULT:      -9.4      1.025      1.033
REMARK  Name = 
REMARK  4 active torsions:
REMARK  status: ('A' for Active; 'I' for Inactive)
REMARK    1  A    between atoms: C_7  and  C_8
REMARK    2  A    between atoms: N_10  and  C_11
REMARK    3  A    between atoms: C_15  and  S_16
REMARK    4  A    between atoms: S_16  and  N_19
REMARK                            x       y       z     vdW  Elec       q    Type
REMARK                         _______ _______ _______ _____ _____    ______ ____
ROOT
ATOM      1  C   UNL     1       2.146   8.089  18.733  0.00  0.00    +0.000 C 
ATOM      2  O   UNL     1       2.507   8.191  17.566  0.00  0.00    +0.000 OA
ATOM      3  N   UNL     1       2.462   7.053  19.601  0.00  0.00    +0.000 N 
ATOM      4  H   UNL     1       1.947   6.991  20.470  0.00  0.00    +0.000 HD
ENDROOT
BRANCH   1  11
ATOM      5  O   UNL     1      -2.460  12.776  22.751  0.00  0.00    +0.000 OA
ATOM      6  C   UNL     1      -1.696  11.948  22.263  0.00  0.00    +0.000 C 
ATOM      7  C   UNL     1      -0.999  10.865  23.085  0.00  0.00    +0.000 C 
ATOM      8  O   UNL     1       0.154  10.225  22.557  0.00  0.00    +0.000 OA
ATOM      9  C   UNL     1       0.196  10.168  21.193  0.00  0.00    +0.000 A 
ATOM     10  C   UNL     1       1.104   9.269  20.638  0.00  0.00    +0.000 A 
ATOM     11  C   UNL     1       1.235   9.154  19.245  0.00  0.00    +0.000 A 
ATOM     12  C   UNL     1       0.457   9.963  18.409  0.00  0.00    +0.000 A 
ATOM     13  C   UNL     1      -0.447  10.878  18.969  0.00  0.00    +0.000 A 
ATOM     14  C   UNL     1      -0.579  10.974  20.359  0.00  0.00    +0.000 A 
ATOM     15  N   UNL     1      -1.474  11.888  20.913  0.00  0.00    +0.000 N 
ATOM     16  H   UNL     1      -1.988  12.543  20.338  0.00  0.00    +0.000 HD
ENDBRANCH   1  11
BRANCH   3  17
ATOM     17  C   UNL     1       3.272   5.933  19.274  0.00  0.00    +0.000 A 
ATOM     18  C   UNL     1       3.060   4.652  19.796  0.00  0.00    +0.000 A 
ATOM     19  C   UNL     1       3.922   3.592  19.495  0.00  0.00    +0.000 A 
ATOM     20  C   UNL     1       5.020   3.796  18.666  0.00  0.00    +0.000 A 
ATOM     21  C   UNL     1       5.234   5.063  18.125  0.00  0.00    +0.000 A 
ATOM     22  C   UNL     1       4.341   6.118  18.392  0.00  0.00    +0.000 A 
BRANCH  21  23
ATOM     23  S   UNL     1       6.569   5.316  16.983  0.00  0.00    +0.000 S 
ATOM     24  O   UNL     1       6.387   6.619  16.370  0.00  0.00    +0.000 OA
ATOM     25  O   UNL     1       7.815   4.990  17.639  0.00  0.00    +0.000 OA
BRANCH  23  26
ATOM     26  N   UNL     1       6.325   4.221  15.741  0.00  0.00    +0.000 N 
ATOM     27  C   UNL     1       6.699   4.440  14.417  0.00  0.00    +0.000 C 
ATOM     28  N   UNL     1       7.691   5.195  14.086  0.00  0.00    +0.000 NA
ATOM     29  C   UNL     1       7.741   5.176  12.618  0.00  0.00    +0.000 C 
ATOM     30  C   UNL     1       6.913   3.980  12.180  0.00  0.00    +0.000 C 
ATOM     31  C   UNL     1       5.929   3.796  13.314  0.00  0.00    +0.000 C 
ATOM     32  H   UNL     1       5.618   3.533  15.984  0.00  0.00    +0.000 HD
ENDBRANCH  23  26
ENDBRANCH  21  23
ENDBRANCH   3  17
TORSDOF 4
ENDMDL
MODEL 3
REMARK VINA RESULT:      -9.3      1.292      1.696
REMARK  Name = 
REMARK  4 active torsions:
REMARK  status: ('A' for Active; 'I' for Inactive)
REMARK    1  A    between atoms: C_7  and  C_8
REMARK    2  A    between atoms: N_10  and  C_11
REMARK    3  A    between atoms: C_15  and  S_16
REMARK    4  A    between atoms: S_16  and  N_19
REMARK                            x       y       z     vdW  Elec       q    Type
REMARK                         _______ _______ _______ _____ _____    ______ ____
ROOT
ATOM      1  C   UNL     1       1.988   7.735  19.568  0.00  0.00    +0.000 C 
ATOM      2  O   UNL     1       2.020   7.994  18.371  0.00  0.00    +0.000 OA
ATOM      3  N   UNL     1       2.551   6.624  20.181  0.00  0.00    +0.000 N 
ATOM      4  H   UNL     1       2.290   6.431  21.140  0.00  0.00    +0.000 HD
ENDROOT
BRANCH   1  11
ATOM      5  O   UNL     1      -1.900  13.565  22.765  0.00  0.00    +0.000 OA
ATOM      6  C   UNL     1      -1.288  12.728  22.107  0.00  0.00    +0.000 C 
ATOM      7  C   UNL     1      -0.983  12.892  20.619  0.00  0.00    +0.000 C 
ATOM      8  O   UNL     1      -0.652  11.747  19.846  0.00  0.00    +0.000 OA
ATOM      9  C   UNL     1      -0.052  10.742  20.550  0.00  0.00    +0.000 A 
ATOM     10  C   UNL     1       0.594   9.762  19.801  0.00  0.00    +0.000 A 
ATOM     11  C   UNL     1       1.222   8.677  20.434  0.00  0.00    +0.000 A 
ATOM     12  C   UNL     1       1.181   8.574  21.829  0.00  0.00    +0.000 A 
ATOM     13  C   UNL     1       0.517   9.555  22.582  0.00  0.00    +0.000 A 
ATOM     14  C   UNL     1      -0.093  10.638  21.941  0.00  0.00    +0.000 A 
ATOM     15  N   UNL     1      -0.757  11.609  22.690  0.00  0.00    +0.000 N 
ATOM     16  H   UNL     1      -0.875  11.517  23.691  0.00  0.00    +0.000 HD
ENDBRANCH   1  11
BRANCH   3  17
ATOM     17  C   UNL     1       3.271   5.599  19.512  0.00  0.00    +0.000 A 
ATOM     18  C   UNL     1       3.054   4.235  19.736  0.00  0.00    +0.000 A 
ATOM     19  C   UNL     1       3.832   3.261  19.100  0.00  0.00    +0.000 A 
ATOM     20  C   UNL     1       4.849   3.636  18.228  0.00  0.00    +0.000 A 
ATOM     21  C   UNL     1       5.064   4.991  17.981  0.00  0.00    +0.000 A 
ATOM     22  C   UNL     1       4.252   5.969  18.586  0.00  0.00    +0.000 A 
BRANCH  21  23
ATOM     23  S   UNL     1       6.286   5.484  16.793  0.00  0.00    +0.000 S 
ATOM     24  O   UNL     1       5.812   6.694  16.145  0.00  0.00    +0.000 OA
ATOM     25  O   UNL     1       7.588   5.458  17.420  0.00  0.00    +0.000 OA
BRANCH  23  26
ATOM     26  N   UNL     1       6.256   4.317  15.592  0.00  0.00    +0.000 N 
ATOM     27  C   UNL     1       6.697   4.523  14.287  0.00  0.00    +0.000 C 
ATOM     28  N   UNL     1       7.619   5.373  13.986  0.00  0.00    +0.000 NA
ATOM     29  C   UNL     1       7.775   5.300  12.527  0.00  0.00    +0.000 C 
ATOM     30  C   UNL     1       7.120   3.999  12.095  0.00  0.00    +0.000 C 
ATOM     31  C   UNL     1       6.085   3.749  13.168  0.00  0.00    +0.000 C 
ATOM     32  H   UNL     1       5.616   3.563  15.822  0.00  0.00    +0.000 HD
ENDBRANCH  23  26
ENDBRANCH  21  23
ENDBRANCH   3  17
TORSDOF 4
ENDMDL
MODEL 4
REMARK VINA RESULT:      -9.2      6.425      8.170
REMARK  Name = 
REMARK  4 active torsions:
REMARK  status: ('A' for Active; 'I' for Inactive)
REMARK    1  A    between atoms: C_7  and  C_8
REMARK    2  A    between atoms: N_10  and  C_11
REMARK    3  A    between atoms: C_15  and  S_16
REMARK    4  A    between atoms: S_16  and  N_19
REMARK                            x       y       z     vdW  Elec       q    Type
REMARK                         _______ _______ _______ _____ _____    ______ ____
ROOT
ATOM      1  C   UNL     1       8.999  10.202  18.809  0.00  0.00    +0.000 C 
ATOM      2  O   UNL     1       9.001   9.974  20.013  0.00  0.00    +0.000 OA
ATOM      3  N   UNL     1       8.562   9.342  17.812  0.00  0.00    +0.000 N 
ATOM      4  H   UNL     1       8.791   9.574  16.854  0.00  0.00    +0.000 HD
ENDROOT
BRANCH   1  11
ATOM      5  O   UNL     1      10.504  17.516  16.919  0.00  0.00    +0.000 OA
ATOM      6  C   UNL     1      10.110  16.410  17.278  0.00  0.00    +0.000 C 
ATOM      7  C   UNL     1       8.747  16.177  17.929  0.00  0.00    +0.000 C 
ATOM      8  O   UNL     1       8.527  14.989  18.675  0.00  0.00    +0.000 OA
ATOM      9  C   UNL     1       9.273  13.918  18.271  0.00  0.00    +0.000 A 
ATOM     10  C   UNL     1       8.859  12.669  18.724  0.00  0.00    +0.000 A 
ATOM     11  C   UNL     1       9.573  11.510  18.378  0.00  0.00    +0.000 A 
ATOM     12  C   UNL     1      10.721  11.618  17.585  0.00  0.00    +0.000 A 
ATOM     13  C   UNL     1      11.146  12.880  17.141  0.00  0.00    +0.000 A 
ATOM     14  C   UNL     1      10.418  14.025  17.480  0.00  0.00    +0.000 A 
ATOM     15  N   UNL     1      10.844  15.278  17.042  0.00  0.00    +0.000 N 
ATOM     16  H   UNL     1      11.714  15.396  16.539  0.00  0.00    +0.000 HD
ENDBRANCH   1  11
BRANCH   3  17
ATOM     17  C   UNL     1       8.034   8.041  18.030  0.00  0.00    +0.000 A 
ATOM     18  C   UNL     1       8.460   7.201  19.065  0.00  0.00    +0.000 A 
ATOM     19  C   UNL     1       7.956   5.903  19.202  0.00  0.00    +0.000 A 
ATOM     20  C   UNL     1       7.016   5.417  18.299  0.00  0.00    +0.000 A 
ATOM     21  C   UNL     1       6.569   6.250  17.273  0.00  0.00    +0.000 A 
ATOM     22  C   UNL     1       7.043   7.571  17.163  0.00  0.00    +0.000 A 
BRANCH  21  23
ATOM     23  S   UNL     1       5.294   5.684  16.176  0.00  0.00    +0.000 S 
ATOM     24  O   UNL     1       4.996   6.761  15.250  0.00  0.00    +0.000 OA
ATOM     25  O   UNL     1       5.651   4.376  15.678  0.00  0.00    +0.000 OA
BRANCH  23  26
ATOM     26  N   UNL     1       3.915   5.533  17.114  0.00  0.00    +0.000 N 
ATOM     27  C   UNL     1       3.338   4.316  17.468  0.00  0.00    +0.000 C 
ATOM     28  N   UNL     1       4.019   3.228  17.592  0.00  0.00    +0.000 NA
ATOM     29  C   UNL     1       3.051   2.183  17.953  0.00  0.00    +0.000 C 
ATOM     30  C   UNL     1       1.803   2.908  18.428  0.00  0.00    +0.000 C 
ATOM     31  C   UNL     1       1.867   4.236  17.709  0.00  0.00    +0.000 C 
ATOM     32  H   UNL     1       3.384   6.398  17.137  0.00  0.00    +0.000 HD
ENDBRANCH  23  26
ENDBRANCH  21  23
ENDBRANCH   3  17
TORSDOF 4
ENDMDL
MODEL 5
REMARK VINA RESULT:      -9.2      1.200      1.447
REMARK  Name = 
REMARK  4 active torsions:
REMARK  status: ('A' for Active; 'I' for Inactive)
REMARK    1  A    between atoms: C_7  and  C_8
REMARK    2  A    between atoms: N_10  and  C_11
REMARK    3  A    between atoms: C_15  and  S_16
REMARK    4  A    between atoms: S_16  and  N_19
REMARK                            x       y       z     vdW  Elec       q    Type
REMARK                         _______ _______ _______ _____ _____    ______ ____
ROOT
ATOM      1  C   UNL     1       2.033   7.490  19.593  0.00  0.00    +0.000 C 
ATOM      2  O   UNL     1       2.058   6.691  20.522  0.00  0.00    +0.000 OA
ATOM      3  N   UNL     1       2.619   7.318  18.348  0.00  0.00    +0.000 N 
ATOM      4  H   UNL     1       2.690   8.127  17.743  0.00  0.00    +0.000 HD
ENDROOT
BRANCH   1  11
ATOM      5  O   UNL     1      -1.854  13.547  22.339  0.00  0.00    +0.000 OA
ATOM      6  C   UNL     1      -1.255  12.511  22.060  0.00  0.00    +0.000 C 
ATOM      7  C   UNL     1      -1.033  11.378  23.060  0.00  0.00    +0.000 C 
ATOM      8  O   UNL     1      -0.010  10.424  22.814  0.00  0.00    +0.000 OA
ATOM      9  C   UNL     1       0.270  10.222  21.492  0.00  0.00    +0.000 A 
ATOM     10  C   UNL     1       0.998   9.076  21.182  0.00  0.00    +0.000 A 
ATOM     11  C   UNL     1       1.353   8.793  19.853  0.00  0.00    +0.000 A 
ATOM     12  C   UNL     1       0.984   9.680  18.836  0.00  0.00    +0.000 A 
ATOM     13  C   UNL     1       0.263  10.842  19.152  0.00  0.00    +0.000 A 
ATOM     14  C   UNL     1      -0.096  11.106  20.478  0.00  0.00    +0.000 A 
ATOM     15  N   UNL     1      -0.809  12.264  20.790  0.00  0.00    +0.000 N 
ATOM     16  H   UNL     1      -1.016  12.964  20.090  0.00  0.00    +0.000 HD
ENDBRANCH   1  11
BRANCH   3  17
ATOM     17  C   UNL     1       3.348   6.169  17.940  0.00  0.00    +0.000 A 
ATOM     18  C   UNL     1       2.768   4.904  17.791  0.00  0.00    +0.000 A 
ATOM     19  C   UNL     1       3.538   3.787  17.449  0.00  0.00    +0.000 A 
ATOM     20  C   UNL     1       4.910   3.914  17.254  0.00  0.00    +0.000 A 
ATOM     21  C   UNL     1       5.497   5.173  17.381  0.00  0.00    +0.000 A 
ATOM     22  C   UNL     1       4.715   6.303  17.681  0.00  0.00    +0.000 A 
BRANCH  21  23
ATOM     23  S   UNL     1       7.226   5.373  17.034  0.00  0.00    +0.000 S 
ATOM     24  O   UNL     1       7.698   6.527  17.778  0.00  0.00    +0.000 OA
ATOM     25  O   UNL     1       7.885   4.096  17.181  0.00  0.00    +0.000 OA
BRANCH  23  26
ATOM     26  N   UNL     1       7.321   5.833  15.426  0.00  0.00    +0.000 N 
ATOM     27  C   UNL     1       7.080   4.981  14.351  0.00  0.00    +0.000 C 
ATOM     28  N   UNL     1       6.282   3.971  14.424  0.00  0.00    +0.000 NA
ATOM     29  C   UNL     1       6.319   3.330  13.103  0.00  0.00    +0.000 C 
ATOM     30  C   UNL     1       6.915   4.353  12.152  0.00  0.00    +0.000 C 
ATOM     31  C   UNL     1       7.771   5.217  13.050  0.00  0.00    +0.000 C 
ATOM     32  H   UNL     1       7.859   6.688  15.315  0.00  0.00    +0.000 HD
ENDBRANCH  23  26
ENDBRANCH  21  23
ENDBRANCH   3  17
TORSDOF 4
ENDMDL
MODEL 6
REMARK VINA RESULT:      -9.1      1.294      1.816
REMARK  Name = 
REMARK  4 active torsions:
REMARK  status: ('A' for Active; 'I' for Inactive)
REMARK    1  A    between atoms: C_7  and  C_8
REMARK    2  A    between atoms: N_10  and  C_11
REMARK    3  A    between atoms: C_15  and  S_16
REMARK    4  A    between atoms: S_16  and  N_19
REMARK                            x       y       z     vdW  Elec       q    Type
REMARK                         _______ _______ _______ _____ _____    ______ ____
ROOT
ATOM      1  C   UNL     1       1.939   8.531  18.442  0.00  0.00    +0.000 C 
ATOM      2  O   UNL     1       2.064   8.769  17.246  0.00  0.00    +0.000 OA
ATOM      3  N   UNL     1       2.217   7.326  19.071  0.00  0.00    +0.000 N 
ATOM      4  H   UNL     1       1.891   7.203  20.022  0.00  0.00    +0.000 HD
ENDROOT
BRANCH   1  11
ATOM      5  O   UNL     1      -0.144  15.148  21.789  0.00  0.00    +0.000 OA
ATOM      6  C   UNL     1       0.260  14.193  21.131  0.00  0.00    +0.000 C 
ATOM      7  C   UNL     1       1.020  14.345  19.814  0.00  0.00    +0.000 C 
ATOM      8  O   UNL     1       1.091  13.243  18.921  0.00  0.00    +0.000 OA
ATOM      9  C   UNL     1       1.026  12.019  19.525  0.00  0.00    +0.000 A 
ATOM     10  C   UNL     1       1.431  10.929  18.759  0.00  0.00    +0.000 A 
ATOM     11  C   UNL     1       1.381   9.628  19.285  0.00  0.00    +0.000 A 
ATOM     12  C   UNL     1       0.903   9.427  20.585  0.00  0.00    +0.000 A 
ATOM     13  C   UNL     1       0.482  10.525  21.351  0.00  0.00    +0.000 A 
ATOM     14  C   UNL     1       0.549  11.818  20.820  0.00  0.00    +0.000 A 
ATOM     15  N   UNL     1       0.125  12.907  21.581  0.00  0.00    +0.000 N 
ATOM     16  H   UNL     1      -0.301  12.785  22.490  0.00  0.00    +0.000 HD
ENDBRANCH   1  11
BRANCH   3  17
ATOM     17  C   UNL     1       2.706   6.160  18.423  0.00  0.00    +0.000 A 
ATOM     18  C   UNL     1       1.925   5.021  18.200  0.00  0.00    +0.000 A 
ATOM     19  C   UNL     1       2.468   3.871  17.615  0.00  0.00    +0.000 A 
ATOM     20  C   UNL     1       3.808   3.839  17.244  0.00  0.00    +0.000 A 
ATOM     21  C   UNL     1       4.593   4.975  17.444  0.00  0.00    +0.000 A 
ATOM     22  C   UNL     1       4.036   6.145  17.992  0.00  0.00    +0.000 A 
BRANCH  21  23
ATOM     23  S   UNL     1       6.277   4.988  16.883  0.00  0.00    +0.000 S 
ATOM     24  O   UNL     1       6.557   6.311  16.353  0.00  0.00    +0.000 OA
ATOM     25  O   UNL     1       7.119   4.424  17.913  0.00  0.00    +0.000 OA
BRANCH  23  26
ATOM     26  N   UNL     1       6.324   3.976  15.550  0.00  0.00    +0.000 N 
ATOM     27  C   UNL     1       6.761   4.363  14.286  0.00  0.00    +0.000 C 
ATOM     28  N   UNL     1       7.633   5.296  14.102  0.00  0.00    +0.000 NA
ATOM     29  C   UNL     1       7.803   5.409  12.647  0.00  0.00    +0.000 C 
ATOM     30  C   UNL     1       7.230   4.134  12.052  0.00  0.00    +0.000 C 
ATOM     31  C   UNL     1       6.204   3.696  13.073  0.00  0.00    +0.000 C 
ATOM     32  H   UNL     1       5.728   3.163  15.679  0.00  0.00    +0.000 HD
ENDBRANCH  23  26
ENDBRANCH  21  23
ENDBRANCH   3  17
TORSDOF 4
ENDMDL
MODEL 7
REMARK VINA RESULT:      -9.1      1.259      1.313
REMARK  Name = 
REMARK  4 active torsions:
REMARK  status: ('A' for Active; 'I' for Inactive)
REMARK    1  A    between atoms: C_7  and  C_8
REMARK    2  A    between atoms: N_10  and  C_11
REMARK    3  A    between atoms: C_15  and  S_16
REMARK    4  A    between atoms: S_16  and  N_19
REMARK                            x       y       z     vdW  Elec       q    Type
REMARK                         _______ _______ _______ _____ _____    ______ ____
ROOT
ATOM      1  C   UNL     1       1.704   7.644  20.208  0.00  0.00    +0.000 C 
ATOM      2  O   UNL     1       1.546   6.887  21.158  0.00  0.00    +0.000 OA
ATOM      3  N   UNL     1       2.475   7.395  19.081  0.00  0.00    +0.000 N 
ATOM      4  H   UNL     1       2.676   8.173  18.465  0.00  0.00    +0.000 HD
ENDROOT
BRANCH   1  11
ATOM      5  O   UNL     1      -2.148  14.027  22.144  0.00  0.00    +0.000 OA
ATOM      6  C   UNL     1      -1.564  12.956  21.999  0.00  0.00    +0.000 C 
ATOM      7  C   UNL     1      -1.422  11.923  23.115  0.00  0.00    +0.000 C 
ATOM      8  O   UNL     1      -0.414  10.927  23.017  0.00  0.00    +0.000 OA
ATOM      9  C   UNL     1      -0.075  10.588  21.737  0.00  0.00    +0.000 A 
ATOM     10  C   UNL     1       0.636   9.402  21.578  0.00  0.00    +0.000 A 
ATOM     11  C   UNL     1       1.048   8.980  20.304  0.00  0.00    +0.000 A 
ATOM     12  C   UNL     1       0.754   9.771  19.187  0.00  0.00    +0.000 A 
ATOM     13  C   UNL     1       0.049  10.974  19.350  0.00  0.00    +0.000 A 
ATOM     14  C   UNL     1      -0.367  11.376  20.623  0.00  0.00    +0.000 A 
ATOM     15  N   UNL     1      -1.063  12.574  20.784  0.00  0.00    +0.000 N 
ATOM     16  H   UNL     1      -1.216  13.206  20.009  0.00  0.00    +0.000 HD
ENDBRANCH   1  11
BRANCH   3  17
ATOM     17  C   UNL     1       3.210   6.203  18.842  0.00  0.00    +0.000 A 
ATOM     18  C   UNL     1       2.838   4.955  19.353  0.00  0.00    +0.000 A 
ATOM     19  C   UNL     1       3.628   3.819  19.144  0.00  0.00    +0.000 A 
ATOM     20  C   UNL     1       4.812   3.912  18.420  0.00  0.00    +0.000 A 
ATOM     21  C   UNL     1       5.185   5.147  17.889  0.00  0.00    +0.000 A 
ATOM     22  C   UNL     1       4.368   6.279  18.062  0.00  0.00    +0.000 A 
BRANCH  21  23
ATOM     23  S   UNL     1       6.637   5.263  16.875  0.00  0.00    +0.000 S 
ATOM     24  O   UNL     1       6.626   6.565  16.232  0.00  0.00    +0.000 OA
ATOM     25  O   UNL     1       7.784   4.846  17.649  0.00  0.00    +0.000 OA
BRANCH  23  26
ATOM     26  N   UNL     1       6.416   4.168  15.628  0.00  0.00    +0.000 N 
ATOM     27  C   UNL     1       6.768   4.408  14.302  0.00  0.00    +0.000 C 
ATOM     28  N   UNL     1       7.731   5.197  13.966  0.00  0.00    +0.000 NA
ATOM     29  C   UNL     1       7.765   5.189  12.497  0.00  0.00    +0.000 C 
ATOM     30  C   UNL     1       6.972   3.969  12.060  0.00  0.00    +0.000 C 
ATOM     31  C   UNL     1       6.008   3.745  13.203  0.00  0.00    +0.000 C 
ATOM     32  H   UNL     1       5.735   3.455  15.875  0.00  0.00    +0.000 HD
ENDBRANCH  23  26
ENDBRANCH  21  23
ENDBRANCH   3  17
TORSDOF 4
ENDMDL
MODEL 8
REMARK VINA RESULT:      -9.0      1.202      1.779
REMARK  Name = 
REMARK  4 active torsions:
REMARK  status: ('A' for Active; 'I' for Inactive)
REMARK    1  A    between atoms: C_7  and  C_8
REMARK    2  A    between atoms: N_10  and  C_11
REMARK    3  A    between atoms: C_15  and  S_16
REMARK    4  A    between atoms: S_16  and  N_19
REMARK                            x       y       z     vdW  Elec       q    Type
REMARK                         _______ _______ _______ _____ _____    ______ ____
ROOT
ATOM      1  C   UNL     1       2.080   7.758  18.937  0.00  0.00    +0.000 C 
ATOM      2  O   UNL     1       2.125   8.249  17.815  0.00  0.00    +0.000 OA
ATOM      3  N   UNL     1       2.609   6.533  19.317  0.00  0.00    +0.000 N 
ATOM      4  H   UNL     1       2.339   6.160  20.218  0.00  0.00    +0.000 HD
ENDROOT
BRANCH   1  11
ATOM      5  O   UNL     1      -1.716  12.925  23.205  0.00  0.00    +0.000 OA
ATOM      6  C   UNL     1      -1.121  12.219  22.395  0.00  0.00    +0.000 C 
ATOM      7  C   UNL     1      -0.848  12.645  20.954  0.00  0.00    +0.000 C 
ATOM      8  O   UNL     1      -0.538  11.657  19.983  0.00  0.00    +0.000 OA
ATOM      9  C   UNL     1       0.073  10.542  20.483  0.00  0.00    +0.000 A 
ATOM     10  C   UNL     1       0.699   9.711  19.558  0.00  0.00    +0.000 A 
ATOM     11  C   UNL     1       1.337   8.531  19.973  0.00  0.00    +0.000 A 
ATOM     12  C   UNL     1       1.325   8.181  21.328  0.00  0.00    +0.000 A 
ATOM     13  C   UNL     1       0.681   9.012  22.258  0.00  0.00    +0.000 A 
ATOM     14  C   UNL     1       0.062  10.192  21.834  0.00  0.00    +0.000 A 
ATOM     15  N   UNL     1      -0.583  11.013  22.758  0.00  0.00    +0.000 N 
ATOM     16  H   UNL     1      -0.679  10.745  23.729  0.00  0.00    +0.000 HD
ENDBRANCH   1  11
BRANCH   3  17
ATOM     17  C   UNL     1       3.304   5.641  18.456  0.00  0.00    +0.000 A 
ATOM     18  C   UNL     1       2.714   4.507  17.886  0.00  0.00    +0.000 A 
ATOM     19  C   UNL     1       3.455   3.622  17.095  0.00  0.00    +0.000 A 
ATOM     20  C   UNL     1       4.807   3.853  16.864  0.00  0.00    +0.000 A 
ATOM     21  C   UNL     1       5.403   4.989  17.411  0.00  0.00    +0.000 A 
ATOM     22  C   UNL     1       4.647   5.902  18.169  0.00  0.00    +0.000 A 
BRANCH  21  23
ATOM     23  S   UNL     1       7.100   5.355  17.041  0.00  0.00    +0.000 S 
ATOM     24  O   UNL     1       7.478   6.529  17.807  0.00  0.00    +0.000 OA
ATOM     25  O   UNL     1       7.875   4.140  17.144  0.00  0.00    +0.000 OA
BRANCH  23  26
ATOM     26  N   UNL     1       7.122   5.861  15.445  0.00  0.00    +0.000 N 
ATOM     27  C   UNL     1       7.009   5.007  14.350  0.00  0.00    +0.000 C 
ATOM     28  N   UNL     1       6.371   3.888  14.398  0.00  0.00    +0.000 NA
ATOM     29  C   UNL     1       6.501   3.290  13.063  0.00  0.00    +0.000 C 
ATOM     30  C   UNL     1       6.937   4.412  12.136  0.00  0.00    +0.000 C 
ATOM     31  C   UNL     1       7.655   5.374  13.056  0.00  0.00    +0.000 C 
ATOM     32  H   UNL     1       7.527   6.789  15.354  0.00  0.00    +0.000 HD
ENDBRANCH  23  26
ENDBRANCH  21  23
ENDBRANCH   3  17
TORSDOF 4
ENDMDL
MODEL 9
REMARK VINA RESULT:      -8.9      1.588      2.218
REMARK  Name = 
REMARK  4 active torsions:
REMARK  status: ('A' for Active; 'I' for Inactive)
REMARK    1  A    between atoms: C_7  and  C_8
REMARK    2  A    between atoms: N_10  and  C_11
REMARK    3  A    between atoms: C_15  and  S_16
REMARK    4  A    between atoms: S_16  and  N_19
REMARK                            x       y       z     vdW  Elec       q    Type
REMARK                         _______ _______ _______ _____ _____    ______ ____
ROOT
ATOM      1  C   UNL     1       2.004   7.218  19.861  0.00  0.00    +0.000 C 
ATOM      2  O   UNL     1       2.007   6.300  20.674  0.00  0.00    +0.000 OA
ATOM      3  N   UNL     1       2.591   7.200  18.604  0.00  0.00    +0.000 N 
ATOM      4  H   UNL     1       2.683   8.081  18.114  0.00  0.00    +0.000 HD
ENDROOT
BRANCH   1  11
ATOM      5  O   UNL     1      -0.658  14.386  20.783  0.00  0.00    +0.000 OA
ATOM      6  C   UNL     1      -0.174  13.299  20.482  0.00  0.00    +0.000 C 
ATOM      7  C   UNL     1       0.548  13.041  19.160  0.00  0.00    +0.000 C 
ATOM      8  O   UNL     1       0.712  11.706  18.705  0.00  0.00    +0.000 OA
ATOM      9  C   UNL     1       0.775  10.772  19.701  0.00  0.00    +0.000 A 
ATOM     10  C   UNL     1       1.272   9.521  19.345  0.00  0.00    +0.000 A 
ATOM     11  C   UNL     1       1.355   8.489  20.294  0.00  0.00    +0.000 A 
ATOM     12  C   UNL     1       0.918   8.719  21.604  0.00  0.00    +0.000 A 
ATOM     13  C   UNL     1       0.404   9.976  21.957  0.00  0.00    +0.000 A 
ATOM     14  C   UNL     1       0.339  11.000  21.006  0.00  0.00    +0.000 A 
ATOM     15  N   UNL     1      -0.177  12.247  21.358  0.00  0.00    +0.000 N 
ATOM     16  H   UNL     1      -0.577  12.417  22.272  0.00  0.00    +0.000 HD
ENDBRANCH   1  11
BRANCH   3  17
ATOM     17  C   UNL     1       3.293   6.099  18.046  0.00  0.00    +0.000 A 
ATOM     18  C   UNL     1       2.693   4.866  17.767  0.00  0.00    +0.000 A 
ATOM     19  C   UNL     1       3.439   3.789  17.276  0.00  0.00    +0.000 A 
ATOM     20  C   UNL     1       4.807   3.924  17.059  0.00  0.00    +0.000 A 
ATOM     21  C   UNL     1       5.414   5.153  17.317  0.00  0.00    +0.000 A 
ATOM     22  C   UNL     1       4.655   6.249  17.767  0.00  0.00    +0.000 A 
BRANCH  21  23
ATOM     23  S   UNL     1       7.136   5.375  16.947  0.00  0.00    +0.000 S 
ATOM     24  O   UNL     1       7.597   6.548  17.668  0.00  0.00    +0.000 OA
ATOM     25  O   UNL     1       7.817   4.110  17.108  0.00  0.00    +0.000 OA
BRANCH  23  26
ATOM     26  N   UNL     1       7.207   5.810  15.332  0.00  0.00    +0.000 N 
ATOM     27  C   UNL     1       7.017   4.926  14.273  0.00  0.00    +0.000 C 
ATOM     28  N   UNL     1       6.277   3.874  14.364  0.00  0.00    +0.000 NA
ATOM     29  C   UNL     1       6.353   3.211  13.054  0.00  0.00    +0.000 C 
ATOM     30  C   UNL     1       6.892   4.250  12.085  0.00  0.00    +0.000 C 
ATOM     31  C   UNL     1       7.695   5.177  12.968  0.00  0.00    +0.000 C 
ATOM     32  H   UNL     1       7.696   6.692  15.205  0.00  0.00    +0.000 HD
ENDBRANCH  23  26
ENDBRANCH  21  23
ENDBRANCH   3  17
TORSDOF 4
ENDMDL
