MODEL 1
REMARK VINA RESULT:      -8.8      0.000      0.000
REMARK  Name = 
REMARK  6 active torsions:
REMARK  status: ('A' for Active; 'I' for Inactive)
REMARK    1  A    between atoms: C_1  and  N_2
REMARK    2  A    between atoms: C_6  and  C_7
REMARK    3  A    between atoms: C_7  and  C_8
REMARK    4  A    between atoms: C_8  and  C_9
REMARK    5  A    between atoms: C_13  and  N_14
REMARK    6  A    between atoms: C_22  and  C_23
REMARK                            x       y       z     vdW  Elec       q    Type
REMARK                         _______ _______ _______ _____ _____    ______ ____
ROOT
ATOM      1  N   UNL     1       6.237   5.055  16.110  0.00  0.00    +0.000 N 
ATOM      2  C   UNL     1       5.619   5.808  15.041  0.00  0.00    +0.000 C 
ATOM      3  C   UNL     1       4.506   6.753  15.526  0.00  0.00    +0.000 C 
ATOM      4  C   UNL     1       4.364   6.987  17.037  0.00  0.00    +0.000 C 
ATOM      5  F   UNL     1       3.382   7.948  17.155  0.00  0.00    +0.000 F 
ATOM      6  C   UNL     1       4.054   5.796  17.930  0.00  0.00    +0.000 A 
ATOM      7  C   UNL     1       3.413   6.067  19.154  0.00  0.00    +0.000 A 
ATOM      8  C   UNL     1       3.101   5.048  20.058  0.00  0.00    +0.000 A 
ATOM      9  C   UNL     1       3.401   3.717  19.759  0.00  0.00    +0.000 A 
ATOM     10  C   UNL     1       4.061   3.432  18.559  0.00  0.00    +0.000 A 
ATOM     11  C   UNL     1       4.437   4.463  17.681  0.00  0.00    +0.000 A 
ATOM     12  C   UNL     1       5.357   4.064  16.570  0.00  0.00    +0.000 C 
ATOM     13  O   UNL     1       5.258   2.957  16.053  0.00  0.00    +0.000 OA
ENDROOT
BRANCH   1  18
ATOM     14  C   UNL     1       7.974   7.784  18.038  0.00  0.00    +0.000 A 
ATOM     15  C   UNL     1       8.255   7.071  19.210  0.00  0.00    +0.000 A 
ATOM     16  C   UNL     1       8.129   5.688  19.242  0.00  0.00    +0.000 A 
ATOM     17  C   UNL     1       7.634   5.010  18.131  0.00  0.00    +0.000 A 
ATOM     18  C   UNL     1       7.137   5.718  17.028  0.00  0.00    +0.000 A 
ATOM     19  C   UNL     1       7.424   7.093  16.941  0.00  0.00    +0.000 A 
BRANCH  14  20
ATOM     20  C   UNL     1       8.347   9.249  17.964  0.00  0.00    +0.000 C 
BRANCH  20  21
ATOM     21  C   UNL     1       9.178   9.801  19.131  0.00  0.00    +0.000 C 
BRANCH  21  27
ATOM     22  C   UNL     1       9.085  12.411  20.863  0.00  0.00    +0.000 C 
ATOM     23  N   UNL     1       9.694  12.265  19.570  0.00  0.00    +0.000 N 
ATOM     24  C   UNL     1      10.324  13.249  18.876  0.00  0.00    +0.000 A 
ATOM     25  N   UNL     1      10.749  12.773  17.729  0.00  0.00    +0.000 NA
ATOM     26  N   UNL     1      10.387  11.452  17.666  0.00  0.00    +0.000 NA
ATOM     27  C   UNL     1       9.752  11.141  18.786  0.00  0.00    +0.000 A 
ENDBRANCH  21  27
ENDBRANCH  20  21
ENDBRANCH  14  20
ENDBRANCH   1  18
BRANCH   9  28
ATOM     28  C   UNL     1       3.056   2.599  20.712  0.00  0.00    +0.000 C 
ATOM     29  F   UNL     1       4.169   1.971  21.188  0.00  0.00    +0.000 F 
ATOM     30  F   UNL     1       2.369   3.016  21.810  0.00  0.00    +0.000 F 
ENDBRANCH   9  28
TORSDOF 5
ENDMDL
MODEL 2
REMARK VINA RESULT:      -8.3      5.077      7.199
REMARK  Name = 
REMARK  6 active torsions:
REMARK  status: ('A' for Active; 'I' for Inactive)
REMARK    1  A    between atoms: C_1  and  N_2
REMARK    2  A    between atoms: C_6  and  C_7
REMARK    3  A    between atoms: C_7  and  C_8
REMARK    4  A    between atoms: C_8  and  C_9
REMARK    5  A    between atoms: C_13  and  N_14
REMARK    6  A    between atoms: C_22  and  C_23
REMARK                            x       y       z     vdW  Elec       q    Type
REMARK                         _______ _______ _______ _____ _____    ______ ____
ROOT
ATOM      1  N   UNL     1       2.698   3.838  18.915  0.00  0.00    +0.000 N 
ATOM      2  C   UNL     1       3.315   3.290  20.102  0.00  0.00    +0.000 C 
ATOM      3  C   UNL     1       4.764   3.762  20.309  0.00  0.00    +0.000 C 
ATOM      4  C   UNL     1       5.281   4.914  19.435  0.00  0.00    +0.000 C 
ATOM      5  F   UNL     1       6.542   5.187  19.919  0.00  0.00    +0.000 F 
ATOM      6  C   UNL     1       5.320   4.720  17.927  0.00  0.00    +0.000 A 
ATOM      7  C   UNL     1       6.247   5.498  17.208  0.00  0.00    +0.000 A 
ATOM      8  C   UNL     1       6.351   5.413  15.817  0.00  0.00    +0.000 A 
ATOM      9  C   UNL     1       5.544   4.529  15.097  0.00  0.00    +0.000 A 
ATOM     10  C   UNL     1       4.599   3.767  15.792  0.00  0.00    +0.000 A 
ATOM     11  C   UNL     1       4.446   3.902  17.183  0.00  0.00    +0.000 A 
ATOM     12  C   UNL     1       3.240   3.236  17.770  0.00  0.00    +0.000 C 
ATOM     13  O   UNL     1       2.834   2.177  17.307  0.00  0.00    +0.000 OA
ENDROOT
BRANCH   1  18
ATOM     14  C   UNL     1       1.972   7.349  20.067  0.00  0.00    +0.000 A 
ATOM     15  C   UNL     1       2.259   8.027  18.876  0.00  0.00    +0.000 A 
ATOM     16  C   UNL     1       2.406   7.330  17.684  0.00  0.00    +0.000 A 
ATOM     17  C   UNL     1       2.359   5.938  17.684  0.00  0.00    +0.000 A 
ATOM     18  C   UNL     1       2.296   5.227  18.891  0.00  0.00    +0.000 A 
ATOM     19  C   UNL     1       1.980   5.941  20.063  0.00  0.00    +0.000 A 
BRANCH  14  20
ATOM     20  C   UNL     1       1.584   8.150  21.291  0.00  0.00    +0.000 C 
BRANCH  20  21
ATOM     21  C   UNL     1       0.080   8.328  21.542  0.00  0.00    +0.000 C 
BRANCH  21  27
ATOM     22  C   UNL     1      -0.739  10.658  19.614  0.00  0.00    +0.000 C 
ATOM     23  N   UNL     1      -0.590  10.742  21.041  0.00  0.00    +0.000 N 
ATOM     24  C   UNL     1      -0.769  11.860  21.791  0.00  0.00    +0.000 A 
ATOM     25  N   UNL     1      -0.537  11.584  23.053  0.00  0.00    +0.000 NA
ATOM     26  N   UNL     1      -0.195  10.258  23.132  0.00  0.00    +0.000 NA
ATOM     27  C   UNL     1      -0.232   9.745  21.912  0.00  0.00    +0.000 A 
ENDBRANCH  21  27
ENDBRANCH  20  21
ENDBRANCH  14  20
ENDBRANCH   1  18
BRANCH   9  28
ATOM     28  C   UNL     1       5.652   4.408  13.597  0.00  0.00    +0.000 C 
ATOM     29  F   UNL     1       6.729   3.660  13.221  0.00  0.00    +0.000 F 
ATOM     30  F   UNL     1       4.572   3.815  13.022  0.00  0.00    +0.000 F 
ENDBRANCH   9  28
TORSDOF 5
ENDMDL
MODEL 3
REMARK VINA RESULT:      -8.1      0.704      1.234
REMARK  Name = 
REMARK  6 active torsions:
REMARK  status: ('A' for Active; 'I' for Inactive)
REMARK    1  A    between atoms: C_1  and  N_2
REMARK    2  A    between atoms: C_6  and  C_7
REMARK    3  A    between atoms: C_7  and  C_8
REMARK    4  A    between atoms: C_8  and  C_9
REMARK    5  A    between atoms: C_13  and  N_14
REMARK    6  A    between atoms: C_22  and  C_23
REMARK                            x       y       z     vdW  Elec       q    Type
REMARK                         _______ _______ _______ _____ _____    ______ ____
ROOT
ATOM      1  N   UNL     1       6.160   5.140  16.088  0.00  0.00    +0.000 N 
ATOM      2  C   UNL     1       5.570   5.933  15.033  0.00  0.00    +0.000 C 
ATOM      3  C   UNL     1       4.484   6.900  15.533  0.00  0.00    +0.000 C 
ATOM      4  C   UNL     1       4.343   7.108  17.048  0.00  0.00    +0.000 C 
ATOM      5  F   UNL     1       3.390   8.095  17.182  0.00  0.00    +0.000 F 
ATOM      6  C   UNL     1       3.993   5.908  17.915  0.00  0.00    +0.000 A 
ATOM      7  C   UNL     1       3.356   6.173  19.142  0.00  0.00    +0.000 A 
ATOM      8  C   UNL     1       3.010   5.145  20.024  0.00  0.00    +0.000 A 
ATOM      9  C   UNL     1       3.271   3.812  19.699  0.00  0.00    +0.000 A 
ATOM     10  C   UNL     1       3.927   3.532  18.496  0.00  0.00    +0.000 A 
ATOM     11  C   UNL     1       4.338   4.570  17.640  0.00  0.00    +0.000 A 
ATOM     12  C   UNL     1       5.250   4.166  16.524  0.00  0.00    +0.000 C 
ATOM     13  O   UNL     1       5.120   3.074  15.984  0.00  0.00    +0.000 OA
ENDROOT
BRANCH   1  18
ATOM     14  C   UNL     1       7.971   7.776  18.078  0.00  0.00    +0.000 A 
ATOM     15  C   UNL     1       8.225   7.030  19.236  0.00  0.00    +0.000 A 
ATOM     16  C   UNL     1       8.059   5.651  19.239  0.00  0.00    +0.000 A 
ATOM     17  C   UNL     1       7.548   5.011  18.112  0.00  0.00    +0.000 A 
ATOM     18  C   UNL     1       7.077   5.757  17.022  0.00  0.00    +0.000 A 
ATOM     19  C   UNL     1       7.405   7.124  16.965  0.00  0.00    +0.000 A 
BRANCH  14  20
ATOM     20  C   UNL     1       8.387   9.230  18.036  0.00  0.00    +0.000 C 
BRANCH  20  21
ATOM     21  C   UNL     1       9.378   9.688  19.115  0.00  0.00    +0.000 C 
BRANCH  21  27
ATOM     22  C   UNL     1      11.182  11.760  17.608  0.00  0.00    +0.000 C 
ATOM     23  N   UNL     1      10.165  12.058  18.578  0.00  0.00    +0.000 N 
ATOM     24  C   UNL     1       9.825  13.300  19.013  0.00  0.00    +0.000 A 
ATOM     25  N   UNL     1       8.870  13.206  19.908  0.00  0.00    +0.000 NA
ATOM     26  N   UNL     1       8.579  11.875  20.067  0.00  0.00    +0.000 NA
ATOM     27  C   UNL     1       9.360  11.178  19.256  0.00  0.00    +0.000 A 
ENDBRANCH  21  27
ENDBRANCH  20  21
ENDBRANCH  14  20
ENDBRANCH   1  18
BRANCH   9  28
ATOM     28  C   UNL     1       2.889   2.687  20.627  0.00  0.00    +0.000 C 
ATOM     29  F   UNL     1       2.199   3.133  21.715  0.00  0.00    +0.000 F 
ATOM     30  F   UNL     1       2.094   1.750  20.044  0.00  0.00    +0.000 F 
ENDBRANCH   9  28
TORSDOF 5
ENDMDL
MODEL 4
REMARK VINA RESULT:      -8.0      4.338      6.314
REMARK  Name = 
REMARK  6 active torsions:
REMARK  status: ('A' for Active; 'I' for Inactive)
REMARK    1  A    between atoms: C_1  and  N_2
REMARK    2  A    between atoms: C_6  and  C_7
REMARK    3  A    between atoms: C_7  and  C_8
REMARK    4  A    between atoms: C_8  and  C_9
REMARK    5  A    between atoms: C_13  and  N_14
REMARK    6  A    between atoms: C_22  and  C_23
REMARK                            x       y       z     vdW  Elec       q    Type
REMARK                         _______ _______ _______ _____ _____    ______ ____
ROOT
ATOM      1  N   UNL     1       2.067   3.957  18.564  0.00  0.00    +0.000 N 
ATOM      2  C   UNL     1       2.073   2.817  19.452  0.00  0.00    +0.000 C 
ATOM      3  C   UNL     1       3.464   2.501  20.027  0.00  0.00    +0.000 C 
ATOM      4  C   UNL     1       4.582   3.535  19.826  0.00  0.00    +0.000 C 
ATOM      5  F   UNL     1       5.655   3.039  20.534  0.00  0.00    +0.000 F 
ATOM      6  C   UNL     1       4.999   3.886  18.405  0.00  0.00    +0.000 A 
ATOM      7  C   UNL     1       6.306   4.376  18.227  0.00  0.00    +0.000 A 
ATOM      8  C   UNL     1       6.783   4.747  16.967  0.00  0.00    +0.000 A 
ATOM      9  C   UNL     1       5.974   4.621  15.836  0.00  0.00    +0.000 A 
ATOM     10  C   UNL     1       4.664   4.160  15.997  0.00  0.00    +0.000 A 
ATOM     11  C   UNL     1       4.160   3.852  17.273  0.00  0.00    +0.000 A 
ATOM     12  C   UNL     1       2.682   3.623  17.348  0.00  0.00    +0.000 C 
ATOM     13  O   UNL     1       2.092   3.086  16.418  0.00  0.00    +0.000 OA
ENDROOT
BRANCH   1  18
ATOM     14  C   UNL     1       2.128   7.717  18.779  0.00  0.00    +0.000 A 
ATOM     15  C   UNL     1       1.696   7.860  20.103  0.00  0.00    +0.000 A 
ATOM     16  C   UNL     1       1.665   6.767  20.959  0.00  0.00    +0.000 A 
ATOM     17  C   UNL     1       1.977   5.499  20.476  0.00  0.00    +0.000 A 
ATOM     18  C   UNL     1       2.195   5.292  19.106  0.00  0.00    +0.000 A 
ATOM     19  C   UNL     1       2.389   6.422  18.289  0.00  0.00    +0.000 A 
BRANCH  14  20
ATOM     20  C   UNL     1       2.376   8.958  17.950  0.00  0.00    +0.000 C 
BRANCH  20  21
ATOM     21  C   UNL     1       1.251  10.001  17.928  0.00  0.00    +0.000 C 
BRANCH  21  27
ATOM     22  C   UNL     1       0.350  11.242  20.660  0.00  0.00    +0.000 C 
ATOM     23  N   UNL     1       1.294  11.806  19.736  0.00  0.00    +0.000 N 
ATOM     24  C   UNL     1       1.948  12.987  19.892  0.00  0.00    +0.000 A 
ATOM     25  N   UNL     1       2.722  13.201  18.855  0.00  0.00    +0.000 NA
ATOM     26  N   UNL     1       2.571  12.142  17.997  0.00  0.00    +0.000 NA
ATOM     27  C   UNL     1       1.710  11.291  18.534  0.00  0.00    +0.000 A 
ENDBRANCH  21  27
ENDBRANCH  20  21
ENDBRANCH  14  20
ENDBRANCH   1  18
BRANCH   9  28
ATOM     28  C   UNL     1       6.476   4.999  14.464  0.00  0.00    +0.000 C 
ATOM     29  F   UNL     1       7.831   5.149  14.438  0.00  0.00    +0.000 F 
ATOM     30  F   UNL     1       6.189   4.074  13.509  0.00  0.00    +0.000 F 
ENDBRANCH   9  28
TORSDOF 5
ENDMDL
MODEL 5
REMARK VINA RESULT:      -7.9      9.896     12.265
REMARK  Name = 
REMARK  6 active torsions:
REMARK  status: ('A' for Active; 'I' for Inactive)
REMARK    1  A    between atoms: C_1  and  N_2
REMARK    2  A    between atoms: C_6  and  C_7
REMARK    3  A    between atoms: C_7  and  C_8
REMARK    4  A    between atoms: C_8  and  C_9
REMARK    5  A    between atoms: C_13  and  N_14
REMARK    6  A    between atoms: C_22  and  C_23
REMARK                            x       y       z     vdW  Elec       q    Type
REMARK                         _______ _______ _______ _____ _____    ______ ____
ROOT
ATOM      1  N   UNL     1       0.016  11.236  18.562  0.00  0.00    +0.000 N 
ATOM      2  C   UNL     1       1.003  10.179  18.587  0.00  0.00    +0.000 C 
ATOM      3  C   UNL     1       0.962   9.340  19.875  0.00  0.00    +0.000 C 
ATOM      4  C   UNL     1      -0.231   9.526  20.823  0.00  0.00    +0.000 C 
ATOM      5  F   UNL     1      -0.053   8.578  21.807  0.00  0.00    +0.000 F 
ATOM      6  C   UNL     1      -0.461  10.898  21.440  0.00  0.00    +0.000 A 
ATOM      7  C   UNL     1      -1.166  10.939  22.657  0.00  0.00    +0.000 A 
ATOM      8  C   UNL     1      -1.449  12.148  23.299  0.00  0.00    +0.000 A 
ATOM      9  C   UNL     1      -1.017  13.360  22.754  0.00  0.00    +0.000 A 
ATOM     10  C   UNL     1      -0.337  13.340  21.532  0.00  0.00    +0.000 A 
ATOM     11  C   UNL     1      -0.112  12.130  20.851  0.00  0.00    +0.000 A 
ATOM     12  C   UNL     1       0.387  12.260  19.446  0.00  0.00    +0.000 C 
ATOM     13  O   UNL     1       1.148  13.171  19.143  0.00  0.00    +0.000 OA
ENDROOT
BRANCH   1  18
ATOM     14  C   UNL     1      -3.730  11.589  18.418  0.00  0.00    +0.000 A 
ATOM     15  C   UNL     1      -3.986  10.708  17.359  0.00  0.00    +0.000 A 
ATOM     16  C   UNL     1      -3.002   9.835  16.913  0.00  0.00    +0.000 A 
ATOM     17  C   UNL     1      -1.722   9.894  17.459  0.00  0.00    +0.000 A 
ATOM     18  C   UNL     1      -1.379  10.912  18.360  0.00  0.00    +0.000 A 
ATOM     19  C   UNL     1      -2.419  11.675  18.924  0.00  0.00    +0.000 A 
BRANCH  14  20
ATOM     20  C   UNL     1      -4.884  12.351  19.032  0.00  0.00    +0.000 C 
BRANCH  20  21
ATOM     21  C   UNL     1      -4.742  12.728  20.513  0.00  0.00    +0.000 C 
BRANCH  21  27
ATOM     22  C   UNL     1      -6.035  14.254  22.925  0.00  0.00    +0.000 C 
ATOM     23  N   UNL     1      -6.510  13.035  22.332  0.00  0.00    +0.000 N 
ATOM     24  C   UNL     1      -7.601  12.331  22.734  0.00  0.00    +0.000 A 
ATOM     25  N   UNL     1      -7.735  11.263  21.983  0.00  0.00    +0.000 NA
ATOM     26  N   UNL     1      -6.710  11.263  21.073  0.00  0.00    +0.000 NA
ATOM     27  C   UNL     1      -5.969  12.341  21.279  0.00  0.00    +0.000 A 
ENDBRANCH  21  27
ENDBRANCH  20  21
ENDBRANCH  14  20
ENDBRANCH   1  18
BRANCH   9  28
ATOM     28  C   UNL     1      -1.295  14.674  23.439  0.00  0.00    +0.000 C 
ATOM     29  F   UNL     1      -1.114  14.596  24.788  0.00  0.00    +0.000 F 
ATOM     30  F   UNL     1      -0.490  15.686  23.017  0.00  0.00    +0.000 F 
ENDBRANCH   9  28
TORSDOF 5
ENDMDL
MODEL 6
REMARK VINA RESULT:      -7.8      1.429      1.780
REMARK  Name = 
REMARK  6 active torsions:
REMARK  status: ('A' for Active; 'I' for Inactive)
REMARK    1  A    between atoms: C_1  and  N_2
REMARK    2  A    between atoms: C_6  and  C_7
REMARK    3  A    between atoms: C_7  and  C_8
REMARK    4  A    between atoms: C_8  and  C_9
REMARK    5  A    between atoms: C_13  and  N_14
REMARK    6  A    between atoms: C_22  and  C_23
REMARK                            x       y       z     vdW  Elec       q    Type
REMARK                         _______ _______ _______ _____ _____    ______ ____
ROOT
ATOM      1  N   UNL     1       6.324   4.239  16.682  0.00  0.00    +0.000 N 
ATOM      2  C   UNL     1       6.214   4.356  15.246  0.00  0.00    +0.000 C 
ATOM      3  C   UNL     1       5.404   5.583  14.795  0.00  0.00    +0.000 C 
ATOM      4  C   UNL     1       5.050   6.643  15.848  0.00  0.00    +0.000 C 
ATOM      5  F   UNL     1       4.438   7.655  15.140  0.00  0.00    +0.000 F 
ATOM      6  C   UNL     1       4.193   6.230  17.035  0.00  0.00    +0.000 A 
ATOM      7  C   UNL     1       3.449   7.243  17.667  0.00  0.00    +0.000 A 
ATOM      8  C   UNL     1       2.645   6.976  18.779  0.00  0.00    +0.000 A 
ATOM      9  C   UNL     1       2.541   5.678  19.285  0.00  0.00    +0.000 A 
ATOM     10  C   UNL     1       3.294   4.663  18.685  0.00  0.00    +0.000 A 
ATOM     11  C   UNL     1       4.156   4.944  17.611  0.00  0.00    +0.000 A 
ATOM     12  C   UNL     1       5.094   3.842  17.227  0.00  0.00    +0.000 C 
ATOM     13  O   UNL     1       4.740   2.671  17.311  0.00  0.00    +0.000 OA
ENDROOT
BRANCH   1  18
ATOM     14  C   UNL     1       7.922   7.418  17.916  0.00  0.00    +0.000 A 
ATOM     15  C   UNL     1       8.245   7.004  19.214  0.00  0.00    +0.000 A 
ATOM     16  C   UNL     1       8.193   5.660  19.560  0.00  0.00    +0.000 A 
ATOM     17  C   UNL     1       7.730   4.724  18.639  0.00  0.00    +0.000 A 
ATOM     18  C   UNL     1       7.192   5.137  17.412  0.00  0.00    +0.000 A 
ATOM     19  C   UNL     1       7.406   6.470  17.012  0.00  0.00    +0.000 A 
BRANCH  14  20
ATOM     20  C   UNL     1       8.217   8.845  17.507  0.00  0.00    +0.000 C 
BRANCH  20  21
ATOM     21  C   UNL     1       8.469   9.844  18.645  0.00  0.00    +0.000 C 
BRANCH  21  27
ATOM     22  C   UNL     1       7.671  12.535  17.254  0.00  0.00    +0.000 C 
ATOM     23  N   UNL     1       9.001  12.109  17.590  0.00  0.00    +0.000 N 
ATOM     24  C   UNL     1      10.142  12.806  17.346  0.00  0.00    +0.000 A 
ATOM     25  N   UNL     1      11.176  12.117  17.770  0.00  0.00    +0.000 NA
ATOM     26  N   UNL     1      10.705  10.943  18.300  0.00  0.00    +0.000 NA
ATOM     27  C   UNL     1       9.385  10.940  18.197  0.00  0.00    +0.000 A 
ENDBRANCH  21  27
ENDBRANCH  20  21
ENDBRANCH  14  20
ENDBRANCH   1  18
BRANCH   9  28
ATOM     28  C   UNL     1       1.665   5.364  20.472  0.00  0.00    +0.000 C 
ATOM     29  F   UNL     1       2.368   4.788  21.488  0.00  0.00    +0.000 F 
ATOM     30  F   UNL     1       1.068   6.461  21.010  0.00  0.00    +0.000 F 
ENDBRANCH   9  28
TORSDOF 5
ENDMDL
MODEL 7
REMARK VINA RESULT:      -7.8      1.469      1.784
REMARK  Name = 
REMARK  6 active torsions:
REMARK  status: ('A' for Active; 'I' for Inactive)
REMARK    1  A    between atoms: C_1  and  N_2
REMARK    2  A    between atoms: C_6  and  C_7
REMARK    3  A    between atoms: C_7  and  C_8
REMARK    4  A    between atoms: C_8  and  C_9
REMARK    5  A    between atoms: C_13  and  N_14
REMARK    6  A    between atoms: C_22  and  C_23
REMARK                            x       y       z     vdW  Elec       q    Type
REMARK                         _______ _______ _______ _____ _____    ______ ____
ROOT
ATOM      1  N   UNL     1       6.264   4.178  16.737  0.00  0.00    +0.000 N 
ATOM      2  C   UNL     1       6.137   4.258  15.299  0.00  0.00    +0.000 C 
ATOM      3  C   UNL     1       5.337   5.484  14.826  0.00  0.00    +0.000 C 
ATOM      4  C   UNL     1       5.013   6.576  15.855  0.00  0.00    +0.000 C 
ATOM      5  F   UNL     1       4.404   7.578  15.128  0.00  0.00    +0.000 F 
ATOM      6  C   UNL     1       4.166   6.207  17.064  0.00  0.00    +0.000 A 
ATOM      7  C   UNL     1       3.444   7.247  17.679  0.00  0.00    +0.000 A 
ATOM      8  C   UNL     1       2.652   7.021  18.808  0.00  0.00    +0.000 A 
ATOM      9  C   UNL     1       2.537   5.738  19.349  0.00  0.00    +0.000 A 
ATOM     10  C   UNL     1       3.268   4.698  18.767  0.00  0.00    +0.000 A 
ATOM     11  C   UNL     1       4.119   4.937  17.674  0.00  0.00    +0.000 A 
ATOM     12  C   UNL     1       5.037   3.812  17.308  0.00  0.00    +0.000 C 
ATOM     13  O   UNL     1       4.667   2.650  17.428  0.00  0.00    +0.000 OA
ENDROOT
BRANCH   1  18
ATOM     14  C   UNL     1       7.945   7.363  17.839  0.00  0.00    +0.000 A 
ATOM     15  C   UNL     1       8.252   6.996  19.155  0.00  0.00    +0.000 A 
ATOM     16  C   UNL     1       8.163   5.670  19.558  0.00  0.00    +0.000 A 
ATOM     17  C   UNL     1       7.677   4.708  18.677  0.00  0.00    +0.000 A 
ATOM     18  C   UNL     1       7.154   5.083  17.431  0.00  0.00    +0.000 A 
ATOM     19  C   UNL     1       7.406   6.390  16.974  0.00  0.00    +0.000 A 
BRANCH  14  20
ATOM     20  C   UNL     1       8.280   8.762  17.370  0.00  0.00    +0.000 C 
BRANCH  20  21
ATOM     21  C   UNL     1       8.119   9.885  18.403  0.00  0.00    +0.000 C 
BRANCH  21  27
ATOM     22  C   UNL     1       9.279  11.159  21.021  0.00  0.00    +0.000 C 
ATOM     23  N   UNL     1       9.872  11.204  19.714  0.00  0.00    +0.000 N 
ATOM     24  C   UNL     1      11.039  11.823  19.394  0.00  0.00    +0.000 A 
ATOM     25  N   UNL     1      11.276  11.679  18.111  0.00  0.00    +0.000 NA
ATOM     26  N   UNL     1      10.242  10.954  17.577  0.00  0.00    +0.000 NA
ATOM     27  C   UNL     1       9.393  10.659  18.549  0.00  0.00    +0.000 A 
ENDBRANCH  21  27
ENDBRANCH  20  21
ENDBRANCH  14  20
ENDBRANCH   1  18
BRANCH   9  28
ATOM     28  C   UNL     1       1.673   5.468  20.556  0.00  0.00    +0.000 C 
ATOM     29  F   UNL     1       1.028   6.591  20.985  0.00  0.00    +0.000 F 
ATOM     30  F   UNL     1       0.699   4.547  20.329  0.00  0.00    +0.000 F 
ENDBRANCH   9  28
TORSDOF 5
ENDMDL
MODEL 8
REMARK VINA RESULT:      -7.8      4.965      6.967
REMARK  Name = 
REMARK  6 active torsions:
REMARK  status: ('A' for Active; 'I' for Inactive)
REMARK    1  A    between atoms: C_1  and  N_2
REMARK    2  A    between atoms: C_6  and  C_7
REMARK    3  A    between atoms: C_7  and  C_8
REMARK    4  A    between atoms: C_8  and  C_9
REMARK    5  A    between atoms: C_13  and  N_14
REMARK    6  A    between atoms: C_22  and  C_23
REMARK                            x       y       z     vdW  Elec       q    Type
REMARK                         _______ _______ _______ _____ _____    ______ ____
ROOT
ATOM      1  N   UNL     1       2.164   3.955  18.571  0.00  0.00    +0.000 N 
ATOM      2  C   UNL     1       2.230   2.863  19.516  0.00  0.00    +0.000 C 
ATOM      3  C   UNL     1       3.644   2.623  20.071  0.00  0.00    +0.000 C 
ATOM      4  C   UNL     1       4.721   3.681  19.790  0.00  0.00    +0.000 C 
ATOM      5  F   UNL     1       5.826   3.257  20.496  0.00  0.00    +0.000 F 
ATOM      6  C   UNL     1       5.093   3.972  18.344  0.00  0.00    +0.000 A 
ATOM      7  C   UNL     1       6.378   4.495  18.109  0.00  0.00    +0.000 A 
ATOM      8  C   UNL     1       6.814   4.817  16.821  0.00  0.00    +0.000 A 
ATOM      9  C   UNL     1       5.983   4.607  15.718  0.00  0.00    +0.000 A 
ATOM     10  C   UNL     1       4.693   4.112  15.934  0.00  0.00    +0.000 A 
ATOM     11  C   UNL     1       4.230   3.853  17.236  0.00  0.00    +0.000 A 
ATOM     12  C   UNL     1       2.763   3.579  17.359  0.00  0.00    +0.000 C 
ATOM     13  O   UNL     1       2.170   2.977  16.472  0.00  0.00    +0.000 OA
ENDROOT
BRANCH   1  18
ATOM     14  C   UNL     1       2.065   7.720  18.605  0.00  0.00    +0.000 A 
ATOM     15  C   UNL     1       1.697   7.910  19.942  0.00  0.00    +0.000 A 
ATOM     16  C   UNL     1       1.759   6.860  20.849  0.00  0.00    +0.000 A 
ATOM     17  C   UNL     1       2.103   5.584  20.410  0.00  0.00    +0.000 A 
ATOM     18  C   UNL     1       2.260   5.319  19.042  0.00  0.00    +0.000 A 
ATOM     19  C   UNL     1       2.360   6.415  18.164  0.00  0.00    +0.000 A 
BRANCH  14  20
ATOM     20  C   UNL     1       2.214   8.928  17.706  0.00  0.00    +0.000 C 
BRANCH  20  21
ATOM     21  C   UNL     1       1.934  10.295  18.347  0.00  0.00    +0.000 C 
BRANCH  21  27
ATOM     22  C   UNL     1       0.505  11.895  20.631  0.00  0.00    +0.000 C 
ATOM     23  N   UNL     1      -0.131  11.215  19.537  0.00  0.00    +0.000 N 
ATOM     24  C   UNL     1      -1.471  11.144  19.320  0.00  0.00    +0.000 A 
ATOM     25  N   UNL     1      -1.704  10.435  18.240  0.00  0.00    +0.000 NA
ATOM     26  N   UNL     1      -0.494  10.028  17.741  0.00  0.00    +0.000 NA
ATOM     27  C   UNL     1       0.462  10.507  18.523  0.00  0.00    +0.000 A 
ENDBRANCH  21  27
ENDBRANCH  20  21
ENDBRANCH  14  20
ENDBRANCH   1  18
BRANCH   9  28
ATOM     28  C   UNL     1       6.440   4.930  14.317  0.00  0.00    +0.000 C 
ATOM     29  F   UNL     1       7.777   5.192  14.262  0.00  0.00    +0.000 F 
ATOM     30  F   UNL     1       6.226   3.920  13.431  0.00  0.00    +0.000 F 
ENDBRANCH   9  28
TORSDOF 5
ENDMDL
MODEL 9
REMARK VINA RESULT:      -7.8      9.839     12.102
REMARK  Name = 
REMARK  6 active torsions:
REMARK  status: ('A' for Active; 'I' for Inactive)
REMARK    1  A    between atoms: C_1  and  N_2
REMARK    2  A    between atoms: C_6  and  C_7
REMARK    3  A    between atoms: C_7  and  C_8
REMARK    4  A    between atoms: C_8  and  C_9
REMARK    5  A    between atoms: C_13  and  N_14
REMARK    6  A    between atoms: C_22  and  C_23
REMARK                            x       y       z     vdW  Elec       q    Type
REMARK                         _______ _______ _______ _____ _____    ______ ____
ROOT
ATOM      1  N   UNL     1       0.087  11.299  18.620  0.00  0.00    +0.000 N 
ATOM      2  C   UNL     1       1.119  10.287  18.597  0.00  0.00    +0.000 C 
ATOM      3  C   UNL     1       1.101   9.370  19.831  0.00  0.00    +0.000 C 
ATOM      4  C   UNL     1      -0.110   9.447  20.771  0.00  0.00    +0.000 C 
ATOM      5  F   UNL     1       0.098   8.450  21.700  0.00  0.00    +0.000 F 
ATOM      6  C   UNL     1      -0.408  10.767  21.466  0.00  0.00    +0.000 A 
ATOM      7  C   UNL     1      -1.129  10.704  22.673  0.00  0.00    +0.000 A 
ATOM      8  C   UNL     1      -1.472  11.859  23.382  0.00  0.00    +0.000 A 
ATOM      9  C   UNL     1      -1.088  13.118  22.916  0.00  0.00    +0.000 A 
ATOM     10  C   UNL     1      -0.394  13.202  21.705  0.00  0.00    +0.000 A 
ATOM     11  C   UNL     1      -0.108  12.047  20.957  0.00  0.00    +0.000 A 
ATOM     12  C   UNL     1       0.401  12.283  19.569  0.00  0.00    +0.000 C 
ATOM     13  O   UNL     1       1.125  13.243  19.332  0.00  0.00    +0.000 OA
ENDROOT
BRANCH   1  18
ATOM     14  C   UNL     1      -3.668  11.504  18.420  0.00  0.00    +0.000 A 
ATOM     15  C   UNL     1      -3.868  10.659  17.322  0.00  0.00    +0.000 A 
ATOM     16  C   UNL     1      -2.842   9.845  16.860  0.00  0.00    +0.000 A 
ATOM     17  C   UNL     1      -1.575   9.934  17.432  0.00  0.00    +0.000 A 
ATOM     18  C   UNL     1      -1.289  10.927  18.379  0.00  0.00    +0.000 A 
ATOM     19  C   UNL     1      -2.370  11.623  18.954  0.00  0.00    +0.000 A 
BRANCH  14  20
ATOM     20  C   UNL     1      -4.863  12.193  19.043  0.00  0.00    +0.000 C 
BRANCH  20  21
ATOM     21  C   UNL     1      -4.562  13.220  20.143  0.00  0.00    +0.000 C 
BRANCH  21  27
ATOM     22  C   UNL     1      -7.619  13.744  20.589  0.00  0.00    +0.000 C 
ATOM     23  N   UNL     1      -6.703  13.172  21.536  0.00  0.00    +0.000 N 
ATOM     24  C   UNL     1      -7.015  12.772  22.797  0.00  0.00    +0.000 A 
ATOM     25  N   UNL     1      -5.939  12.311  23.390  0.00  0.00    +0.000 NA
ATOM     26  N   UNL     1      -4.898  12.413  22.502  0.00  0.00    +0.000 NA
ATOM     27  C   UNL     1      -5.363  12.930  21.375  0.00  0.00    +0.000 A 
ENDBRANCH  21  27
ENDBRANCH  20  21
ENDBRANCH  14  20
ENDBRANCH   1  18
BRANCH   9  28
ATOM     28  C   UNL     1      -1.433  14.376  23.675  0.00  0.00    +0.000 C 
ATOM     29  F   UNL     1      -1.892  15.360  22.851  0.00  0.00    +0.000 F 
ATOM     30  F   UNL     1      -2.402  14.196  24.611  0.00  0.00    +0.000 F 
ENDBRANCH   9  28
TORSDOF 5
ENDMDL
