MODEL 1
REMARK VINA RESULT:      -9.0      0.000      0.000
REMARK  Name = 
REMARK  5 active torsions:
REMARK  status: ('A' for Active; 'I' for Inactive)
REMARK    1  A    between atoms: C_1  and  C_2
REMARK    2  A    between atoms: C_2  and  C_3
REMARK    3  A    between atoms: N_13  and  C_14
REMARK    4  A    between atoms: C_14  and  C_15
REMARK    5  A    between atoms: C_18  and  C_19
REMARK                            x       y       z     vdW  Elec       q    Type
REMARK                         _______ _______ _______ _____ _____    ______ ____
ROOT
ATOM      1  C   UNL     1       2.909   3.306  18.672  0.00  0.00    +0.000 C 
ATOM      2  C   UNL     1       3.904   4.341  18.166  0.00  0.00    +0.000 C 
ATOM      3  N   UNL     1       4.345   4.041  16.816  0.00  0.00    +0.000 N 
ATOM      4  C   UNL     1       5.693   4.306  16.653  0.00  0.00    +0.000 C 
ATOM      5  O   UNL     1       6.246   4.356  15.572  0.00  0.00    +0.000 OA
ATOM      6  N   UNL     1       6.227   4.520  17.886  0.00  0.00    +0.000 N 
ATOM      7  C   UNL     1       5.288   4.274  18.847  0.00  0.00    +0.000 C 
ATOM      8  O   UNL     1       5.490   4.164  20.054  0.00  0.00    +0.000 OA
ATOM      9  H   UNL     1       3.738   4.003  16.009  0.00  0.00    +0.000 HD
ENDROOT
BRANCH   2  10
ATOM     10  C   UNL     1       3.363   5.774  18.312  0.00  0.00    +0.000 A 
ATOM     11  C   UNL     1       3.538   6.709  17.270  0.00  0.00    +0.000 A 
ATOM     12  C   UNL     1       3.040   8.011  17.375  0.00  0.00    +0.000 A 
ATOM     13  C   UNL     1       2.355   8.407  18.521  0.00  0.00    +0.000 A 
ATOM     14  C   UNL     1       2.164   7.495  19.553  0.00  0.00    +0.000 A 
ATOM     15 BR   UNL     1       1.243   8.022  21.118  0.00  0.00    +0.000 Br
ATOM     16  C   UNL     1       2.652   6.191  19.451  0.00  0.00    +0.000 A 
ENDBRANCH   2  10
BRANCH   6  17
ATOM     17  C   UNL     1       7.533   5.076  18.160  0.00  0.00    +0.000 C 
BRANCH  17  18
ATOM     18  C   UNL     1       7.582   6.527  17.884  0.00  0.00    +0.000 A 
ATOM     19  N   UNL     1       6.803   7.121  16.970  0.00  0.00    +0.000 NA
ATOM     20  O   UNL     1       7.144   8.465  17.092  0.00  0.00    +0.000 OA
ATOM     21  C   UNL     1       8.116   8.540  18.053  0.00  0.00    +0.000 A 
ATOM     22  N   UNL     1       8.454   7.365  18.532  0.00  0.00    +0.000 NA
BRANCH  21  23
ATOM     23  C   UNL     1       8.585   9.869  18.414  0.00  0.00    +0.000 A 
ATOM     24  C   UNL     1       9.339  10.080  19.577  0.00  0.00    +0.000 A 
ATOM     25  C   UNL     1       9.786  11.358  19.917  0.00  0.00    +0.000 A 
ATOM     26  C   UNL     1       9.483  12.438  19.093  0.00  0.00    +0.000 A 
ATOM     27 CL   UNL     1      10.014  14.014  19.531  0.00  0.00    +0.000 Cl
ATOM     28  C   UNL     1       8.745  12.250  17.927  0.00  0.00    +0.000 A 
ATOM     29  C   UNL     1       8.302  10.968  17.585  0.00  0.00    +0.000 A 
ENDBRANCH  21  23
ENDBRANCH  17  18
ENDBRANCH   6  17
TORSDOF 4
ENDMDL
MODEL 2
REMARK VINA RESULT:      -8.2      1.001      1.376
REMARK  Name = 
REMARK  5 active torsions:
REMARK  status: ('A' for Active; 'I' for Inactive)
REMARK    1  A    between atoms: C_1  and  C_2
REMARK    2  A    between atoms: C_2  and  C_3
REMARK    3  A    between atoms: N_13  and  C_14
REMARK    4  A    between atoms: C_14  and  C_15
REMARK    5  A    between atoms: C_18  and  C_19
REMARK                            x       y       z     vdW  Elec       q    Type
REMARK                         _______ _______ _______ _____ _____    ______ ____
ROOT
ATOM      1  C   UNL     1       2.997   3.168  17.589  0.00  0.00    +0.000 C 
ATOM      2  C   UNL     1       3.872   4.411  17.664  0.00  0.00    +0.000 C 
ATOM      3  N   UNL     1       4.329   4.821  16.350  0.00  0.00    +0.000 N 
ATOM      4  C   UNL     1       5.640   5.263  16.384  0.00  0.00    +0.000 C 
ATOM      5  O   UNL     1       6.174   5.866  15.475  0.00  0.00    +0.000 OA
ATOM      6  N   UNL     1       6.160   4.926  17.595  0.00  0.00    +0.000 N 
ATOM      7  C   UNL     1       5.262   4.168  18.292  0.00  0.00    +0.000 C 
ATOM      8  O   UNL     1       5.487   3.528  19.316  0.00  0.00    +0.000 OA
ATOM      9  H   UNL     1       3.722   5.106  15.594  0.00  0.00    +0.000 HD
ENDROOT
BRANCH   2  10
ATOM     10  C   UNL     1       3.185   5.549  18.439  0.00  0.00    +0.000 A 
ATOM     11  C   UNL     1       2.779   5.354  19.776  0.00  0.00    +0.000 A 
ATOM     12  C   UNL     1       2.169   6.380  20.504  0.00  0.00    +0.000 A 
ATOM     13  C   UNL     1       1.952   7.622  19.914  0.00  0.00    +0.000 A 
ATOM     14  C   UNL     1       2.356   7.835  18.601  0.00  0.00    +0.000 A 
ATOM     15 BR   UNL     1       2.061   9.515  17.784  0.00  0.00    +0.000 Br
ATOM     16  C   UNL     1       2.973   6.818  17.871  0.00  0.00    +0.000 A 
ENDBRANCH   2  10
BRANCH   6  17
ATOM     17  C   UNL     1       7.402   5.415  18.150  0.00  0.00    +0.000 C 
BRANCH  17  18
ATOM     18  C   UNL     1       7.552   6.873  17.966  0.00  0.00    +0.000 A 
ATOM     19  N   UNL     1       6.784   7.583  17.129  0.00  0.00    +0.000 NA
ATOM     20  O   UNL     1       7.232   8.888  17.322  0.00  0.00    +0.000 OA
ATOM     21  C   UNL     1       8.245   8.825  18.240  0.00  0.00    +0.000 A 
ATOM     22  N   UNL     1       8.512   7.598  18.626  0.00  0.00    +0.000 NA
BRANCH  21  23
ATOM     23  C   UNL     1       8.831  10.088  18.663  0.00  0.00    +0.000 A 
ATOM     24  C   UNL     1       9.498  10.201  19.891  0.00  0.00    +0.000 A 
ATOM     25  C   UNL     1      10.057  11.416  20.291  0.00  0.00    +0.000 A 
ATOM     26  C   UNL     1       9.952  12.531  19.464  0.00  0.00    +0.000 A 
ATOM     27 CL   UNL     1      10.620  14.032  19.974  0.00  0.00    +0.000 Cl
ATOM     28  C   UNL     1       9.303  12.438  18.235  0.00  0.00    +0.000 A 
ATOM     29  C   UNL     1       8.748  11.219  17.834  0.00  0.00    +0.000 A 
ENDBRANCH  21  23
ENDBRANCH  17  18
ENDBRANCH   6  17
TORSDOF 4
ENDMDL
MODEL 3
REMARK VINA RESULT:      -8.2      1.074      1.722
REMARK  Name = 
REMARK  5 active torsions:
REMARK  status: ('A' for Active; 'I' for Inactive)
REMARK    1  A    between atoms: C_1  and  C_2
REMARK    2  A    between atoms: C_2  and  C_3
REMARK    3  A    between atoms: N_13  and  C_14
REMARK    4  A    between atoms: C_14  and  C_15
REMARK    5  A    between atoms: C_18  and  C_19
REMARK                            x       y       z     vdW  Elec       q    Type
REMARK                         _______ _______ _______ _____ _____    ______ ____
ROOT
ATOM      1  C   UNL     1       2.569   2.566  18.552  0.00  0.00    +0.000 C 
ATOM      2  C   UNL     1       3.449   3.761  18.217  0.00  0.00    +0.000 C 
ATOM      3  N   UNL     1       3.677   3.871  16.788  0.00  0.00    +0.000 N 
ATOM      4  C   UNL     1       4.977   4.257  16.510  0.00  0.00    +0.000 C 
ATOM      5  O   UNL     1       5.351   4.636  15.418  0.00  0.00    +0.000 OA
ATOM      6  N   UNL     1       5.695   4.157  17.662  0.00  0.00    +0.000 N 
ATOM      7  C   UNL     1       4.925   3.598  18.642  0.00  0.00    +0.000 C 
ATOM      8  O   UNL     1       5.318   3.175  19.726  0.00  0.00    +0.000 OA
ATOM      9  H   UNL     1       2.951   4.018  16.101  0.00  0.00    +0.000 HD
ENDROOT
BRANCH   2  10
ATOM     10  C   UNL     1       2.910   5.062  18.837  0.00  0.00    +0.000 A 
ATOM     11  C   UNL     1       2.484   5.085  20.181  0.00  0.00    +0.000 A 
ATOM     12  C   UNL     1       2.007   6.260  20.770  0.00  0.00    +0.000 A 
ATOM     13  C   UNL     1       1.946   7.437  20.029  0.00  0.00    +0.000 A 
ATOM     14  C   UNL     1       2.373   7.435  18.706  0.00  0.00    +0.000 A 
ATOM     15 BR   UNL     1       2.288   9.026  17.686  0.00  0.00    +0.000 Br
ATOM     16  C   UNL     1       2.858   6.268  18.115  0.00  0.00    +0.000 A 
ENDBRANCH   2  10
BRANCH   6  17
ATOM     17  C   UNL     1       7.016   4.700  17.886  0.00  0.00    +0.000 C 
BRANCH  17  18
ATOM     18  C   UNL     1       7.040   6.170  17.742  0.00  0.00    +0.000 A 
ATOM     19  N   UNL     1       6.035   6.863  17.191  0.00  0.00    +0.000 NA
ATOM     20  O   UNL     1       6.458   8.184  17.316  0.00  0.00    +0.000 OA
ATOM     21  C   UNL     1       7.691   8.148  17.909  0.00  0.00    +0.000 A 
ATOM     22  N   UNL     1       8.113   6.926  18.143  0.00  0.00    +0.000 NA
BRANCH  21  23
ATOM     23  C   UNL     1       8.313   9.427  18.215  0.00  0.00    +0.000 A 
ATOM     24  C   UNL     1       8.078  10.556  17.417  0.00  0.00    +0.000 A 
ATOM     25  C   UNL     1       8.678  11.780  17.716  0.00  0.00    +0.000 A 
ATOM     26  C   UNL     1       9.521  11.886  18.819  0.00  0.00    +0.000 A 
ATOM     27 CL   UNL     1      10.278  13.390  19.167  0.00  0.00    +0.000 Cl
ATOM     28  C   UNL     1       9.761  10.780  19.631  0.00  0.00    +0.000 A 
ATOM     29  C   UNL     1       9.154   9.556  19.333  0.00  0.00    +0.000 A 
ENDBRANCH  21  23
ENDBRANCH  17  18
ENDBRANCH   6  17
TORSDOF 4
ENDMDL
MODEL 4
REMARK VINA RESULT:      -8.1      0.806      1.214
REMARK  Name = 
REMARK  5 active torsions:
REMARK  status: ('A' for Active; 'I' for Inactive)
REMARK    1  A    between atoms: C_1  and  C_2
REMARK    2  A    between atoms: C_2  and  C_3
REMARK    3  A    between atoms: N_13  and  C_14
REMARK    4  A    between atoms: C_14  and  C_15
REMARK    5  A    between atoms: C_18  and  C_19
REMARK                            x       y       z     vdW  Elec       q    Type
REMARK                         _______ _______ _______ _____ _____    ______ ____
ROOT
ATOM      1  C   UNL     1       3.342   3.934  20.349  0.00  0.00    +0.000 C 
ATOM      2  C   UNL     1       3.943   4.570  19.103  0.00  0.00    +0.000 C 
ATOM      3  N   UNL     1       3.802   3.709  17.944  0.00  0.00    +0.000 N 
ATOM      4  C   UNL     1       4.931   3.747  17.144  0.00  0.00    +0.000 C 
ATOM      5  O   UNL     1       4.974   3.301  16.015  0.00  0.00    +0.000 OA
ATOM      6  N   UNL     1       5.912   4.383  17.840  0.00  0.00    +0.000 N 
ATOM      7  C   UNL     1       5.486   4.641  19.112  0.00  0.00    +0.000 C 
ATOM      8  O   UNL     1       6.183   5.006  20.054  0.00  0.00    +0.000 OA
ATOM      9  H   UNL     1       2.919   3.412  17.554  0.00  0.00    +0.000 HD
ENDROOT
BRANCH   2  10
ATOM     10  C   UNL     1       3.396   5.988  18.864  0.00  0.00    +0.000 A 
ATOM     11  C   UNL     1       3.668   6.660  17.654  0.00  0.00    +0.000 A 
ATOM     12  C   UNL     1       3.166   7.942  17.410  0.00  0.00    +0.000 A 
ATOM     13  C   UNL     1       2.381   8.579  18.366  0.00  0.00    +0.000 A 
ATOM     14  C   UNL     1       2.094   7.926  19.560  0.00  0.00    +0.000 A 
ATOM     15 BR   UNL     1       1.035   8.785  20.872  0.00  0.00    +0.000 Br
ATOM     16  C   UNL     1       2.584   6.644  19.808  0.00  0.00    +0.000 A 
ENDBRANCH   2  10
BRANCH   6  17
ATOM     17  C   UNL     1       7.161   4.866  17.295  0.00  0.00    +0.000 C 
BRANCH  17  18
ATOM     18  C   UNL     1       7.213   6.342  17.261  0.00  0.00    +0.000 A 
ATOM     19  N   UNL     1       6.337   7.085  16.570  0.00  0.00    +0.000 NA
ATOM     20  O   UNL     1       6.726   8.388  16.869  0.00  0.00    +0.000 OA
ATOM     21  C   UNL     1       7.817   8.295  17.692  0.00  0.00    +0.000 A 
ATOM     22  N   UNL     1       8.184   7.055  17.919  0.00  0.00    +0.000 NA
BRANCH  21  23
ATOM     23  C   UNL     1       8.365   9.542  18.203  0.00  0.00    +0.000 A 
ATOM     24  C   UNL     1       8.185  10.749  17.513  0.00  0.00    +0.000 A 
ATOM     25  C   UNL     1       8.714  11.942  18.009  0.00  0.00    +0.000 A 
ATOM     26  C   UNL     1       9.429  11.937  19.203  0.00  0.00    +0.000 A 
ATOM     27 CL   UNL     1      10.101  13.405  19.796  0.00  0.00    +0.000 Cl
ATOM     28  C   UNL     1       9.611  10.751  19.911  0.00  0.00    +0.000 A 
ATOM     29  C   UNL     1       9.076   9.558  19.415  0.00  0.00    +0.000 A 
ENDBRANCH  21  23
ENDBRANCH  17  18
ENDBRANCH   6  17
TORSDOF 4
ENDMDL
MODEL 5
REMARK VINA RESULT:      -7.9      6.331      9.028
REMARK  Name = 
REMARK  5 active torsions:
REMARK  status: ('A' for Active; 'I' for Inactive)
REMARK    1  A    between atoms: C_1  and  C_2
REMARK    2  A    between atoms: C_2  and  C_3
REMARK    3  A    between atoms: N_13  and  C_14
REMARK    4  A    between atoms: C_14  and  C_15
REMARK    5  A    between atoms: C_18  and  C_19
REMARK                            x       y       z     vdW  Elec       q    Type
REMARK                         _______ _______ _______ _____ _____    ______ ____
ROOT
ATOM      1  C   UNL     1      -0.438  14.175  20.147  0.00  0.00    +0.000 C 
ATOM      2  C   UNL     1      -0.900  12.810  20.636  0.00  0.00    +0.000 C 
ATOM      3  N   UNL     1      -1.962  12.925  21.617  0.00  0.00    +0.000 N 
ATOM      4  C   UNL     1      -1.817  11.996  22.633  0.00  0.00    +0.000 C 
ATOM      5  O   UNL     1      -2.686  11.738  23.441  0.00  0.00    +0.000 OA
ATOM      6  N   UNL     1      -0.579  11.444  22.517  0.00  0.00    +0.000 N 
ATOM      7  C   UNL     1       0.124  12.082  21.535  0.00  0.00    +0.000 C 
ATOM      8  O   UNL     1       1.328  11.980  21.316  0.00  0.00    +0.000 OA
ATOM      9  H   UNL     1      -2.867  13.338  21.438  0.00  0.00    +0.000 HD
ENDROOT
BRANCH   2  10
ATOM     10  C   UNL     1      -1.265  11.877  19.468  0.00  0.00    +0.000 A 
ATOM     11  C   UNL     1      -0.368  10.870  19.056  0.00  0.00    +0.000 A 
ATOM     12  C   UNL     1      -0.687  10.000  18.008  0.00  0.00    +0.000 A 
ATOM     13  C   UNL     1      -1.909  10.117  17.351  0.00  0.00    +0.000 A 
ATOM     14  C   UNL     1      -2.810  11.097  17.753  0.00  0.00    +0.000 A 
ATOM     15 BR   UNL     1      -4.470  11.271  16.863  0.00  0.00    +0.000 Br
ATOM     16  C   UNL     1      -2.501  11.963  18.803  0.00  0.00    +0.000 A 
ENDBRANCH   2  10
BRANCH   6  17
ATOM     17  C   UNL     1      -0.112  10.260  23.203  0.00  0.00    +0.000 C 
BRANCH  17  18
ATOM     18  C   UNL     1       0.138   9.144  22.268  0.00  0.00    +0.000 A 
ATOM     19  N   UNL     1      -0.807   8.261  21.919  0.00  0.00    +0.000 NA
ATOM     20  O   UNL     1      -0.153   7.446  20.999  0.00  0.00    +0.000 OA
ATOM     21  C   UNL     1       1.133   7.909  20.907  0.00  0.00    +0.000 A 
ATOM     22  N   UNL     1       1.372   8.921  21.709  0.00  0.00    +0.000 NA
BRANCH  21  23
ATOM     23  C   UNL     1       2.001   7.254  19.941  0.00  0.00    +0.000 A 
ATOM     24  C   UNL     1       2.319   7.867  18.721  0.00  0.00    +0.000 A 
ATOM     25  C   UNL     1       3.152   7.233  17.798  0.00  0.00    +0.000 A 
ATOM     26  C   UNL     1       3.677   5.977  18.089  0.00  0.00    +0.000 A 
ATOM     27 CL   UNL     1       4.682   5.189  16.937  0.00  0.00    +0.000 Cl
ATOM     28  C   UNL     1       3.383   5.354  19.300  0.00  0.00    +0.000 A 
ATOM     29  C   UNL     1       2.552   5.993  20.226  0.00  0.00    +0.000 A 
ENDBRANCH  21  23
ENDBRANCH  17  18
ENDBRANCH   6  17
TORSDOF 4
ENDMDL
MODEL 6
REMARK VINA RESULT:      -7.8      4.637      6.357
REMARK  Name = 
REMARK  5 active torsions:
REMARK  status: ('A' for Active; 'I' for Inactive)
REMARK    1  A    between atoms: C_1  and  C_2
REMARK    2  A    between atoms: C_2  and  C_3
REMARK    3  A    between atoms: N_13  and  C_14
REMARK    4  A    between atoms: C_14  and  C_15
REMARK    5  A    between atoms: C_18  and  C_19
REMARK                            x       y       z     vdW  Elec       q    Type
REMARK                         _______ _______ _______ _____ _____    ______ ____
ROOT
ATOM      1  C   UNL     1       3.733   1.473  17.557  0.00  0.00    +0.000 C 
ATOM      2  C   UNL     1       3.546   2.613  18.548  0.00  0.00    +0.000 C 
ATOM      3  N   UNL     1       3.804   2.183  19.910  0.00  0.00    +0.000 N 
ATOM      4  C   UNL     1       2.910   2.753  20.800  0.00  0.00    +0.000 C 
ATOM      5  O   UNL     1       3.053   2.735  22.006  0.00  0.00    +0.000 OA
ATOM      6  N   UNL     1       1.914   3.331  20.074  0.00  0.00    +0.000 N 
ATOM      7  C   UNL     1       2.075   3.040  18.750  0.00  0.00    +0.000 C 
ATOM      8  O   UNL     1       1.251   3.221  17.858  0.00  0.00    +0.000 OA
ATOM      9  H   UNL     1       4.692   1.834  20.243  0.00  0.00    +0.000 HD
ENDROOT
BRANCH   2  10
ATOM     10  C   UNL     1       4.359   3.856  18.150  0.00  0.00    +0.000 A 
ATOM     11  C   UNL     1       3.916   4.690  17.103  0.00  0.00    +0.000 A 
ATOM     12  C   UNL     1       4.630   5.835  16.737  0.00  0.00    +0.000 A 
ATOM     13  C   UNL     1       5.801   6.173  17.409  0.00  0.00    +0.000 A 
ATOM     14  C   UNL     1       6.247   5.368  18.452  0.00  0.00    +0.000 A 
ATOM     15 BR   UNL     1       7.841   5.811  19.369  0.00  0.00    +0.000 Br
ATOM     16  C   UNL     1       5.534   4.228  18.828  0.00  0.00    +0.000 A 
ENDBRANCH   2  10
BRANCH   6  17
ATOM     17  C   UNL     1       0.920   4.250  20.582  0.00  0.00    +0.000 C 
BRANCH  17  18
ATOM     18  C   UNL     1       1.349   5.657  20.444  0.00  0.00    +0.000 A 
ATOM     19  N   UNL     1       2.519   6.011  19.896  0.00  0.00    +0.000 NA
ATOM     20  O   UNL     1       2.471   7.402  19.923  0.00  0.00    +0.000 OA
ATOM     21  C   UNL     1       1.282   7.744  20.510  0.00  0.00    +0.000 A 
ATOM     22  N   UNL     1       0.581   6.702  20.894  0.00  0.00    +0.000 NA
BRANCH  21  23
ATOM     23  C   UNL     1       0.968   9.163  20.585  0.00  0.00    +0.000 A 
ATOM     24  C   UNL     1       1.161  10.007  19.482  0.00  0.00    +0.000 A 
ATOM     25  C   UNL     1       0.858  11.367  19.561  0.00  0.00    +0.000 A 
ATOM     26  C   UNL     1       0.358  11.896  20.747  0.00  0.00    +0.000 A 
ATOM     27 CL   UNL     1       0.011  13.578  20.846  0.00  0.00    +0.000 Cl
ATOM     28  C   UNL     1       0.148  11.074  21.852  0.00  0.00    +0.000 A 
ATOM     29  C   UNL     1       0.447   9.711  21.769  0.00  0.00    +0.000 A 
ENDBRANCH  21  23
ENDBRANCH  17  18
ENDBRANCH   6  17
TORSDOF 4
ENDMDL
MODEL 7
REMARK VINA RESULT:      -7.6      4.552      6.212
REMARK  Name = 
REMARK  5 active torsions:
REMARK  status: ('A' for Active; 'I' for Inactive)
REMARK    1  A    between atoms: C_1  and  C_2
REMARK    2  A    between atoms: C_2  and  C_3
REMARK    3  A    between atoms: N_13  and  C_14
REMARK    4  A    between atoms: C_14  and  C_15
REMARK    5  A    between atoms: C_18  and  C_19
REMARK                            x       y       z     vdW  Elec       q    Type
REMARK                         _______ _______ _______ _____ _____    ______ ____
ROOT
ATOM      1  C   UNL     1       3.528   1.771  16.979  0.00  0.00    +0.000 C 
ATOM      2  C   UNL     1       3.627   2.734  18.153  0.00  0.00    +0.000 C 
ATOM      3  N   UNL     1       4.057   2.057  19.363  0.00  0.00    +0.000 N 
ATOM      4  C   UNL     1       3.385   2.532  20.476  0.00  0.00    +0.000 C 
ATOM      5  O   UNL     1       3.720   2.296  21.619  0.00  0.00    +0.000 OA
ATOM      6  N   UNL     1       2.352   3.302  20.039  0.00  0.00    +0.000 N 
ATOM      7  C   UNL     1       2.262   3.232  18.678  0.00  0.00    +0.000 C 
ATOM      8  O   UNL     1       1.328   3.628  17.987  0.00  0.00    +0.000 OA
ATOM      9  H   UNL     1       4.945   1.588  19.473  0.00  0.00    +0.000 HD
ENDROOT
BRANCH   2  10
ATOM     10  C   UNL     1       4.492   3.961  17.817  0.00  0.00    +0.000 A 
ATOM     11  C   UNL     1       4.144   4.801  16.738  0.00  0.00    +0.000 A 
ATOM     12  C   UNL     1       4.906   5.931  16.425  0.00  0.00    +0.000 A 
ATOM     13  C   UNL     1       6.029   6.248  17.184  0.00  0.00    +0.000 A 
ATOM     14  C   UNL     1       6.379   5.437  18.258  0.00  0.00    +0.000 A 
ATOM     15 BR   UNL     1       7.908   5.852  19.292  0.00  0.00    +0.000 Br
ATOM     16  C   UNL     1       5.619   4.312  18.581  0.00  0.00    +0.000 A 
ENDBRANCH   2  10
BRANCH   6  17
ATOM     17  C   UNL     1       1.557   4.194  20.854  0.00  0.00    +0.000 C 
BRANCH  17  18
ATOM     18  C   UNL     1       1.804   5.612  20.522  0.00  0.00    +0.000 A 
ATOM     19  N   UNL     1       2.858   6.017  19.801  0.00  0.00    +0.000 NA
ATOM     20  O   UNL     1       2.655   7.390  19.691  0.00  0.00    +0.000 OA
ATOM     21  C   UNL     1       1.507   7.675  20.382  0.00  0.00    +0.000 A 
ATOM     22  N   UNL     1       0.977   6.618  20.953  0.00  0.00    +0.000 NA
BRANCH  21  23
ATOM     23  C   UNL     1       1.044   9.054  20.349  0.00  0.00    +0.000 A 
ATOM     24  C   UNL     1       0.573   9.687  21.509  0.00  0.00    +0.000 A 
ATOM     25  C   UNL     1       0.130  11.010  21.470  0.00  0.00    +0.000 A 
ATOM     26  C   UNL     1       0.153  11.713  20.269  0.00  0.00    +0.000 A 
ATOM     27 CL   UNL     1      -0.419  13.334  20.223  0.00  0.00    +0.000 Cl
ATOM     28  C   UNL     1       0.627  11.107  19.108  0.00  0.00    +0.000 A 
ATOM     29  C   UNL     1       1.076   9.783  19.149  0.00  0.00    +0.000 A 
ENDBRANCH  21  23
ENDBRANCH  17  18
ENDBRANCH   6  17
TORSDOF 4
ENDMDL
MODEL 8
REMARK VINA RESULT:      -7.6      6.491      8.908
REMARK  Name = 
REMARK  5 active torsions:
REMARK  status: ('A' for Active; 'I' for Inactive)
REMARK    1  A    between atoms: C_1  and  C_2
REMARK    2  A    between atoms: C_2  and  C_3
REMARK    3  A    between atoms: N_13  and  C_14
REMARK    4  A    between atoms: C_14  and  C_15
REMARK    5  A    between atoms: C_18  and  C_19
REMARK                            x       y       z     vdW  Elec       q    Type
REMARK                         _______ _______ _______ _____ _____    ______ ____
ROOT
ATOM      1  C   UNL     1      -2.685  10.983  16.240  0.00  0.00    +0.000 C 
ATOM      2  C   UNL     1      -2.302  11.505  17.617  0.00  0.00    +0.000 C 
ATOM      3  N   UNL     1      -1.315  12.565  17.529  0.00  0.00    +0.000 N 
ATOM      4  C   UNL     1      -0.372  12.466  18.538  0.00  0.00    +0.000 C 
ATOM      5  O   UNL     1       0.413  13.349  18.818  0.00  0.00    +0.000 OA
ATOM      6  N   UNL     1      -0.529  11.252  19.134  0.00  0.00    +0.000 N 
ATOM      7  C   UNL     1      -1.459  10.518  18.455  0.00  0.00    +0.000 C 
ATOM      8  O   UNL     1      -1.684   9.319  18.593  0.00  0.00    +0.000 OA
ATOM      9  H   UNL     1      -1.463  13.451  17.065  0.00  0.00    +0.000 HD
ENDROOT
BRANCH   2  10
ATOM     10  C   UNL     1      -3.537  11.906  18.441  0.00  0.00    +0.000 A 
ATOM     11  C   UNL     1      -4.832  11.735  17.910  0.00  0.00    +0.000 A 
ATOM     12  C   UNL     1      -5.969  12.077  18.649  0.00  0.00    +0.000 A 
ATOM     13  C   UNL     1      -5.837  12.594  19.935  0.00  0.00    +0.000 A 
ATOM     14  C   UNL     1      -4.568  12.758  20.479  0.00  0.00    +0.000 A 
ATOM     15 BR   UNL     1      -4.374  13.467  22.221  0.00  0.00    +0.000 Br
ATOM     16  C   UNL     1      -3.429  12.412  19.750  0.00  0.00    +0.000 A 
ENDBRANCH   2  10
BRANCH   6  17
ATOM     17  C   UNL     1       0.066  10.840  20.385  0.00  0.00    +0.000 C 
BRANCH  17  18
ATOM     18  C   UNL     1       0.772   9.549  20.261  0.00  0.00    +0.000 A 
ATOM     19  N   UNL     1       0.701   8.588  21.192  0.00  0.00    +0.000 NA
ATOM     20  O   UNL     1       1.457   7.557  20.639  0.00  0.00    +0.000 OA
ATOM     21  C   UNL     1       1.927   8.015  19.437  0.00  0.00    +0.000 A 
ATOM     22  N   UNL     1       1.574   9.254  19.187  0.00  0.00    +0.000 NA
BRANCH  21  23
ATOM     23  C   UNL     1       2.693   7.078  18.630  0.00  0.00    +0.000 A 
ATOM     24  C   UNL     1       3.686   7.525  17.747  0.00  0.00    +0.000 A 
ATOM     25  C   UNL     1       4.416   6.621  16.975  0.00  0.00    +0.000 A 
ATOM     26  C   UNL     1       4.158   5.257  17.079  0.00  0.00    +0.000 A 
ATOM     27 CL   UNL     1       5.043   4.149  16.106  0.00  0.00    +0.000 Cl
ATOM     28  C   UNL     1       3.184   4.789  17.957  0.00  0.00    +0.000 A 
ATOM     29  C   UNL     1       2.457   5.696  18.734  0.00  0.00    +0.000 A 
ENDBRANCH  21  23
ENDBRANCH  17  18
ENDBRANCH   6  17
TORSDOF 4
ENDMDL
MODEL 9
REMARK VINA RESULT:      -7.6      6.327      8.916
REMARK  Name = 
REMARK  5 active torsions:
REMARK  status: ('A' for Active; 'I' for Inactive)
REMARK    1  A    between atoms: C_1  and  C_2
REMARK    2  A    between atoms: C_2  and  C_3
REMARK    3  A    between atoms: N_13  and  C_14
REMARK    4  A    between atoms: C_14  and  C_15
REMARK    5  A    between atoms: C_18  and  C_19
REMARK                            x       y       z     vdW  Elec       q    Type
REMARK                         _______ _______ _______ _____ _____    ______ ____
ROOT
ATOM      1  C   UNL     1      -3.333  11.423  17.076  0.00  0.00    +0.000 C 
ATOM      2  C   UNL     1      -2.338  11.811  18.160  0.00  0.00    +0.000 C 
ATOM      3  N   UNL     1      -1.405  12.819  17.692  0.00  0.00    +0.000 N 
ATOM      4  C   UNL     1      -0.127  12.587  18.168  0.00  0.00    +0.000 C 
ATOM      5  O   UNL     1       0.774  13.400  18.110  0.00  0.00    +0.000 OA
ATOM      6  N   UNL     1      -0.106  11.341  18.712  0.00  0.00    +0.000 N 
ATOM      7  C   UNL     1      -1.299  10.715  18.486  0.00  0.00    +0.000 C 
ATOM      8  O   UNL     1      -1.541   9.523  18.653  0.00  0.00    +0.000 OA
ATOM      9  H   UNL     1      -1.668  13.746  17.386  0.00  0.00    +0.000 HD
ENDROOT
BRANCH   2  10
ATOM     10  C   UNL     1      -3.043  12.212  19.467  0.00  0.00    +0.000 A 
ATOM     11  C   UNL     1      -4.451  12.277  19.524  0.00  0.00    +0.000 A 
ATOM     12  C   UNL     1      -5.113  12.622  20.707  0.00  0.00    +0.000 A 
ATOM     13  C   UNL     1      -4.383  12.907  21.858  0.00  0.00    +0.000 A 
ATOM     14  C   UNL     1      -2.995  12.836  21.822  0.00  0.00    +0.000 A 
ATOM     15 BR   UNL     1      -1.992  13.229  23.377  0.00  0.00    +0.000 Br
ATOM     16  C   UNL     1      -2.328  12.485  20.648  0.00  0.00    +0.000 A 
ENDBRANCH   2  10
BRANCH   6  17
ATOM     17  C   UNL     1       0.942  10.797  19.546  0.00  0.00    +0.000 C 
BRANCH  17  18
ATOM     18  C   UNL     1       1.552   9.591  18.949  0.00  0.00    +0.000 A 
ATOM     19  N   UNL     1       2.133   9.591  17.742  0.00  0.00    +0.000 NA
ATOM     20  O   UNL     1       2.607   8.287  17.621  0.00  0.00    +0.000 OA
ATOM     21  C   UNL     1       2.237   7.626  18.762  0.00  0.00    +0.000 A 
ATOM     22  N   UNL     1       1.541   8.375  19.586  0.00  0.00    +0.000 NA
BRANCH  21  23
ATOM     23  C   UNL     1       2.688   6.250  18.901  0.00  0.00    +0.000 A 
ATOM     24  C   UNL     1       2.455   5.527  20.080  0.00  0.00    +0.000 A 
ATOM     25  C   UNL     1       2.890   4.207  20.207  0.00  0.00    +0.000 A 
ATOM     26  C   UNL     1       3.564   3.597  19.153  0.00  0.00    +0.000 A 
ATOM     27 CL   UNL     1       4.121   1.979  19.325  0.00  0.00    +0.000 Cl
ATOM     28  C   UNL     1       3.797   4.292  17.969  0.00  0.00    +0.000 A 
ATOM     29  C   UNL     1       3.355   5.613  17.841  0.00  0.00    +0.000 A 
ENDBRANCH  21  23
ENDBRANCH  17  18
ENDBRANCH   6  17
TORSDOF 4
ENDMDL
