MODEL 1
REMARK VINA RESULT:      -9.0      0.000      0.000
REMARK  Name = 
REMARK  5 active torsions:
REMARK  status: ('A' for Active; 'I' for Inactive)
REMARK    1  A    between atoms: C_7  and  C_8
REMARK    2  A    between atoms: N_10  and  C_11
REMARK    3  A    between atoms: C_11  and  C_12
REMARK    4  A    between atoms: C_12  and  C_13
REMARK    5  A    between atoms: C_12  and  N_20
REMARK                            x       y       z     vdW  Elec       q    Type
REMARK                         _______ _______ _______ _____ _____    ______ ____
ROOT
ATOM      1  C   UNL     1       1.841   8.667  18.712  0.00  0.00    +0.000 C 
ATOM      2  O   UNL     1       1.854   9.256  17.639  0.00  0.00    +0.000 OA
ATOM      3  N   UNL     1       2.546   7.502  18.943  0.00  0.00    +0.000 N 
ATOM      4  H   UNL     1       2.339   6.942  19.760  0.00  0.00    +0.000 HD
ENDROOT
BRANCH   1  11
ATOM      5  O   UNL     1      -2.711  12.410  23.664  0.00  0.00    +0.000 OA
ATOM      6  C   UNL     1      -2.021  11.952  22.757  0.00  0.00    +0.000 C 
ATOM      7  C   UNL     1      -1.919  12.592  21.374  0.00  0.00    +0.000 C 
ATOM      8  O   UNL     1      -1.464  11.814  20.277  0.00  0.00    +0.000 OA
ATOM      9  C   UNL     1      -0.594  10.814  20.618  0.00  0.00    +0.000 A 
ATOM     10  C   UNL     1       0.144  10.251  19.579  0.00  0.00    +0.000 A 
ATOM     11  C   UNL     1       1.029   9.196  19.838  0.00  0.00    +0.000 A 
ATOM     12  C   UNL     1       1.174   8.712  21.145  0.00  0.00    +0.000 A 
ATOM     13  C   UNL     1       0.422   9.270  22.186  0.00  0.00    +0.000 A 
ATOM     14  C   UNL     1      -0.459  10.320  21.917  0.00  0.00    +0.000 A 
ATOM     15  N   UNL     1      -1.220  10.861  22.952  0.00  0.00    +0.000 N 
ATOM     16  H   UNL     1      -1.205  10.466  23.883  0.00  0.00    +0.000 HD
ENDBRANCH   1  11
BRANCH   3  17
ATOM     17  C   UNL     1       3.374   6.938  17.884  0.00  0.00    +0.000 C 
BRANCH  17  18
ATOM     18  C   UNL     1       4.303   5.780  18.346  0.00  0.00    +0.000 C 
BRANCH  18  19
ATOM     19  C   UNL     1       3.559   4.458  18.587  0.00  0.00    +0.000 A 
ATOM     20  C   UNL     1       3.196   3.658  17.490  0.00  0.00    +0.000 A 
ATOM     21  C   UNL     1       2.407   2.517  17.662  0.00  0.00    +0.000 A 
ATOM     22  C   UNL     1       1.954   2.166  18.933  0.00  0.00    +0.000 A 
ATOM     23  C   UNL     1       2.318   2.940  20.031  0.00  0.00    +0.000 A 
ATOM     24 CL   UNL     1       1.727   2.540  21.597  0.00  0.00    +0.000 Cl
ATOM     25  C   UNL     1       3.127   4.064  19.868  0.00  0.00    +0.000 A 
ENDBRANCH  18  19
BRANCH  18  26
ATOM     26  N   UNL     1       5.522   5.528  17.540  0.00  0.00    +0.000 NA
ATOM     27  C   UNL     1       6.616   4.867  18.256  0.00  0.00    +0.000 C 
ATOM     28  C   UNL     1       7.562   5.974  18.682  0.00  0.00    +0.000 C 
ATOM     29  C   UNL     1       7.428   7.014  17.588  0.00  0.00    +0.000 C 
ATOM     30  C   UNL     1       6.120   6.693  16.877  0.00  0.00    +0.000 C 
ENDBRANCH  18  26
ENDBRANCH  17  18
ENDBRANCH   3  17
TORSDOF 5
ENDMDL
MODEL 2
REMARK VINA RESULT:      -8.8      2.629      4.388
REMARK  Name = 
REMARK  5 active torsions:
REMARK  status: ('A' for Active; 'I' for Inactive)
REMARK    1  A    between atoms: C_7  and  C_8
REMARK    2  A    between atoms: N_10  and  C_11
REMARK    3  A    between atoms: C_11  and  C_12
REMARK    4  A    between atoms: C_12  and  C_13
REMARK    5  A    between atoms: C_12  and  N_20
REMARK                            x       y       z     vdW  Elec       q    Type
REMARK                         _______ _______ _______ _____ _____    ______ ____
ROOT
ATOM      1  C   UNL     1       2.213   6.751  20.081  0.00  0.00    +0.000 C 
ATOM      2  O   UNL     1       1.516   5.900  20.620  0.00  0.00    +0.000 OA
ATOM      3  N   UNL     1       3.482   6.492  19.602  0.00  0.00    +0.000 N 
ATOM      4  H   UNL     1       4.096   7.261  19.363  0.00  0.00    +0.000 HD
ENDROOT
BRANCH   1  11
ATOM      5  O   UNL     1      -0.817  13.806  20.613  0.00  0.00    +0.000 OA
ATOM      6  C   UNL     1      -0.397  12.656  20.701  0.00  0.00    +0.000 C 
ATOM      7  C   UNL     1      -0.505  11.817  21.973  0.00  0.00    +0.000 C 
ATOM      8  O   UNL     1       0.347  10.693  22.141  0.00  0.00    +0.000 OA
ATOM      9  C   UNL     1       0.724  10.092  20.972  0.00  0.00    +0.000 A 
ATOM     10  C   UNL     1       1.260   8.809  21.077  0.00  0.00    +0.000 A 
ATOM     11  C   UNL     1       1.706   8.139  19.931  0.00  0.00    +0.000 A 
ATOM     12  C   UNL     1       1.608   8.758  18.678  0.00  0.00    +0.000 A 
ATOM     13  C   UNL     1       1.082  10.051  18.576  0.00  0.00    +0.000 A 
ATOM     14  C   UNL     1       0.642  10.713  19.724  0.00  0.00    +0.000 A 
ATOM     15  N   UNL     1       0.135  12.007  19.621  0.00  0.00    +0.000 N 
ATOM     16  H   UNL     1       0.145  12.511  18.745  0.00  0.00    +0.000 HD
ENDBRANCH   1  11
BRANCH   3  17
ATOM     17  C   UNL     1       4.032   5.146  19.705  0.00  0.00    +0.000 C 
BRANCH  17  18
ATOM     18  C   UNL     1       3.809   4.265  18.443  0.00  0.00    +0.000 C 
BRANCH  18  19
ATOM     19  C   UNL     1       5.012   4.246  17.489  0.00  0.00    +0.000 A 
ATOM     20  C   UNL     1       6.285   4.598  17.973  0.00  0.00    +0.000 A 
ATOM     21  C   UNL     1       7.375   4.717  17.106  0.00  0.00    +0.000 A 
ATOM     22  C   UNL     1       7.207   4.502  15.739  0.00  0.00    +0.000 A 
ATOM     23  C   UNL     1       5.958   4.138  15.248  0.00  0.00    +0.000 A 
ATOM     24 CL   UNL     1       5.731   3.913  13.557  0.00  0.00    +0.000 Cl
ATOM     25  C   UNL     1       4.873   3.992  16.112  0.00  0.00    +0.000 A 
ENDBRANCH  18  19
BRANCH  18  26
ATOM     26  N   UNL     1       3.323   2.881  18.663  0.00  0.00    +0.000 NA
ATOM     27  C   UNL     1       2.119   2.518  17.910  0.00  0.00    +0.000 C 
ATOM     28  C   UNL     1       0.959   2.695  18.871  0.00  0.00    +0.000 C 
ATOM     29  C   UNL     1       1.551   2.372  20.227  0.00  0.00    +0.000 C 
ATOM     30  C   UNL     1       3.059   2.494  20.053  0.00  0.00    +0.000 C 
ENDBRANCH  18  26
ENDBRANCH  17  18
ENDBRANCH   3  17
TORSDOF 5
ENDMDL
MODEL 3
REMARK VINA RESULT:      -8.7      1.149      1.607
REMARK  Name = 
REMARK  5 active torsions:
REMARK  status: ('A' for Active; 'I' for Inactive)
REMARK    1  A    between atoms: C_7  and  C_8
REMARK    2  A    between atoms: N_10  and  C_11
REMARK    3  A    between atoms: C_11  and  C_12
REMARK    4  A    between atoms: C_12  and  C_13
REMARK    5  A    between atoms: C_12  and  N_20
REMARK                            x       y       z     vdW  Elec       q    Type
REMARK                         _______ _______ _______ _____ _____    ______ ____
ROOT
ATOM      1  C   UNL     1       2.067   8.803  18.171  0.00  0.00    +0.000 C 
ATOM      2  O   UNL     1       2.370   9.191  17.050  0.00  0.00    +0.000 OA
ATOM      3  N   UNL     1       2.564   7.640  18.726  0.00  0.00    +0.000 N 
ATOM      4  H   UNL     1       2.129   7.251  19.553  0.00  0.00    +0.000 HD
ENDROOT
BRANCH   1  11
ATOM      5  O   UNL     1      -2.418  12.095  23.490  0.00  0.00    +0.000 OA
ATOM      6  C   UNL     1      -1.648  11.457  22.778  0.00  0.00    +0.000 C 
ATOM      7  C   UNL     1      -0.743  10.344  23.305  0.00  0.00    +0.000 C 
ATOM      8  O   UNL     1       0.391   9.950  22.547  0.00  0.00    +0.000 OA
ATOM      9  C   UNL     1       0.251  10.116  21.195  0.00  0.00    +0.000 A 
ATOM     10  C   UNL     1       1.165   9.441  20.389  0.00  0.00    +0.000 A 
ATOM     11  C   UNL     1       1.114   9.588  18.996  0.00  0.00    +0.000 A 
ATOM     12  C   UNL     1       0.139  10.411  18.417  0.00  0.00    +0.000 A 
ATOM     13  C   UNL     1      -0.769  11.099  19.230  0.00  0.00    +0.000 A 
ATOM     14  C   UNL     1      -0.709  10.948  20.617  0.00  0.00    +0.000 A 
ATOM     15  N   UNL     1      -1.604  11.648  21.425  0.00  0.00    +0.000 N 
ATOM     16  H   UNL     1      -2.251  12.321  21.037  0.00  0.00    +0.000 HD
ENDBRANCH   1  11
BRANCH   3  17
ATOM     17  C   UNL     1       3.515   6.830  17.974  0.00  0.00    +0.000 C 
BRANCH  17  18
ATOM     18  C   UNL     1       4.068   5.603  18.753  0.00  0.00    +0.000 C 
BRANCH  18  19
ATOM     19  C   UNL     1       3.018   4.509  18.996  0.00  0.00    +0.000 A 
ATOM     20  C   UNL     1       2.181   4.106  17.940  0.00  0.00    +0.000 A 
ATOM     21  C   UNL     1       1.131   3.209  18.158  0.00  0.00    +0.000 A 
ATOM     22  C   UNL     1       0.891   2.712  19.438  0.00  0.00    +0.000 A 
ATOM     23  C   UNL     1       1.721   3.089  20.489  0.00  0.00    +0.000 A 
ATOM     24 CL   UNL     1       1.405   2.516  22.081  0.00  0.00    +0.000 Cl
ATOM     25  C   UNL     1       2.785   3.963  20.272  0.00  0.00    +0.000 A 
ENDBRANCH  18  19
BRANCH  18  26
ATOM     26  N   UNL     1       5.321   4.991  18.249  0.00  0.00    +0.000 NA
ATOM     27  C   UNL     1       6.527   5.323  19.012  0.00  0.00    +0.000 C 
ATOM     28  C   UNL     1       7.198   6.454  18.256  0.00  0.00    +0.000 C 
ATOM     29  C   UNL     1       6.849   6.187  16.806  0.00  0.00    +0.000 C 
ATOM     30  C   UNL     1       5.653   5.244  16.842  0.00  0.00    +0.000 C 
ENDBRANCH  18  26
ENDBRANCH  17  18
ENDBRANCH   3  17
TORSDOF 5
ENDMDL
MODEL 4
REMARK VINA RESULT:      -8.7      2.420      4.164
REMARK  Name = 
REMARK  5 active torsions:
REMARK  status: ('A' for Active; 'I' for Inactive)
REMARK    1  A    between atoms: C_7  and  C_8
REMARK    2  A    between atoms: N_10  and  C_11
REMARK    3  A    between atoms: C_11  and  C_12
REMARK    4  A    between atoms: C_12  and  C_13
REMARK    5  A    between atoms: C_12  and  N_20
REMARK                            x       y       z     vdW  Elec       q    Type
REMARK                         _______ _______ _______ _____ _____    ______ ____
ROOT
ATOM      1  C   UNL     1       2.682   7.389  19.160  0.00  0.00    +0.000 C 
ATOM      2  O   UNL     1       3.203   7.438  18.053  0.00  0.00    +0.000 OA
ATOM      3  N   UNL     1       2.922   6.372  20.063  0.00  0.00    +0.000 N 
ATOM      4  H   UNL     1       2.317   6.258  20.866  0.00  0.00    +0.000 HD
ENDROOT
BRANCH   1  11
ATOM      5  O   UNL     1      -2.132  12.321  22.587  0.00  0.00    +0.000 OA
ATOM      6  C   UNL     1      -1.357  11.449  22.205  0.00  0.00    +0.000 C 
ATOM      7  C   UNL     1      -0.770  10.384  23.129  0.00  0.00    +0.000 C 
ATOM      8  O   UNL     1       0.407   9.692  22.737  0.00  0.00    +0.000 OA
ATOM      9  C   UNL     1       0.561   9.564  21.383  0.00  0.00    +0.000 A 
ATOM     10  C   UNL     1       1.487   8.618  20.950  0.00  0.00    +0.000 A 
ATOM     11  C   UNL     1       1.733   8.451  19.581  0.00  0.00    +0.000 A 
ATOM     12  C   UNL     1       1.040   9.235  18.648  0.00  0.00    +0.000 A 
ATOM     13  C   UNL     1       0.119  10.194  19.085  0.00  0.00    +0.000 A 
ATOM     14  C   UNL     1      -0.116  10.354  20.452  0.00  0.00    +0.000 A 
ATOM     15  N   UNL     1      -1.021  11.323  20.886  0.00  0.00    +0.000 N 
ATOM     16  H   UNL     1      -1.459  11.965  20.239  0.00  0.00    +0.000 HD
ENDBRANCH   1  11
BRANCH   3  17
ATOM     17  C   UNL     1       3.856   5.306  19.718  0.00  0.00    +0.000 C 
BRANCH  17  18
ATOM     18  C   UNL     1       3.575   4.629  18.347  0.00  0.00    +0.000 C 
BRANCH  18  19
ATOM     19  C   UNL     1       4.833   4.443  17.486  0.00  0.00    +0.000 A 
ATOM     20  C   UNL     1       6.099   4.674  18.053  0.00  0.00    +0.000 A 
ATOM     21  C   UNL     1       7.255   4.641  17.267  0.00  0.00    +0.000 A 
ATOM     22  C   UNL     1       7.162   4.392  15.899  0.00  0.00    +0.000 A 
ATOM     23  C   UNL     1       5.918   4.146  15.327  0.00  0.00    +0.000 A 
ATOM     24 CL   UNL     1       5.789   3.881  13.631  0.00  0.00    +0.000 Cl
ATOM     25  C   UNL     1       4.765   4.151  16.111  0.00  0.00    +0.000 A 
ENDBRANCH  18  19
BRANCH  18  26
ATOM     26  N   UNL     1       2.789   3.371  18.362  0.00  0.00    +0.000 NA
ATOM     27  C   UNL     1       1.335   3.544  18.297  0.00  0.00    +0.000 C 
ATOM     28  C   UNL     1       0.842   3.448  19.729  0.00  0.00    +0.000 C 
ATOM     29  C   UNL     1       1.810   2.489  20.390  0.00  0.00    +0.000 C 
ATOM     30  C   UNL     1       3.036   2.460  19.486  0.00  0.00    +0.000 C 
ENDBRANCH  18  26
ENDBRANCH  17  18
ENDBRANCH   3  17
TORSDOF 5
ENDMDL
MODEL 5
REMARK VINA RESULT:      -8.6      1.028      1.055
REMARK  Name = 
REMARK  5 active torsions:
REMARK  status: ('A' for Active; 'I' for Inactive)
REMARK    1  A    between atoms: C_7  and  C_8
REMARK    2  A    between atoms: N_10  and  C_11
REMARK    3  A    between atoms: C_11  and  C_12
REMARK    4  A    between atoms: C_12  and  C_13
REMARK    5  A    between atoms: C_12  and  N_20
REMARK                            x       y       z     vdW  Elec       q    Type
REMARK                         _______ _______ _______ _____ _____    ______ ____
ROOT
ATOM      1  C   UNL     1       1.912   8.770  18.514  0.00  0.00    +0.000 C 
ATOM      2  O   UNL     1       1.802   9.356  17.444  0.00  0.00    +0.000 OA
ATOM      3  N   UNL     1       2.755   7.692  18.699  0.00  0.00    +0.000 N 
ATOM      4  H   UNL     1       2.657   7.112  19.523  0.00  0.00    +0.000 HD
ENDROOT
BRANCH   1  11
ATOM      5  O   UNL     1      -2.593  12.099  23.792  0.00  0.00    +0.000 OA
ATOM      6  C   UNL     1      -1.909  11.717  22.847  0.00  0.00    +0.000 C 
ATOM      7  C   UNL     1      -1.798  12.482  21.529  0.00  0.00    +0.000 C 
ATOM      8  O   UNL     1      -1.352  11.802  20.364  0.00  0.00    +0.000 OA
ATOM      9  C   UNL     1      -0.495  10.763  20.611  0.00  0.00    +0.000 A 
ATOM     10  C   UNL     1       0.236  10.289  19.524  0.00  0.00    +0.000 A 
ATOM     11  C   UNL     1       1.106   9.203  19.684  0.00  0.00    +0.000 A 
ATOM     12  C   UNL     1       1.244   8.599  20.941  0.00  0.00    +0.000 A 
ATOM     13  C   UNL     1       0.499   9.068  22.028  0.00  0.00    +0.000 A 
ATOM     14  C   UNL     1      -0.368  10.149  21.859  0.00  0.00    +0.000 A 
ATOM     15  N   UNL     1      -1.123  10.603  22.940  0.00  0.00    +0.000 N 
ATOM     16  H   UNL     1      -1.114  10.123  23.830  0.00  0.00    +0.000 HD
ENDBRANCH   1  11
BRANCH   3  17
ATOM     17  C   UNL     1       3.585   7.226  17.594  0.00  0.00    +0.000 C 
BRANCH  17  18
ATOM     18  C   UNL     1       4.111   5.772  17.759  0.00  0.00    +0.000 C 
BRANCH  18  19
ATOM     19  C   UNL     1       3.091   4.821  18.402  0.00  0.00    +0.000 A 
ATOM     20  C   UNL     1       1.993   4.371  17.648  0.00  0.00    +0.000 A 
ATOM     21  C   UNL     1       0.979   3.612  18.238  0.00  0.00    +0.000 A 
ATOM     22  C   UNL     1       1.038   3.302  19.596  0.00  0.00    +0.000 A 
ATOM     23  C   UNL     1       2.127   3.727  20.351  0.00  0.00    +0.000 A 
ATOM     24 CL   UNL     1       2.186   3.388  22.038  0.00  0.00    +0.000 Cl
ATOM     25  C   UNL     1       3.154   4.462  19.762  0.00  0.00    +0.000 A 
ENDBRANCH  18  19
BRANCH  18  26
ATOM     26  N   UNL     1       4.710   5.130  16.564  0.00  0.00    +0.000 NA
ATOM     27  C   UNL     1       5.573   3.979  16.841  0.00  0.00    +0.000 C 
ATOM     28  C   UNL     1       6.994   4.513  16.822  0.00  0.00    +0.000 C 
ATOM     29  C   UNL     1       6.950   5.641  15.813  0.00  0.00    +0.000 C 
ATOM     30  C   UNL     1       5.478   6.003  15.668  0.00  0.00    +0.000 C 
ENDBRANCH  18  26
ENDBRANCH  17  18
ENDBRANCH   3  17
TORSDOF 5
ENDMDL
MODEL 6
REMARK VINA RESULT:      -8.6      2.419      4.097
REMARK  Name = 
REMARK  5 active torsions:
REMARK  status: ('A' for Active; 'I' for Inactive)
REMARK    1  A    between atoms: C_7  and  C_8
REMARK    2  A    between atoms: N_10  and  C_11
REMARK    3  A    between atoms: C_11  and  C_12
REMARK    4  A    between atoms: C_12  and  C_13
REMARK    5  A    between atoms: C_12  and  N_20
REMARK                            x       y       z     vdW  Elec       q    Type
REMARK                         _______ _______ _______ _____ _____    ______ ____
ROOT
ATOM      1  C   UNL     1       2.623   7.384  19.243  0.00  0.00    +0.000 C 
ATOM      2  O   UNL     1       3.192   7.562  18.173  0.00  0.00    +0.000 OA
ATOM      3  N   UNL     1       2.889   6.309  20.069  0.00  0.00    +0.000 N 
ATOM      4  H   UNL     1       2.256   6.088  20.827  0.00  0.00    +0.000 HD
ENDROOT
BRANCH   1  11
ATOM      5  O   UNL     1      -2.495  13.009  20.428  0.00  0.00    +0.000 OA
ATOM      6  C   UNL     1      -1.634  12.204  20.084  0.00  0.00    +0.000 C 
ATOM      7  C   UNL     1      -0.863  12.309  18.770  0.00  0.00    +0.000 C 
ATOM      8  O   UNL     1      -0.211  11.159  18.250  0.00  0.00    +0.000 OA
ATOM      9  C   UNL     1       0.205  10.268  19.203  0.00  0.00    +0.000 A 
ATOM     10  C   UNL     1       1.136   9.315  18.796  0.00  0.00    +0.000 A 
ATOM     11  C   UNL     1       1.585   8.343  19.700  0.00  0.00    +0.000 A 
ATOM     12  C   UNL     1       1.099   8.336  21.015  0.00  0.00    +0.000 A 
ATOM     13  C   UNL     1       0.155   9.286  21.417  0.00  0.00    +0.000 A 
ATOM     14  C   UNL     1      -0.289  10.250  20.508  0.00  0.00    +0.000 A 
ATOM     15  N   UNL     1      -1.244  11.184  20.907  0.00  0.00    +0.000 N 
ATOM     16  H   UNL     1      -1.680  11.139  21.818  0.00  0.00    +0.000 HD
ENDBRANCH   1  11
BRANCH   3  17
ATOM     17  C   UNL     1       3.908   5.339  19.686  0.00  0.00    +0.000 C 
BRANCH  17  18
ATOM     18  C   UNL     1       3.598   4.572  18.369  0.00  0.00    +0.000 C 
BRANCH  18  19
ATOM     19  C   UNL     1       4.822   4.405  17.455  0.00  0.00    +0.000 A 
ATOM     20  C   UNL     1       6.108   4.640  17.972  0.00  0.00    +0.000 A 
ATOM     21  C   UNL     1       7.230   4.624  17.138  0.00  0.00    +0.000 A 
ATOM     22  C   UNL     1       7.083   4.389  15.773  0.00  0.00    +0.000 A 
ATOM     23  C   UNL     1       5.818   4.139  15.250  0.00  0.00    +0.000 A 
ATOM     24 CL   UNL     1       5.620   3.892  13.558  0.00  0.00    +0.000 Cl
ATOM     25  C   UNL     1       4.698   4.128  16.081  0.00  0.00    +0.000 A 
ENDBRANCH  18  19
BRANCH  18  26
ATOM     26  N   UNL     1       2.886   3.278  18.493  0.00  0.00    +0.000 NA
ATOM     27  C   UNL     1       1.431   3.350  18.332  0.00  0.00    +0.000 C 
ATOM     28  C   UNL     1       0.860   3.389  19.737  0.00  0.00    +0.000 C 
ATOM     29  C   UNL     1       1.840   2.575  20.557  0.00  0.00    +0.000 C 
ATOM     30  C   UNL     1       3.117   2.520  19.728  0.00  0.00    +0.000 C 
ENDBRANCH  18  26
ENDBRANCH  17  18
ENDBRANCH   3  17
TORSDOF 5
ENDMDL
MODEL 7
REMARK VINA RESULT:      -8.5      2.627      4.457
REMARK  Name = 
REMARK  5 active torsions:
REMARK  status: ('A' for Active; 'I' for Inactive)
REMARK    1  A    between atoms: C_7  and  C_8
REMARK    2  A    between atoms: N_10  and  C_11
REMARK    3  A    between atoms: C_11  and  C_12
REMARK    4  A    between atoms: C_12  and  C_13
REMARK    5  A    between atoms: C_12  and  N_20
REMARK                            x       y       z     vdW  Elec       q    Type
REMARK                         _______ _______ _______ _____ _____    ______ ____
ROOT
ATOM      1  C   UNL     1       2.142   6.396  20.428  0.00  0.00    +0.000 C 
ATOM      2  O   UNL     1       1.699   5.434  21.043  0.00  0.00    +0.000 OA
ATOM      3  N   UNL     1       3.321   6.354  19.710  0.00  0.00    +0.000 N 
ATOM      4  H   UNL     1       3.753   7.216  19.401  0.00  0.00    +0.000 HD
ENDROOT
BRANCH   1  11
ATOM      5  O   UNL     1      -0.772  13.462  19.522  0.00  0.00    +0.000 OA
ATOM      6  C   UNL     1      -0.180  12.386  19.542  0.00  0.00    +0.000 C 
ATOM      7  C   UNL     1       1.001  12.061  18.629  0.00  0.00    +0.000 C 
ATOM      8  O   UNL     1       1.355  10.704  18.405  0.00  0.00    +0.000 OA
ATOM      9  C   UNL     1       1.062   9.866  19.446  0.00  0.00    +0.000 A 
ATOM     10  C   UNL     1       1.686   8.620  19.435  0.00  0.00    +0.000 A 
ATOM     11  C   UNL     1       1.409   7.688  20.445  0.00  0.00    +0.000 A 
ATOM     12  C   UNL     1       0.509   8.015  21.468  0.00  0.00    +0.000 A 
ATOM     13  C   UNL     1      -0.126   9.262  21.470  0.00  0.00    +0.000 A 
ATOM     14  C   UNL     1       0.154  10.183  20.458  0.00  0.00    +0.000 A 
ATOM     15  N   UNL     1      -0.494  11.417  20.453  0.00  0.00    +0.000 N 
ATOM     16  H   UNL     1      -1.218  11.637  21.123  0.00  0.00    +0.000 HD
ENDBRANCH   1  11
BRANCH   3  17
ATOM     17  C   UNL     1       4.081   5.112  19.642  0.00  0.00    +0.000 C 
BRANCH  17  18
ATOM     18  C   UNL     1       3.843   4.287  18.346  0.00  0.00    +0.000 C 
BRANCH  18  19
ATOM     19  C   UNL     1       5.041   4.296  17.385  0.00  0.00    +0.000 A 
ATOM     20  C   UNL     1       6.298   4.719  17.851  0.00  0.00    +0.000 A 
ATOM     21  C   UNL     1       7.377   4.864  16.974  0.00  0.00    +0.000 A 
ATOM     22  C   UNL     1       7.213   4.604  15.615  0.00  0.00    +0.000 A 
ATOM     23  C   UNL     1       5.979   4.170  15.142  0.00  0.00    +0.000 A 
ATOM     24 CL   UNL     1       5.754   3.890  13.459  0.00  0.00    +0.000 Cl
ATOM     25  C   UNL     1       4.906   3.999  16.016  0.00  0.00    +0.000 A 
ENDBRANCH  18  19
BRANCH  18  26
ATOM     26  N   UNL     1       3.345   2.899  18.510  0.00  0.00    +0.000 NA
ATOM     27  C   UNL     1       2.090   2.602  17.814  0.00  0.00    +0.000 C 
ATOM     28  C   UNL     1       0.996   2.736  18.857  0.00  0.00    +0.000 C 
ATOM     29  C   UNL     1       1.665   2.320  20.150  0.00  0.00    +0.000 C 
ATOM     30  C   UNL     1       3.162   2.429  19.888  0.00  0.00    +0.000 C 
ENDBRANCH  18  26
ENDBRANCH  17  18
ENDBRANCH   3  17
TORSDOF 5
ENDMDL
MODEL 8
REMARK VINA RESULT:      -8.4      2.452      4.188
REMARK  Name = 
REMARK  5 active torsions:
REMARK  status: ('A' for Active; 'I' for Inactive)
REMARK    1  A    between atoms: C_7  and  C_8
REMARK    2  A    between atoms: N_10  and  C_11
REMARK    3  A    between atoms: C_11  and  C_12
REMARK    4  A    between atoms: C_12  and  C_13
REMARK    5  A    between atoms: C_12  and  N_20
REMARK                            x       y       z     vdW  Elec       q    Type
REMARK                         _______ _______ _______ _____ _____    ______ ____
ROOT
ATOM      1  C   UNL     1       2.520   7.844  18.736  0.00  0.00    +0.000 C 
ATOM      2  O   UNL     1       3.379   7.920  17.867  0.00  0.00    +0.000 OA
ATOM      3  N   UNL     1       2.496   6.843  19.687  0.00  0.00    +0.000 N 
ATOM      4  H   UNL     1       1.663   6.696  20.243  0.00  0.00    +0.000 HD
ENDROOT
BRANCH   1  11
ATOM      5  O   UNL     1      -2.878  13.077  20.383  0.00  0.00    +0.000 OA
ATOM      6  C   UNL     1      -1.989  12.235  20.303  0.00  0.00    +0.000 C 
ATOM      7  C   UNL     1      -1.199  11.731  21.510  0.00  0.00    +0.000 C 
ATOM      8  O   UNL     1       0.057  11.100  21.306  0.00  0.00    +0.000 OA
ATOM      9  C   UNL     1       0.171  10.446  20.109  0.00  0.00    +0.000 A 
ATOM     10  C   UNL     1       1.219   9.534  19.998  0.00  0.00    +0.000 A 
ATOM     11  C   UNL     1       1.430   8.851  18.792  0.00  0.00    +0.000 A 
ATOM     12  C   UNL     1       0.580   9.082  17.703  0.00  0.00    +0.000 A 
ATOM     13  C   UNL     1      -0.464  10.007  17.813  0.00  0.00    +0.000 A 
ATOM     14  C   UNL     1      -0.664  10.686  19.017  0.00  0.00    +0.000 A 
ATOM     15  N   UNL     1      -1.694  11.620  19.118  0.00  0.00    +0.000 N 
ATOM     16  H   UNL     1      -2.257  11.875  18.318  0.00  0.00    +0.000 HD
ENDBRANCH   1  11
BRANCH   3  17
ATOM     17  C   UNL     1       3.546   5.831  19.696  0.00  0.00    +0.000 C 
BRANCH  17  18
ATOM     18  C   UNL     1       3.413   4.760  18.576  0.00  0.00    +0.000 C 
BRANCH  18  19
ATOM     19  C   UNL     1       4.698   4.568  17.757  0.00  0.00    +0.000 A 
ATOM     20  C   UNL     1       5.946   4.794  18.364  0.00  0.00    +0.000 A 
ATOM     21  C   UNL     1       7.125   4.755  17.616  0.00  0.00    +0.000 A 
ATOM     22  C   UNL     1       7.076   4.504  16.246  0.00  0.00    +0.000 A 
ATOM     23  C   UNL     1       5.850   4.262  15.634  0.00  0.00    +0.000 A 
ATOM     24 CL   UNL     1       5.774   3.995  13.936  0.00  0.00    +0.000 Cl
ATOM     25  C   UNL     1       4.673   4.274  16.381  0.00  0.00    +0.000 A 
ENDBRANCH  18  19
BRANCH  18  26
ATOM     26  N   UNL     1       2.865   3.438  18.966  0.00  0.00    +0.000 NA
ATOM     27  C   UNL     1       1.427   3.270  18.744  0.00  0.00    +0.000 C 
ATOM     28  C   UNL     1       0.766   3.538  20.083  0.00  0.00    +0.000 C 
ATOM     29  C   UNL     1       1.787   3.070  21.099  0.00  0.00    +0.000 C 
ATOM     30  C   UNL     1       3.112   3.011  20.349  0.00  0.00    +0.000 C 
ENDBRANCH  18  26
ENDBRANCH  17  18
ENDBRANCH   3  17
TORSDOF 5
ENDMDL
MODEL 9
REMARK VINA RESULT:      -8.3      1.373      1.995
REMARK  Name = 
REMARK  5 active torsions:
REMARK  status: ('A' for Active; 'I' for Inactive)
REMARK    1  A    between atoms: C_7  and  C_8
REMARK    2  A    between atoms: N_10  and  C_11
REMARK    3  A    between atoms: C_11  and  C_12
REMARK    4  A    between atoms: C_12  and  C_13
REMARK    5  A    between atoms: C_12  and  N_20
REMARK                            x       y       z     vdW  Elec       q    Type
REMARK                         _______ _______ _______ _____ _____    ______ ____
ROOT
ATOM      1  C   UNL     1       1.715   9.433  18.200  0.00  0.00    +0.000 C 
ATOM      2  O   UNL     1       2.265   9.974  17.249  0.00  0.00    +0.000 OA
ATOM      3  N   UNL     1       1.998   8.142  18.600  0.00  0.00    +0.000 N 
ATOM      4  H   UNL     1       1.378   7.668  19.244  0.00  0.00    +0.000 HD
ENDROOT
BRANCH   1  11
ATOM      5  O   UNL     1      -3.079  12.621  23.309  0.00  0.00    +0.000 OA
ATOM      6  C   UNL     1      -2.244  12.021  22.638  0.00  0.00    +0.000 C 
ATOM      7  C   UNL     1      -1.196  11.088  23.242  0.00  0.00    +0.000 C 
ATOM      8  O   UNL     1      -0.031  10.770  22.493  0.00  0.00    +0.000 OA
ATOM      9  C   UNL     1      -0.211  10.787  21.137  0.00  0.00    +0.000 A 
ATOM     10  C   UNL     1       0.770  10.160  20.372  0.00  0.00    +0.000 A 
ATOM     11  C   UNL     1       0.681  10.166  18.974  0.00  0.00    +0.000 A 
ATOM     12  C   UNL     1      -0.400  10.800  18.347  0.00  0.00    +0.000 A 
ATOM     13  C   UNL     1      -1.378  11.441  19.117  0.00  0.00    +0.000 A 
ATOM     14  C   UNL     1      -1.279  11.432  20.510  0.00  0.00    +0.000 A 
ATOM     15  N   UNL     1      -2.244  12.086  21.273  0.00  0.00    +0.000 N 
ATOM     16  H   UNL     1      -2.978  12.632  20.842  0.00  0.00    +0.000 HD
ENDBRANCH   1  11
BRANCH   3  17
ATOM     17  C   UNL     1       3.014   7.373  17.892  0.00  0.00    +0.000 C 
BRANCH  17  18
ATOM     18  C   UNL     1       3.674   6.250  18.741  0.00  0.00    +0.000 C 
BRANCH  18  19
ATOM     19  C   UNL     1       2.779   5.016  18.927  0.00  0.00    +0.000 A 
ATOM     20  C   UNL     1       1.993   4.563  17.853  0.00  0.00    +0.000 A 
ATOM     21  C   UNL     1       1.072   3.526  18.024  0.00  0.00    +0.000 A 
ATOM     22  C   UNL     1       0.910   2.935  19.276  0.00  0.00    +0.000 A 
ATOM     23  C   UNL     1       1.692   3.362  20.344  0.00  0.00    +0.000 A 
ATOM     24 CL   UNL     1       1.468   2.669  21.904  0.00  0.00    +0.000 Cl
ATOM     25  C   UNL     1       2.631   4.378  20.173  0.00  0.00    +0.000 A 
ENDBRANCH  18  19
BRANCH  18  26
ATOM     26  N   UNL     1       5.040   5.823  18.352  0.00  0.00    +0.000 NA
ATOM     27  C   UNL     1       5.573   6.463  17.146  0.00  0.00    +0.000 C 
ATOM     28  C   UNL     1       5.331   5.481  16.015  0.00  0.00    +0.000 C 
ATOM     29  C   UNL     1       5.430   4.123  16.678  0.00  0.00    +0.000 C 
ATOM     30  C   UNL     1       5.247   4.382  18.168  0.00  0.00    +0.000 C 
ENDBRANCH  18  26
ENDBRANCH  17  18
ENDBRANCH   3  17
TORSDOF 5
ENDMDL
