MODEL 1
REMARK VINA RESULT:      -7.5      0.000      0.000
REMARK  Name = 
REMARK  3 active torsions:
REMARK  status: ('A' for Active; 'I' for Inactive)
REMARK    1  A    between atoms: C_4  and  C_5
REMARK    2  A    between atoms: C_11  and  C_12
REMARK    3  A    between atoms: C_21  and  C_22
REMARK                            x       y       z     vdW  Elec       q    Type
REMARK                         _______ _______ _______ _____ _____    ______ ____
ROOT
ATOM      1  O   UNL     1      -3.430  10.442  17.629  0.00  0.00    +0.000 OA
ATOM      2  C   UNL     1      -2.432  10.920  18.154  0.00  0.00    +0.000 C 
ATOM      3  N   UNL     1      -1.331  10.173  18.442  0.00  0.00    +0.000 N 
ATOM      4  C   UNL     1      -0.141  10.669  18.934  0.00  0.00    +0.000 C 
ATOM      5  C   UNL     1      -0.082  11.953  19.356  0.00  0.00    +0.000 C 
ATOM      6  C   UNL     1      -1.394  12.719  19.453  0.00  0.00    +0.000 C 
ATOM      7  N   UNL     1      -2.340  12.240  18.463  0.00  0.00    +0.000 N 
ATOM      8  H   UNL     1      -1.386   9.199  18.167  0.00  0.00    +0.000 HD
ATOM      9  H   UNL     1      -3.210  12.741  18.351  0.00  0.00    +0.000 HD
ENDROOT
BRANCH   5  10
ATOM     10  C   UNL     1       1.177  12.592  19.623  0.00  0.00    +0.000 A 
ATOM     11  N   UNL     1       1.722  12.861  20.793  0.00  0.00    +0.000 NA
ATOM     12  C   UNL     1       2.845  13.678  20.642  0.00  0.00    +0.000 A 
ATOM     13  C   UNL     1       3.661  14.188  21.676  0.00  0.00    +0.000 A 
ATOM     14  C   UNL     1       4.732  15.043  21.369  0.00  0.00    +0.000 A 
ATOM     15  C   UNL     1       4.997  15.399  20.050  0.00  0.00    +0.000 A 
ATOM     16  C   UNL     1       4.214  14.894  19.009  0.00  0.00    +0.000 A 
ATOM     17  C   UNL     1       3.147  14.035  19.328  0.00  0.00    +0.000 A 
ATOM     18  S   UNL     1       2.027  13.275  18.272  0.00  0.00    +0.000 S 
ENDBRANCH   5  10
BRANCH   4  19
ATOM     19  C   UNL     1       0.930   9.663  18.971  0.00  0.00    +0.000 A 
ATOM     20  C   UNL     1       1.069   8.869  20.119  0.00  0.00    +0.000 A 
ATOM     21  C   UNL     1       1.898   7.747  20.105  0.00  0.00    +0.000 A 
ATOM     22  C   UNL     1       2.598   7.417  18.946  0.00  0.00    +0.000 A 
ATOM     23  C   UNL     1       2.479   8.214  17.806  0.00  0.00    +0.000 A 
ATOM     24  C   UNL     1       1.644   9.333  17.815  0.00  0.00    +0.000 A 
ENDBRANCH   4  19
BRANCH   6  25
ATOM     25  C   UNL     1      -2.033  12.676  20.840  0.00  0.00    +0.000 A 
ATOM     26  C   UNL     1      -1.531  11.814  21.826  0.00  0.00    +0.000 A 
ATOM     27  C   UNL     1      -2.074  11.813  23.114  0.00  0.00    +0.000 A 
ATOM     28  C   UNL     1      -3.124  12.671  23.437  0.00  0.00    +0.000 A 
ATOM     29  C   UNL     1      -3.638  13.529  22.472  0.00  0.00    +0.000 A 
ATOM     30  C   UNL     1      -3.098  13.530  21.187  0.00  0.00    +0.000 A 
ENDBRANCH   6  25
TORSDOF 3
ENDMDL
MODEL 2
REMARK VINA RESULT:      -7.0      0.903      1.035
REMARK  Name = 
REMARK  3 active torsions:
REMARK  status: ('A' for Active; 'I' for Inactive)
REMARK    1  A    between atoms: C_4  and  C_5
REMARK    2  A    between atoms: C_11  and  C_12
REMARK    3  A    between atoms: C_21  and  C_22
REMARK                            x       y       z     vdW  Elec       q    Type
REMARK                         _______ _______ _______ _____ _____    ______ ____
ROOT
ATOM      1  O   UNL     1      -2.823  10.097  16.282  0.00  0.00    +0.000 OA
ATOM      2  C   UNL     1      -1.984  10.624  17.004  0.00  0.00    +0.000 C 
ATOM      3  N   UNL     1      -0.980   9.916  17.591  0.00  0.00    +0.000 N 
ATOM      4  C   UNL     1       0.052  10.464  18.327  0.00  0.00    +0.000 C 
ATOM      5  C   UNL     1      -0.003  11.769  18.676  0.00  0.00    +0.000 C 
ATOM      6  C   UNL     1      -1.306  12.511  18.411  0.00  0.00    +0.000 C 
ATOM      7  N   UNL     1      -1.981  11.960  17.251  0.00  0.00    +0.000 N 
ATOM      8  H   UNL     1      -0.959   8.929  17.367  0.00  0.00    +0.000 HD
ATOM      9  H   UNL     1      -2.802  12.436  16.905  0.00  0.00    +0.000 HD
ENDROOT
BRANCH   5  10
ATOM     10  C   UNL     1       1.149  12.448  19.203  0.00  0.00    +0.000 A 
ATOM     11  N   UNL     1       1.368  12.841  20.443  0.00  0.00    +0.000 NA
ATOM     12  C   UNL     1       2.502  13.652  20.513  0.00  0.00    +0.000 A 
ATOM     13  C   UNL     1       3.022  14.275  21.670  0.00  0.00    +0.000 A 
ATOM     14  C   UNL     1       4.148  15.109  21.574  0.00  0.00    +0.000 A 
ATOM     15  C   UNL     1       4.758  15.334  20.344  0.00  0.00    +0.000 A 
ATOM     16  C   UNL     1       4.272  14.717  19.188  0.00  0.00    +0.000 A 
ATOM     17  C   UNL     1       3.146  13.880  19.297  0.00  0.00    +0.000 A 
ATOM     18  S   UNL     1       2.336  13.003  18.064  0.00  0.00    +0.000 S 
ENDBRANCH   5  10
BRANCH   4  19
ATOM     19  C   UNL     1       1.091   9.484  18.677  0.00  0.00    +0.000 A 
ATOM     20  C   UNL     1       1.077   8.919  19.961  0.00  0.00    +0.000 A 
ATOM     21  C   UNL     1       1.879   7.816  20.254  0.00  0.00    +0.000 A 
ATOM     22  C   UNL     1       2.704   7.277  19.269  0.00  0.00    +0.000 A 
ATOM     23  C   UNL     1       2.735   7.845  17.995  0.00  0.00    +0.000 A 
ATOM     24  C   UNL     1       1.928   8.945  17.696  0.00  0.00    +0.000 A 
ENDBRANCH   4  19
BRANCH   6  25
ATOM     25  C   UNL     1      -2.261  12.527  19.603  0.00  0.00    +0.000 A 
ATOM     26  C   UNL     1      -1.761  12.605  20.912  0.00  0.00    +0.000 A 
ATOM     27  C   UNL     1      -2.631  12.681  22.003  0.00  0.00    +0.000 A 
ATOM     28  C   UNL     1      -4.012  12.680  21.805  0.00  0.00    +0.000 A 
ATOM     29  C   UNL     1      -4.526  12.599  20.517  0.00  0.00    +0.000 A 
ATOM     30  C   UNL     1      -3.658  12.523  19.428  0.00  0.00    +0.000 A 
ENDBRANCH   6  25
TORSDOF 3
ENDMDL
MODEL 3
REMARK VINA RESULT:      -6.9      0.976      1.347
REMARK  Name = 
REMARK  3 active torsions:
REMARK  status: ('A' for Active; 'I' for Inactive)
REMARK    1  A    between atoms: C_4  and  C_5
REMARK    2  A    between atoms: C_11  and  C_12
REMARK    3  A    between atoms: C_21  and  C_22
REMARK                            x       y       z     vdW  Elec       q    Type
REMARK                         _______ _______ _______ _____ _____    ______ ____
ROOT
ATOM      1  O   UNL     1      -3.859   9.969  17.515  0.00  0.00    +0.000 OA
ATOM      2  C   UNL     1      -2.923  10.601  17.991  0.00  0.00    +0.000 C 
ATOM      3  N   UNL     1      -1.750  10.010  18.348  0.00  0.00    +0.000 N 
ATOM      4  C   UNL     1      -0.626  10.679  18.790  0.00  0.00    +0.000 C 
ATOM      5  C   UNL     1      -0.713  11.995  19.087  0.00  0.00    +0.000 C 
ATOM      6  C   UNL     1      -2.102  12.618  19.112  0.00  0.00    +0.000 C 
ATOM      7  N   UNL     1      -2.980  11.946  18.173  0.00  0.00    +0.000 N 
ATOM      8  H   UNL     1      -1.695   9.015  18.167  0.00  0.00    +0.000 HD
ATOM      9  H   UNL     1      -3.899  12.336  18.014  0.00  0.00    +0.000 HD
ENDROOT
BRANCH   5  10
ATOM     10  C   UNL     1       0.466  12.791  19.292  0.00  0.00    +0.000 A 
ATOM     11  N   UNL     1       1.283  13.287  18.383  0.00  0.00    +0.000 NA
ATOM     12  C   UNL     1       2.427  13.819  18.981  0.00  0.00    +0.000 A 
ATOM     13  C   UNL     1       3.528  14.407  18.319  0.00  0.00    +0.000 A 
ATOM     14  C   UNL     1       4.636  14.853  19.058  0.00  0.00    +0.000 A 
ATOM     15  C   UNL     1       4.664  14.717  20.442  0.00  0.00    +0.000 A 
ATOM     16  C   UNL     1       3.581  14.154  21.121  0.00  0.00    +0.000 A 
ATOM     17  C   UNL     1       2.475  13.714  20.371  0.00  0.00    +0.000 A 
ATOM     18  S   UNL     1       1.021  12.988  20.925  0.00  0.00    +0.000 S 
ENDBRANCH   5  10
BRANCH   4  19
ATOM     19  C   UNL     1       0.548   9.804  18.921  0.00  0.00    +0.000 A 
ATOM     20  C   UNL     1       0.759   9.139  20.138  0.00  0.00    +0.000 A 
ATOM     21  C   UNL     1       1.706   8.119  20.228  0.00  0.00    +0.000 A 
ATOM     22  C   UNL     1       2.453   7.764  19.106  0.00  0.00    +0.000 A 
ATOM     23  C   UNL     1       2.260   8.435  17.897  0.00  0.00    +0.000 A 
ATOM     24  C   UNL     1       1.308   9.451  17.802  0.00  0.00    +0.000 A 
ENDBRANCH   4  19
BRANCH   6  25
ATOM     25  C   UNL     1      -2.745  12.636  20.497  0.00  0.00    +0.000 A 
ATOM     26  C   UNL     1      -2.058  12.121  21.606  0.00  0.00    +0.000 A 
ATOM     27  C   UNL     1      -2.618  12.189  22.885  0.00  0.00    +0.000 A 
ATOM     28  C   UNL     1      -3.870  12.772  23.077  0.00  0.00    +0.000 A 
ATOM     29  C   UNL     1      -4.568  13.284  21.990  0.00  0.00    +0.000 A 
ATOM     30  C   UNL     1      -4.011  13.216  20.714  0.00  0.00    +0.000 A 
ENDBRANCH   6  25
TORSDOF 3
ENDMDL
MODEL 4
REMARK VINA RESULT:      -6.8      2.091      5.427
REMARK  Name = 
REMARK  3 active torsions:
REMARK  status: ('A' for Active; 'I' for Inactive)
REMARK    1  A    between atoms: C_4  and  C_5
REMARK    2  A    between atoms: C_11  and  C_12
REMARK    3  A    between atoms: C_21  and  C_22
REMARK                            x       y       z     vdW  Elec       q    Type
REMARK                         _______ _______ _______ _____ _____    ______ ____
ROOT
ATOM      1  O   UNL     1      -3.430  14.624  21.007  0.00  0.00    +0.000 OA
ATOM      2  C   UNL     1      -2.666  13.750  20.616  0.00  0.00    +0.000 C 
ATOM      3  N   UNL     1      -1.394  14.020  20.211  0.00  0.00    +0.000 N 
ATOM      4  C   UNL     1      -0.454  13.073  19.860  0.00  0.00    +0.000 C 
ATOM      5  C   UNL     1      -0.837  11.784  19.708  0.00  0.00    +0.000 C 
ATOM      6  C   UNL     1      -2.330  11.490  19.734  0.00  0.00    +0.000 C 
ATOM      7  N   UNL     1      -3.024  12.440  20.582  0.00  0.00    +0.000 N 
ATOM      8  H   UNL     1      -1.116  14.992  20.282  0.00  0.00    +0.000 HD
ATOM      9  H   UNL     1      -4.005  12.285  20.771  0.00  0.00    +0.000 HD
ENDROOT
BRANCH   5  10
ATOM     10  C   UNL     1       0.132  10.727  19.607  0.00  0.00    +0.000 A 
ATOM     11  N   UNL     1       0.812  10.343  18.545  0.00  0.00    +0.000 NA
ATOM     12  C   UNL     1       1.490   9.149  18.794  0.00  0.00    +0.000 A 
ATOM     13  C   UNL     1       2.295   8.430  17.882  0.00  0.00    +0.000 A 
ATOM     14  C   UNL     1       2.874   7.210  18.266  0.00  0.00    +0.000 A 
ATOM     15  C   UNL     1       2.661   6.696  19.541  0.00  0.00    +0.000 A 
ATOM     16  C   UNL     1       1.883   7.396  20.466  0.00  0.00    +0.000 A 
ATOM     17  C   UNL     1       1.310   8.619  20.072  0.00  0.00    +0.000 A 
ATOM     18  S   UNL     1       0.318   9.684  20.983  0.00  0.00    +0.000 S 
ENDBRANCH   5  10
BRANCH   4  19
ATOM     19  C   UNL     1       0.885  13.642  19.648  0.00  0.00    +0.000 A 
ATOM     20  C   UNL     1       1.746  13.765  20.748  0.00  0.00    +0.000 A 
ATOM     21  C   UNL     1       3.095  14.062  20.557  0.00  0.00    +0.000 A 
ATOM     22  C   UNL     1       3.589  14.247  19.267  0.00  0.00    +0.000 A 
ATOM     23  C   UNL     1       2.733  14.144  18.169  0.00  0.00    +0.000 A 
ATOM     24  C   UNL     1       1.384  13.839  18.357  0.00  0.00    +0.000 A 
ENDBRANCH   4  19
BRANCH   6  25
ATOM     25  C   UNL     1      -2.978  11.463  18.351  0.00  0.00    +0.000 A 
ATOM     26  C   UNL     1      -2.221  11.131  17.218  0.00  0.00    +0.000 A 
ATOM     27  C   UNL     1      -2.822  11.048  15.959  0.00  0.00    +0.000 A 
ATOM     28  C   UNL     1      -4.186  11.295  15.811  0.00  0.00    +0.000 A 
ATOM     29  C   UNL     1      -4.953  11.630  16.921  0.00  0.00    +0.000 A 
ATOM     30  C   UNL     1      -4.354  11.714  18.177  0.00  0.00    +0.000 A 
ENDBRANCH   6  25
TORSDOF 3
ENDMDL
MODEL 5
REMARK VINA RESULT:      -6.8      3.828      7.083
REMARK  Name = 
REMARK  3 active torsions:
REMARK  status: ('A' for Active; 'I' for Inactive)
REMARK    1  A    between atoms: C_4  and  C_5
REMARK    2  A    between atoms: C_11  and  C_12
REMARK    3  A    between atoms: C_21  and  C_22
REMARK                            x       y       z     vdW  Elec       q    Type
REMARK                         _______ _______ _______ _____ _____    ______ ____
ROOT
ATOM      1  O   UNL     1       0.401  16.010  23.845  0.00  0.00    +0.000 OA
ATOM      2  C   UNL     1      -0.407  15.408  23.147  0.00  0.00    +0.000 C 
ATOM      3  N   UNL     1      -0.233  14.105  22.790  0.00  0.00    +0.000 N 
ATOM      4  C   UNL     1      -1.152  13.343  22.098  0.00  0.00    +0.000 C 
ATOM      5  C   UNL     1      -2.232  13.944  21.548  0.00  0.00    +0.000 C 
ATOM      6  C   UNL     1      -2.264  15.465  21.551  0.00  0.00    +0.000 C 
ATOM      7  N   UNL     1      -1.550  15.990  22.700  0.00  0.00    +0.000 N 
ATOM      8  H   UNL     1       0.597  13.662  23.164  0.00  0.00    +0.000 HD
ATOM      9  H   UNL     1      -1.593  16.984  22.877  0.00  0.00    +0.000 HD
ENDROOT
BRANCH   5  10
ATOM     10  C   UNL     1      -3.341  13.174  21.053  0.00  0.00    +0.000 A 
ATOM     11  N   UNL     1      -3.533  12.713  19.833  0.00  0.00    +0.000 NA
ATOM     12  C   UNL     1      -4.824  12.201  19.694  0.00  0.00    +0.000 A 
ATOM     13  C   UNL     1      -5.391  11.649  18.523  0.00  0.00    +0.000 A 
ATOM     14  C   UNL     1      -6.728  11.220  18.523  0.00  0.00    +0.000 A 
ATOM     15  C   UNL     1      -7.506  11.336  19.670  0.00  0.00    +0.000 A 
ATOM     16  C   UNL     1      -6.965  11.862  20.845  0.00  0.00    +0.000 A 
ATOM     17  C   UNL     1      -5.623  12.285  20.834  0.00  0.00    +0.000 A 
ATOM     18  S   UNL     1      -4.701  12.967  22.112  0.00  0.00    +0.000 S 
ENDBRANCH   5  10
BRANCH   4  19
ATOM     19  C   UNL     1      -0.777  11.923  22.018  0.00  0.00    +0.000 A 
ATOM     20  C   UNL     1       0.073  11.509  20.982  0.00  0.00    +0.000 A 
ATOM     21  C   UNL     1       0.650  10.239  21.010  0.00  0.00    +0.000 A 
ATOM     22  C   UNL     1       0.374   9.375  22.067  0.00  0.00    +0.000 A 
ATOM     23  C   UNL     1      -0.485   9.775  23.092  0.00  0.00    +0.000 A 
ATOM     24  C   UNL     1      -1.058  11.048  23.071  0.00  0.00    +0.000 A 
ENDBRANCH   4  19
BRANCH   6  25
ATOM     25  C   UNL     1      -1.716  16.097  20.272  0.00  0.00    +0.000 A 
ATOM     26  C   UNL     1      -2.210  17.330  19.822  0.00  0.00    +0.000 A 
ATOM     27  C   UNL     1      -1.672  17.941  18.686  0.00  0.00    +0.000 A 
ATOM     28  C   UNL     1      -0.634  17.332  17.983  0.00  0.00    +0.000 A 
ATOM     29  C   UNL     1      -0.133  16.108  18.411  0.00  0.00    +0.000 A 
ATOM     30  C   UNL     1      -0.670  15.498  19.543  0.00  0.00    +0.000 A 
ENDBRANCH   6  25
TORSDOF 3
ENDMDL
MODEL 6
REMARK VINA RESULT:      -6.7      0.412      1.347
REMARK  Name = 
REMARK  3 active torsions:
REMARK  status: ('A' for Active; 'I' for Inactive)
REMARK    1  A    between atoms: C_4  and  C_5
REMARK    2  A    between atoms: C_11  and  C_12
REMARK    3  A    between atoms: C_21  and  C_22
REMARK                            x       y       z     vdW  Elec       q    Type
REMARK                         _______ _______ _______ _____ _____    ______ ____
ROOT
ATOM      1  O   UNL     1      -3.954  10.629  17.791  0.00  0.00    +0.000 OA
ATOM      2  C   UNL     1      -2.908  11.037  18.282  0.00  0.00    +0.000 C 
ATOM      3  N   UNL     1      -1.842  10.220  18.507  0.00  0.00    +0.000 N 
ATOM      4  C   UNL     1      -0.605  10.636  18.958  0.00  0.00    +0.000 C 
ATOM      5  C   UNL     1      -0.454  11.904  19.403  0.00  0.00    +0.000 C 
ATOM      6  C   UNL     1      -1.714  12.742  19.572  0.00  0.00    +0.000 C 
ATOM      7  N   UNL     1      -2.727  12.342  18.614  0.00  0.00    +0.000 N 
ATOM      8  H   UNL     1      -1.965   9.258  18.215  0.00  0.00    +0.000 HD
ATOM      9  H   UNL     1      -3.570  12.895  18.550  0.00  0.00    +0.000 HD
ENDROOT
BRANCH   5  10
ATOM     10  C   UNL     1       0.851  12.463  19.629  0.00  0.00    +0.000 A 
ATOM     11  N   UNL     1       1.462  12.666  20.780  0.00  0.00    +0.000 NA
ATOM     12  C   UNL     1       2.622  13.422  20.599  0.00  0.00    +0.000 A 
ATOM     13  C   UNL     1       3.512  13.854  21.608  0.00  0.00    +0.000 A 
ATOM     14  C   UNL     1       4.615  14.657  21.275  0.00  0.00    +0.000 A 
ATOM     15  C   UNL     1       4.840  15.037  19.956  0.00  0.00    +0.000 A 
ATOM     16  C   UNL     1       3.984  14.610  18.939  0.00  0.00    +0.000 A 
ATOM     17  C   UNL     1       2.884  13.802  19.283  0.00  0.00    +0.000 A 
ATOM     18  S   UNL     1       1.677  13.138  18.260  0.00  0.00    +0.000 S 
ENDBRANCH   5  10
BRANCH   4  19
ATOM     19  C   UNL     1       0.405   9.569  18.929  0.00  0.00    +0.000 A 
ATOM     20  C   UNL     1       1.148   9.378  17.755  0.00  0.00    +0.000 A 
ATOM     21  C   UNL     1       2.275   8.556  17.759  0.00  0.00    +0.000 A 
ATOM     22  C   UNL     1       2.660   7.914  18.934  0.00  0.00    +0.000 A 
ATOM     23  C   UNL     1       1.915   8.085  20.102  0.00  0.00    +0.000 A 
ATOM     24  C   UNL     1       0.791   8.914  20.102  0.00  0.00    +0.000 A 
ENDBRANCH   4  19
BRANCH   6  25
ATOM     25  C   UNL     1      -2.296  12.704  20.984  0.00  0.00    +0.000 A 
ATOM     26  C   UNL     1      -3.512  13.342  21.267  0.00  0.00    +0.000 A 
ATOM     27  C   UNL     1      -4.079  13.261  22.542  0.00  0.00    +0.000 A 
ATOM     28  C   UNL     1      -3.441  12.542  23.552  0.00  0.00    +0.000 A 
ATOM     29  C   UNL     1      -2.233  11.906  23.292  0.00  0.00    +0.000 A 
ATOM     30  C   UNL     1      -1.667  11.988  22.021  0.00  0.00    +0.000 A 
ENDBRANCH   6  25
TORSDOF 3
ENDMDL
MODEL 7
REMARK VINA RESULT:      -6.7      3.116      6.503
REMARK  Name = 
REMARK  3 active torsions:
REMARK  status: ('A' for Active; 'I' for Inactive)
REMARK    1  A    between atoms: C_4  and  C_5
REMARK    2  A    between atoms: C_11  and  C_12
REMARK    3  A    between atoms: C_21  and  C_22
REMARK                            x       y       z     vdW  Elec       q    Type
REMARK                         _______ _______ _______ _____ _____    ______ ____
ROOT
ATOM      1  O   UNL     1       0.643  15.876  23.146  0.00  0.00    +0.000 OA
ATOM      2  C   UNL     1       0.229  15.169  22.234  0.00  0.00    +0.000 C 
ATOM      3  N   UNL     1       0.299  13.810  22.275  0.00  0.00    +0.000 N 
ATOM      4  C   UNL     1      -0.242  12.959  21.333  0.00  0.00    +0.000 C 
ATOM      5  C   UNL     1      -0.716  13.468  20.174  0.00  0.00    +0.000 C 
ATOM      6  C   UNL     1      -0.437  14.937  19.888  0.00  0.00    +0.000 C 
ATOM      7  N   UNL     1      -0.356  15.692  21.124  0.00  0.00    +0.000 N 
ATOM      8  H   UNL     1       0.693  13.423  23.125  0.00  0.00    +0.000 HD
ATOM      9  H   UNL     1      -0.284  16.698  21.067  0.00  0.00    +0.000 HD
ENDROOT
BRANCH   5  10
ATOM     10  C   UNL     1      -1.520  12.674  19.285  0.00  0.00    +0.000 A 
ATOM     11  N   UNL     1      -1.184  12.169  18.114  0.00  0.00    +0.000 NA
ATOM     12  C   UNL     1      -2.301  11.644  17.462  0.00  0.00    +0.000 A 
ATOM     13  C   UNL     1      -2.326  11.048  16.181  0.00  0.00    +0.000 A 
ATOM     14  C   UNL     1      -3.543  10.610  15.633  0.00  0.00    +0.000 A 
ATOM     15  C   UNL     1      -4.731  10.761  16.340  0.00  0.00    +0.000 A 
ATOM     16  C   UNL     1      -4.731  11.332  17.614  0.00  0.00    +0.000 A 
ATOM     17  C   UNL     1      -3.505  11.763  18.155  0.00  0.00    +0.000 A 
ATOM     18  S   UNL     1      -3.202  12.496  19.678  0.00  0.00    +0.000 S 
ENDBRANCH   5  10
BRANCH   4  19
ATOM     19  C   UNL     1      -0.178  11.545  21.733  0.00  0.00    +0.000 A 
ATOM     20  C   UNL     1       0.815  10.731  21.169  0.00  0.00    +0.000 A 
ATOM     21  C   UNL     1       1.071   9.464  21.696  0.00  0.00    +0.000 A 
ATOM     22  C   UNL     1       0.330   9.002  22.781  0.00  0.00    +0.000 A 
ATOM     23  C   UNL     1      -0.672   9.801  23.335  0.00  0.00    +0.000 A 
ATOM     24  C   UNL     1      -0.925  11.072  22.816  0.00  0.00    +0.000 A 
ENDBRANCH   4  19
BRANCH   6  25
ATOM     25  C   UNL     1       0.821  15.176  19.055  0.00  0.00    +0.000 A 
ATOM     26  C   UNL     1       1.140  16.466  18.606  0.00  0.00    +0.000 A 
ATOM     27  C   UNL     1       2.320  16.700  17.894  0.00  0.00    +0.000 A 
ATOM     28  C   UNL     1       3.199  15.653  17.621  0.00  0.00    +0.000 A 
ATOM     29  C   UNL     1       2.898  14.367  18.055  0.00  0.00    +0.000 A 
ATOM     30  C   UNL     1       1.721  14.133  18.764  0.00  0.00    +0.000 A 
ENDBRANCH   6  25
TORSDOF 3
ENDMDL
MODEL 8
REMARK VINA RESULT:      -6.7      2.880      5.683
REMARK  Name = 
REMARK  3 active torsions:
REMARK  status: ('A' for Active; 'I' for Inactive)
REMARK    1  A    between atoms: C_4  and  C_5
REMARK    2  A    between atoms: C_11  and  C_12
REMARK    3  A    between atoms: C_21  and  C_22
REMARK                            x       y       z     vdW  Elec       q    Type
REMARK                         _______ _______ _______ _____ _____    ______ ____
ROOT
ATOM      1  O   UNL     1      -0.417   9.235  22.499  0.00  0.00    +0.000 OA
ATOM      2  C   UNL     1      -0.414  10.294  21.882  0.00  0.00    +0.000 C 
ATOM      3  N   UNL     1      -1.031  11.413  22.353  0.00  0.00    +0.000 N 
ATOM      4  C   UNL     1      -0.977  12.658  21.760  0.00  0.00    +0.000 C 
ATOM      5  C   UNL     1      -0.446  12.780  20.522  0.00  0.00    +0.000 C 
ATOM      6  C   UNL     1      -0.124  11.497  19.769  0.00  0.00    +0.000 C 
ATOM      7  N   UNL     1       0.227  10.436  20.693  0.00  0.00    +0.000 N 
ATOM      8  H   UNL     1      -1.468  11.316  23.261  0.00  0.00    +0.000 HD
ATOM      9  H   UNL     1       0.569   9.564  20.313  0.00  0.00    +0.000 HD
ENDROOT
BRANCH   5  10
ATOM     10  C   UNL     1      -0.124  14.069  19.973  0.00  0.00    +0.000 A 
ATOM     11  N   UNL     1      -0.948  14.978  19.490  0.00  0.00    +0.000 NA
ATOM     12  C   UNL     1      -0.241  16.002  18.856  0.00  0.00    +0.000 A 
ATOM     13  C   UNL     1      -0.792  17.126  18.201  0.00  0.00    +0.000 A 
ATOM     14  C   UNL     1       0.051  18.050  17.562  0.00  0.00    +0.000 A 
ATOM     15  C   UNL     1       1.430  17.867  17.563  0.00  0.00    +0.000 A 
ATOM     16  C   UNL     1       2.000  16.773  18.217  0.00  0.00    +0.000 A 
ATOM     17  C   UNL     1       1.146  15.856  18.858  0.00  0.00    +0.000 A 
ATOM     18  S   UNL     1       1.556  14.434  19.728  0.00  0.00    +0.000 S 
ENDBRANCH   5  10
BRANCH   4  19
ATOM     19  C   UNL     1      -1.577  13.715  22.587  0.00  0.00    +0.000 A 
ATOM     20  C   UNL     1      -2.975  13.795  22.666  0.00  0.00    +0.000 A 
ATOM     21  C   UNL     1      -3.581  14.612  23.622  0.00  0.00    +0.000 A 
ATOM     22  C   UNL     1      -2.794  15.358  24.496  0.00  0.00    +0.000 A 
ATOM     23  C   UNL     1      -1.402  15.296  24.411  0.00  0.00    +0.000 A 
ATOM     24  C   UNL     1      -0.793  14.474  23.460  0.00  0.00    +0.000 A 
ENDBRANCH   4  19
BRANCH   6  25
ATOM     25  C   UNL     1      -1.244  11.026  18.844  0.00  0.00    +0.000 A 
ATOM     26  C   UNL     1      -2.514  11.618  18.909  0.00  0.00    +0.000 A 
ATOM     27  C   UNL     1      -3.526  11.232  18.026  0.00  0.00    +0.000 A 
ATOM     28  C   UNL     1      -3.286  10.250  17.065  0.00  0.00    +0.000 A 
ATOM     29  C   UNL     1      -2.036   9.649  16.987  0.00  0.00    +0.000 A 
ATOM     30  C   UNL     1      -1.027  10.033  17.869  0.00  0.00    +0.000 A 
ENDBRANCH   6  25
TORSDOF 3
ENDMDL
MODEL 9
REMARK VINA RESULT:      -6.7      2.065      5.524
REMARK  Name = 
REMARK  3 active torsions:
REMARK  status: ('A' for Active; 'I' for Inactive)
REMARK    1  A    between atoms: C_4  and  C_5
REMARK    2  A    between atoms: C_11  and  C_12
REMARK    3  A    between atoms: C_21  and  C_22
REMARK                            x       y       z     vdW  Elec       q    Type
REMARK                         _______ _______ _______ _____ _____    ______ ____
ROOT
ATOM      1  O   UNL     1      -3.397  14.083  20.781  0.00  0.00    +0.000 OA
ATOM      2  C   UNL     1      -2.593  13.243  20.397  0.00  0.00    +0.000 C 
ATOM      3  N   UNL     1      -1.325  13.565  20.021  0.00  0.00    +0.000 N 
ATOM      4  C   UNL     1      -0.343  12.657  19.679  0.00  0.00    +0.000 C 
ATOM      5  C   UNL     1      -0.674  11.357  19.506  0.00  0.00    +0.000 C 
ATOM      6  C   UNL     1      -2.155  11.006  19.498  0.00  0.00    +0.000 C 
ATOM      7  N   UNL     1      -2.902  11.920  20.342  0.00  0.00    +0.000 N 
ATOM      8  H   UNL     1      -1.085  14.545  20.107  0.00  0.00    +0.000 HD
ATOM      9  H   UNL     1      -3.880  11.727  20.509  0.00  0.00    +0.000 HD
ENDROOT
BRANCH   5  10
ATOM     10  C   UNL     1       0.335  10.338  19.415  0.00  0.00    +0.000 A 
ATOM     11  N   UNL     1       1.036   9.977  18.358  0.00  0.00    +0.000 NA
ATOM     12  C   UNL     1       1.759   8.811  18.615  0.00  0.00    +0.000 A 
ATOM     13  C   UNL     1       2.596   8.121  17.710  0.00  0.00    +0.000 A 
ATOM     14  C   UNL     1       3.220   6.925  18.101  0.00  0.00    +0.000 A 
ATOM     15  C   UNL     1       3.019   6.407  19.376  0.00  0.00    +0.000 A 
ATOM     16  C   UNL     1       2.209   7.079  20.295  0.00  0.00    +0.000 A 
ATOM     17  C   UNL     1       1.592   8.278  19.893  0.00  0.00    +0.000 A 
ATOM     18  S   UNL     1       0.554   9.306  20.794  0.00  0.00    +0.000 S 
ENDBRANCH   5  10
BRANCH   4  19
ATOM     19  C   UNL     1       0.977  13.278  19.501  0.00  0.00    +0.000 A 
ATOM     20  C   UNL     1       1.758  13.537  20.636  0.00  0.00    +0.000 A 
ATOM     21  C   UNL     1       3.101  13.890  20.503  0.00  0.00    +0.000 A 
ATOM     22  C   UNL     1       3.668  13.994  19.234  0.00  0.00    +0.000 A 
ATOM     23  C   UNL     1       2.891  13.755  18.099  0.00  0.00    +0.000 A 
ATOM     24  C   UNL     1       1.549  13.394  18.230  0.00  0.00    +0.000 A 
ENDBRANCH   4  19
BRANCH   6  25
ATOM     25  C   UNL     1      -2.774  10.971  18.102  0.00  0.00    +0.000 A 
ATOM     26  C   UNL     1      -4.016  11.577  17.861  0.00  0.00    +0.000 A 
ATOM     27  C   UNL     1      -4.560  11.600  16.574  0.00  0.00    +0.000 A 
ATOM     28  C   UNL     1      -3.872  11.019  15.508  0.00  0.00    +0.000 A 
ATOM     29  C   UNL     1      -2.642  10.410  15.728  0.00  0.00    +0.000 A 
ATOM     30  C   UNL     1      -2.101  10.387  17.012  0.00  0.00    +0.000 A 
ENDBRANCH   6  25
TORSDOF 3
ENDMDL
