MODEL 1
REMARK VINA RESULT:      -8.4      0.000      0.000
REMARK  Name = 
REMARK  2 active torsions:
REMARK  status: ('A' for Active; 'I' for Inactive)
REMARK    1  A    between atoms: C_1  and  C_2
REMARK    2  A    between atoms: C_4  and  C_5
REMARK                            x       y       z     vdW  Elec       q    Type
REMARK                         _______ _______ _______ _____ _____    ______ ____
ROOT
ATOM      1  C   UNL     1       2.403   7.494  18.706  0.00  0.00    +0.000 C 
ATOM      2  O   UNL     1       2.211   7.452  19.917  0.00  0.00    +0.000 OA
ATOM      3  N   UNL     1       1.861   8.446  17.858  0.00  0.00    +0.000 N 
ATOM      4  C   UNL     1       0.998   9.397  18.350  0.00  0.00    +0.000 A 
ATOM      5  N   UNL     1      -0.069   9.830  17.719  0.00  0.00    +0.000 NA
ATOM      6  C   UNL     1      -0.695  10.673  18.609  0.00  0.00    +0.000 A 
ATOM      7  C   UNL     1      -1.951  11.294  18.530  0.00  0.00    +0.000 A 
ATOM      8  C   UNL     1      -2.345  12.155  19.564  0.00  0.00    +0.000 A 
ATOM      9  C   UNL     1      -1.493  12.415  20.640  0.00  0.00    +0.000 A 
ATOM     10  C   UNL     1      -0.248  11.782  20.752  0.00  0.00    +0.000 A 
ATOM     11  C   UNL     1       0.096  10.890  19.732  0.00  0.00    +0.000 A 
ATOM     12  N   UNL     1       1.152  10.031  19.559  0.00  0.00    +0.000 N 
ATOM     13  H   UNL     1       1.748   8.235  16.875  0.00  0.00    +0.000 HD
ATOM     14  H   UNL     1       1.909   9.863  20.207  0.00  0.00    +0.000 HD
ENDROOT
BRANCH   1  18
ATOM     15  C   UNL     1       6.842   6.319  16.784  0.00  0.00    +0.000 C 
ATOM     16  C   UNL     1       5.453   5.950  17.191  0.00  0.00    +0.000 A 
ATOM     17  C   UNL     1       4.556   6.901  17.658  0.00  0.00    +0.000 A 
ATOM     18  C   UNL     1       3.285   6.475  18.062  0.00  0.00    +0.000 A 
ATOM     19  C   UNL     1       2.925   5.103  17.977  0.00  0.00    +0.000 A 
ATOM     20  C   UNL     1       1.663   4.547  18.319  0.00  0.00    +0.000 A 
ATOM     21  C   UNL     1       1.421   3.173  18.226  0.00  0.00    +0.000 A 
ATOM     22  C   UNL     1       2.433   2.325  17.795  0.00  0.00    +0.000 A 
ATOM     23  C   UNL     1       3.669   2.863  17.439  0.00  0.00    +0.000 A 
ATOM     24  C   UNL     1       3.928   4.225  17.504  0.00  0.00    +0.000 A 
ATOM     25  N   UNL     1       5.145   4.644  17.124  0.00  0.00    +0.000 NA
ENDBRANCH   1  18
TORSDOF 1
ENDMDL
MODEL 2
REMARK VINA RESULT:      -8.4      1.857      3.237
REMARK  Name = 
REMARK  2 active torsions:
REMARK  status: ('A' for Active; 'I' for Inactive)
REMARK    1  A    between atoms: C_1  and  C_2
REMARK    2  A    between atoms: C_4  and  C_5
REMARK                            x       y       z     vdW  Elec       q    Type
REMARK                         _______ _______ _______ _____ _____    ______ ____
ROOT
ATOM      1  C   UNL     1       2.288   5.850  19.832  0.00  0.00    +0.000 C 
ATOM      2  O   UNL     1       1.543   5.386  20.690  0.00  0.00    +0.000 OA
ATOM      3  N   UNL     1       2.441   7.202  19.573  0.00  0.00    +0.000 N 
ATOM      4  C   UNL     1       1.689   8.126  20.261  0.00  0.00    +0.000 A 
ATOM      5  N   UNL     1       1.176   9.211  19.729  0.00  0.00    +0.000 NA
ATOM      6  C   UNL     1       0.414   9.774  20.728  0.00  0.00    +0.000 A 
ATOM      7  C   UNL     1      -0.479  10.857  20.677  0.00  0.00    +0.000 A 
ATOM      8  C   UNL     1      -1.106  11.269  21.861  0.00  0.00    +0.000 A 
ATOM      9  C   UNL     1      -0.829  10.637  23.075  0.00  0.00    +0.000 A 
ATOM     10  C   UNL     1       0.036   9.536  23.140  0.00  0.00    +0.000 A 
ATOM     11  C   UNL     1       0.607   9.114  21.936  0.00  0.00    +0.000 A 
ATOM     12  N   UNL     1       1.395   8.042  21.600  0.00  0.00    +0.000 N 
ATOM     13  H   UNL     1       2.761   7.505  18.662  0.00  0.00    +0.000 HD
ATOM     14  H   UNL     1       1.696   7.296  22.212  0.00  0.00    +0.000 HD
ENDROOT
BRANCH   1  18
ATOM     15  C   UNL     1       3.540   1.189  18.611  0.00  0.00    +0.000 C 
ATOM     16  C   UNL     1       3.641   2.666  18.412  0.00  0.00    +0.000 A 
ATOM     17  C   UNL     1       3.007   3.559  19.265  0.00  0.00    +0.000 A 
ATOM     18  C   UNL     1       3.111   4.929  18.992  0.00  0.00    +0.000 A 
ATOM     19  C   UNL     1       3.865   5.385  17.878  0.00  0.00    +0.000 A 
ATOM     20  C   UNL     1       4.079   6.741  17.511  0.00  0.00    +0.000 A 
ATOM     21  C   UNL     1       4.816   7.082  16.374  0.00  0.00    +0.000 A 
ATOM     22  C   UNL     1       5.350   6.080  15.575  0.00  0.00    +0.000 A 
ATOM     23  C   UNL     1       5.161   4.747  15.936  0.00  0.00    +0.000 A 
ATOM     24  C   UNL     1       4.451   4.382  17.071  0.00  0.00    +0.000 A 
ATOM     25  N   UNL     1       4.340   3.071  17.339  0.00  0.00    +0.000 NA
ENDBRANCH   1  18
TORSDOF 1
ENDMDL
MODEL 3
REMARK VINA RESULT:      -8.2      1.089      1.647
REMARK  Name = 
REMARK  2 active torsions:
REMARK  status: ('A' for Active; 'I' for Inactive)
REMARK    1  A    between atoms: C_1  and  C_2
REMARK    2  A    between atoms: C_4  and  C_5
REMARK                            x       y       z     vdW  Elec       q    Type
REMARK                         _______ _______ _______ _____ _____    ______ ____
ROOT
ATOM      1  C   UNL     1       2.628   7.907  18.093  0.00  0.00    +0.000 C 
ATOM      2  O   UNL     1       2.426   8.801  17.278  0.00  0.00    +0.000 OA
ATOM      3  N   UNL     1       2.034   7.835  19.342  0.00  0.00    +0.000 N 
ATOM      4  C   UNL     1       1.194   8.838  19.766  0.00  0.00    +0.000 A 
ATOM      5  N   UNL     1       1.150   9.302  20.993  0.00  0.00    +0.000 NA
ATOM      6  C   UNL     1       0.271  10.360  20.946  0.00  0.00    +0.000 A 
ATOM      7  C   UNL     1      -0.041  11.317  21.925  0.00  0.00    +0.000 A 
ATOM      8  C   UNL     1      -1.019  12.280  21.640  0.00  0.00    +0.000 A 
ATOM      9  C   UNL     1      -1.693  12.274  20.417  0.00  0.00    +0.000 A 
ATOM     10  C   UNL     1      -1.375  11.346  19.415  0.00  0.00    +0.000 A 
ATOM     11  C   UNL     1      -0.360  10.430  19.708  0.00  0.00    +0.000 A 
ATOM     12  N   UNL     1       0.278   9.471  18.962  0.00  0.00    +0.000 N 
ATOM     13  H   UNL     1       2.487   7.316  20.083  0.00  0.00    +0.000 HD
ATOM     14  H   UNL     1       0.130   9.268  17.983  0.00  0.00    +0.000 HD
ENDROOT
BRANCH   1  18
ATOM     15  C   UNL     1       7.287   6.397  17.199  0.00  0.00    +0.000 C 
ATOM     16  C   UNL     1       5.831   6.114  17.377  0.00  0.00    +0.000 A 
ATOM     17  C   UNL     1       4.908   7.137  17.549  0.00  0.00    +0.000 A 
ATOM     18  C   UNL     1       3.565   6.794  17.752  0.00  0.00    +0.000 A 
ATOM     19  C   UNL     1       3.164   5.432  17.763  0.00  0.00    +0.000 A 
ATOM     20  C   UNL     1       1.836   4.952  17.924  0.00  0.00    +0.000 A 
ATOM     21  C   UNL     1       1.552   3.583  17.950  0.00  0.00    +0.000 A 
ATOM     22  C   UNL     1       2.586   2.665  17.822  0.00  0.00    +0.000 A 
ATOM     23  C   UNL     1       3.890   3.125  17.645  0.00  0.00    +0.000 A 
ATOM     24  C   UNL     1       4.195   4.478  17.596  0.00  0.00    +0.000 A 
ATOM     25  N   UNL     1       5.480   4.818  17.407  0.00  0.00    +0.000 NA
ENDBRANCH   1  18
TORSDOF 1
ENDMDL
MODEL 4
REMARK VINA RESULT:      -8.1      1.667      7.785
REMARK  Name = 
REMARK  2 active torsions:
REMARK  status: ('A' for Active; 'I' for Inactive)
REMARK    1  A    between atoms: C_1  and  C_2
REMARK    2  A    between atoms: C_4  and  C_5
REMARK                            x       y       z     vdW  Elec       q    Type
REMARK                         _______ _______ _______ _____ _____    ______ ____
ROOT
ATOM      1  C   UNL     1       1.341   9.291  18.285  0.00  0.00    +0.000 C 
ATOM      2  O   UNL     1       1.910   9.685  17.271  0.00  0.00    +0.000 OA
ATOM      3  N   UNL     1       1.616   8.093  18.923  0.00  0.00    +0.000 N 
ATOM      4  C   UNL     1       2.543   7.226  18.394  0.00  0.00    +0.000 A 
ATOM      5  N   UNL     1       2.418   5.918  18.386  0.00  0.00    +0.000 NA
ATOM      6  C   UNL     1       3.498   5.459  17.666  0.00  0.00    +0.000 A 
ATOM      7  C   UNL     1       3.790   4.165  17.209  0.00  0.00    +0.000 A 
ATOM      8  C   UNL     1       4.995   3.947  16.526  0.00  0.00    +0.000 A 
ATOM      9  C   UNL     1       5.902   4.989  16.326  0.00  0.00    +0.000 A 
ATOM     10  C   UNL     1       5.615   6.295  16.748  0.00  0.00    +0.000 A 
ATOM     11  C   UNL     1       4.384   6.493  17.381  0.00  0.00    +0.000 A 
ATOM     12  N   UNL     1       3.730   7.615  17.823  0.00  0.00    +0.000 N 
ATOM     13  H   UNL     1       0.908   7.661  19.503  0.00  0.00    +0.000 HD
ATOM     14  H   UNL     1       4.040   8.573  17.731  0.00  0.00    +0.000 HD
ENDROOT
BRANCH   1  18
ATOM     15  C   UNL     1       0.042  12.571  21.797  0.00  0.00    +0.000 C 
ATOM     16  C   UNL     1      -0.279  11.747  20.593  0.00  0.00    +0.000 A 
ATOM     17  C   UNL     1       0.633  10.842  20.068  0.00  0.00    +0.000 A 
ATOM     18  C   UNL     1       0.280  10.135  18.912  0.00  0.00    +0.000 A 
ATOM     19  C   UNL     1      -0.990  10.334  18.307  0.00  0.00    +0.000 A 
ATOM     20  C   UNL     1      -1.484   9.660  17.158  0.00  0.00    +0.000 A 
ATOM     21  C   UNL     1      -2.742   9.952  16.624  0.00  0.00    +0.000 A 
ATOM     22  C   UNL     1      -3.531  10.927  17.220  0.00  0.00    +0.000 A 
ATOM     23  C   UNL     1      -3.063  11.582  18.358  0.00  0.00    +0.000 A 
ATOM     24  C   UNL     1      -1.827  11.295  18.920  0.00  0.00    +0.000 A 
ATOM     25  N   UNL     1      -1.475  11.970  20.026  0.00  0.00    +0.000 NA
ENDBRANCH   1  18
TORSDOF 1
ENDMDL
MODEL 5
REMARK VINA RESULT:      -8.1      1.077      1.077
REMARK  Name = 
REMARK  2 active torsions:
REMARK  status: ('A' for Active; 'I' for Inactive)
REMARK    1  A    between atoms: C_1  and  C_2
REMARK    2  A    between atoms: C_4  and  C_5
REMARK                            x       y       z     vdW  Elec       q    Type
REMARK                         _______ _______ _______ _____ _____    ______ ____
ROOT
ATOM      1  C   UNL     1       2.358   6.931  19.482  0.00  0.00    +0.000 C 
ATOM      2  O   UNL     1       1.745   6.821  20.539  0.00  0.00    +0.000 OA
ATOM      3  N   UNL     1       2.240   8.006  18.616  0.00  0.00    +0.000 N 
ATOM      4  C   UNL     1       1.350   9.018  18.888  0.00  0.00    +0.000 A 
ATOM      5  N   UNL     1       0.620   9.630  17.983  0.00  0.00    +0.000 NA
ATOM      6  C   UNL     1      -0.201  10.474  18.695  0.00  0.00    +0.000 A 
ATOM      7  C   UNL     1      -1.285  11.253  18.261  0.00  0.00    +0.000 A 
ATOM      8  C   UNL     1      -1.939  12.075  19.189  0.00  0.00    +0.000 A 
ATOM      9  C   UNL     1      -1.506  12.142  20.515  0.00  0.00    +0.000 A 
ATOM     10  C   UNL     1      -0.444  11.350  20.974  0.00  0.00    +0.000 A 
ATOM     11  C   UNL     1       0.156  10.502  20.039  0.00  0.00    +0.000 A 
ATOM     12  N   UNL     1       1.122   9.533  20.141  0.00  0.00    +0.000 N 
ATOM     13  H   UNL     1       2.465   7.887  17.637  0.00  0.00    +0.000 HD
ATOM     14  H   UNL     1       1.581   9.221  20.985  0.00  0.00    +0.000 HD
ENDROOT
BRANCH   1  18
ATOM     15  C   UNL     1       7.068   5.437  18.887  0.00  0.00    +0.000 C 
ATOM     16  C   UNL     1       5.598   5.177  18.844  0.00  0.00    +0.000 A 
ATOM     17  C   UNL     1       4.675   6.187  19.081  0.00  0.00    +0.000 A 
ATOM     18  C   UNL     1       3.313   5.861  19.067  0.00  0.00    +0.000 A 
ATOM     19  C   UNL     1       2.895   4.530  18.798  0.00  0.00    +0.000 A 
ATOM     20  C   UNL     1       1.551   4.076  18.719  0.00  0.00    +0.000 A 
ATOM     21  C   UNL     1       1.247   2.733  18.477  0.00  0.00    +0.000 A 
ATOM     22  C   UNL     1       2.275   1.815  18.314  0.00  0.00    +0.000 A 
ATOM     23  C   UNL     1       3.597   2.254  18.371  0.00  0.00    +0.000 A 
ATOM     24  C   UNL     1       3.925   3.584  18.590  0.00  0.00    +0.000 A 
ATOM     25  N   UNL     1       5.228   3.907  18.611  0.00  0.00    +0.000 NA
ENDBRANCH   1  18
TORSDOF 1
ENDMDL
MODEL 6
REMARK VINA RESULT:      -8.0      1.535      1.788
REMARK  Name = 
REMARK  2 active torsions:
REMARK  status: ('A' for Active; 'I' for Inactive)
REMARK    1  A    between atoms: C_1  and  C_2
REMARK    2  A    between atoms: C_4  and  C_5
REMARK                            x       y       z     vdW  Elec       q    Type
REMARK                         _______ _______ _______ _____ _____    ______ ____
ROOT
ATOM      1  C   UNL     1       2.136   6.548  19.642  0.00  0.00    +0.000 C 
ATOM      2  O   UNL     1       1.487   6.011  20.534  0.00  0.00    +0.000 OA
ATOM      3  N   UNL     1       2.156   7.911  19.398  0.00  0.00    +0.000 N 
ATOM      4  C   UNL     1       1.372   8.758  20.146  0.00  0.00    +0.000 A 
ATOM      5  N   UNL     1       0.736   9.801  19.664  0.00  0.00    +0.000 NA
ATOM      6  C   UNL     1      -0.010  10.284  20.715  0.00  0.00    +0.000 A 
ATOM      7  C   UNL     1      -0.993  11.285  20.737  0.00  0.00    +0.000 A 
ATOM      8  C   UNL     1      -1.581  11.628  21.962  0.00  0.00    +0.000 A 
ATOM      9  C   UNL     1      -1.178  11.007  23.147  0.00  0.00    +0.000 A 
ATOM     10  C   UNL     1      -0.219   9.984  23.142  0.00  0.00    +0.000 A 
ATOM     11  C   UNL     1       0.312   9.628  21.898  0.00  0.00    +0.000 A 
ATOM     12  N   UNL     1       1.167   8.632  21.498  0.00  0.00    +0.000 N 
ATOM     13  H   UNL     1       2.394   8.251  18.475  0.00  0.00    +0.000 HD
ATOM     14  H   UNL     1       1.567   7.908  22.078  0.00  0.00    +0.000 HD
ENDROOT
BRANCH   1  18
ATOM     15  C   UNL     1       6.065   6.216  16.603  0.00  0.00    +0.000 C 
ATOM     16  C   UNL     1       4.912   5.597  17.324  0.00  0.00    +0.000 A 
ATOM     17  C   UNL     1       4.015   6.365  18.055  0.00  0.00    +0.000 A 
ATOM     18  C   UNL     1       2.983   5.712  18.739  0.00  0.00    +0.000 A 
ATOM     19  C   UNL     1       2.853   4.299  18.667  0.00  0.00    +0.000 A 
ATOM     20  C   UNL     1       1.836   3.520  19.282  0.00  0.00    +0.000 A 
ATOM     21  C   UNL     1       1.817   2.126  19.172  0.00  0.00    +0.000 A 
ATOM     22  C   UNL     1       2.814   1.480  18.453  0.00  0.00    +0.000 A 
ATOM     23  C   UNL     1       3.805   2.236  17.831  0.00  0.00    +0.000 A 
ATOM     24  C   UNL     1       3.836   3.622  17.908  0.00  0.00    +0.000 A 
ATOM     25  N   UNL     1       4.824   4.259  17.260  0.00  0.00    +0.000 NA
ENDBRANCH   1  18
TORSDOF 1
ENDMDL
MODEL 7
REMARK VINA RESULT:      -7.8      1.746      2.164
REMARK  Name = 
REMARK  2 active torsions:
REMARK  status: ('A' for Active; 'I' for Inactive)
REMARK    1  A    between atoms: C_1  and  C_2
REMARK    2  A    between atoms: C_4  and  C_5
REMARK                            x       y       z     vdW  Elec       q    Type
REMARK                         _______ _______ _______ _____ _____    ______ ____
ROOT
ATOM      1  C   UNL     1       2.662   7.321  18.762  0.00  0.00    +0.000 C 
ATOM      2  O   UNL     1       2.706   7.971  17.722  0.00  0.00    +0.000 OA
ATOM      3  N   UNL     1       1.949   7.692  19.890  0.00  0.00    +0.000 N 
ATOM      4  C   UNL     1       1.271   8.889  19.915  0.00  0.00    +0.000 A 
ATOM      5  N   UNL     1       1.196   9.679  20.961  0.00  0.00    +0.000 NA
ATOM      6  C   UNL     1       0.535  10.802  20.515  0.00  0.00    +0.000 A 
ATOM      7  C   UNL     1       0.313  12.030  21.158  0.00  0.00    +0.000 A 
ATOM      8  C   UNL     1      -0.440  13.010  20.497  0.00  0.00    +0.000 A 
ATOM      9  C   UNL     1      -0.984  12.764  19.235  0.00  0.00    +0.000 A 
ATOM     10  C   UNL     1      -0.748  11.556  18.564  0.00  0.00    +0.000 A 
ATOM     11  C   UNL     1       0.049  10.616  19.226  0.00  0.00    +0.000 A 
ATOM     12  N   UNL     1       0.567   9.402  18.852  0.00  0.00    +0.000 N 
ATOM     13  H   UNL     1       2.226   7.339  20.796  0.00  0.00    +0.000 HD
ATOM     14  H   UNL     1       0.479   8.957  17.949  0.00  0.00    +0.000 HD
ENDROOT
BRANCH   1  18
ATOM     15  C   UNL     1       6.904   4.801  18.099  0.00  0.00    +0.000 C 
ATOM     16  C   UNL     1       5.486   4.877  18.564  0.00  0.00    +0.000 A 
ATOM     17  C   UNL     1       4.715   6.013  18.358  0.00  0.00    +0.000 A 
ATOM     18  C   UNL     1       3.407   6.029  18.858  0.00  0.00    +0.000 A 
ATOM     19  C   UNL     1       2.885   4.899  19.543  0.00  0.00    +0.000 A 
ATOM     20  C   UNL     1       1.570   4.773  20.066  0.00  0.00    +0.000 A 
ATOM     21  C   UNL     1       1.164   3.624  20.751  0.00  0.00    +0.000 A 
ATOM     22  C   UNL     1       2.061   2.580  20.934  0.00  0.00    +0.000 A 
ATOM     23  C   UNL     1       3.348   2.687  20.408  0.00  0.00    +0.000 A 
ATOM     24  C   UNL     1       3.769   3.808  19.707  0.00  0.00    +0.000 A 
ATOM     25  N   UNL     1       5.023   3.806  19.228  0.00  0.00    +0.000 NA
ENDBRANCH   1  18
TORSDOF 1
ENDMDL
MODEL 8
REMARK VINA RESULT:      -7.8      1.028      1.071
REMARK  Name = 
REMARK  2 active torsions:
REMARK  status: ('A' for Active; 'I' for Inactive)
REMARK    1  A    between atoms: C_1  and  C_2
REMARK    2  A    between atoms: C_4  and  C_5
REMARK                            x       y       z     vdW  Elec       q    Type
REMARK                         _______ _______ _______ _____ _____    ______ ____
ROOT
ATOM      1  C   UNL     1       2.020   7.767  19.208  0.00  0.00    +0.000 C 
ATOM      2  O   UNL     1       1.953   7.826  20.432  0.00  0.00    +0.000 OA
ATOM      3  N   UNL     1       1.488   8.713  18.347  0.00  0.00    +0.000 N 
ATOM      4  C   UNL     1       0.781   9.781  18.847  0.00  0.00    +0.000 A 
ATOM      5  N   UNL     1      -0.298  10.283  18.292  0.00  0.00    +0.000 NA
ATOM      6  C   UNL     1      -0.740  11.245  19.172  0.00  0.00    +0.000 A 
ATOM      7  C   UNL     1      -1.930  11.990  19.168  0.00  0.00    +0.000 A 
ATOM      8  C   UNL     1      -2.125  12.954  20.166  0.00  0.00    +0.000 A 
ATOM      9  C   UNL     1      -1.144  13.193  21.131  0.00  0.00    +0.000 A 
ATOM     10  C   UNL     1       0.037  12.439  21.169  0.00  0.00    +0.000 A 
ATOM     11  C   UNL     1       0.182  11.450  20.192  0.00  0.00    +0.000 A 
ATOM     12  N   UNL     1       1.124  10.474  19.982  0.00  0.00    +0.000 N 
ATOM     13  H   UNL     1       1.253   8.450  17.399  0.00  0.00    +0.000 HD
ATOM     14  H   UNL     1       1.924  10.269  20.564  0.00  0.00    +0.000 HD
ENDROOT
BRANCH   1  18
ATOM     15  C   UNL     1       5.624   6.153  16.178  0.00  0.00    +0.000 C 
ATOM     16  C   UNL     1       4.503   5.896  17.131  0.00  0.00    +0.000 A 
ATOM     17  C   UNL     1       3.731   6.931  17.640  0.00  0.00    +0.000 A 
ATOM     18  C   UNL     1       2.723   6.619  18.561  0.00  0.00    +0.000 A 
ATOM     19  C   UNL     1       2.493   5.271  18.947  0.00  0.00    +0.000 A 
ATOM     20  C   UNL     1       1.486   4.818  19.841  0.00  0.00    +0.000 A 
ATOM     21  C   UNL     1       1.364   3.466  20.177  0.00  0.00    +0.000 A 
ATOM     22  C   UNL     1       2.245   2.541  19.635  0.00  0.00    +0.000 A 
ATOM     23  C   UNL     1       3.224   2.973  18.742  0.00  0.00    +0.000 A 
ATOM     24  C   UNL     1       3.355   4.305  18.376  0.00  0.00    +0.000 A 
ATOM     25  N   UNL     1       4.320   4.617  17.497  0.00  0.00    +0.000 NA
ENDBRANCH   1  18
TORSDOF 1
ENDMDL
MODEL 9
REMARK VINA RESULT:      -7.7      3.070      7.705
REMARK  Name = 
REMARK  2 active torsions:
REMARK  status: ('A' for Active; 'I' for Inactive)
REMARK    1  A    between atoms: C_1  and  C_2
REMARK    2  A    between atoms: C_4  and  C_5
REMARK                            x       y       z     vdW  Elec       q    Type
REMARK                         _______ _______ _______ _____ _____    ______ ____
ROOT
ATOM      1  C   UNL     1       4.234   6.025  17.537  0.00  0.00    +0.000 C 
ATOM      2  O   UNL     1       4.525   7.078  16.981  0.00  0.00    +0.000 OA
ATOM      3  N   UNL     1       4.612   4.770  17.088  0.00  0.00    +0.000 N 
ATOM      4  C   UNL     1       5.317   4.639  15.915  0.00  0.00    +0.000 A 
ATOM      5  N   UNL     1       5.130   3.680  15.038  0.00  0.00    +0.000 NA
ATOM      6  C   UNL     1       5.950   3.998  13.979  0.00  0.00    +0.000 A 
ATOM      7  C   UNL     1       6.044   3.413  12.706  0.00  0.00    +0.000 A 
ATOM      8  C   UNL     1       7.006   3.899  11.810  0.00  0.00    +0.000 A 
ATOM      9  C   UNL     1       7.876   4.926  12.183  0.00  0.00    +0.000 A 
ATOM     10  C   UNL     1       7.778   5.542  13.438  0.00  0.00    +0.000 A 
ATOM     11  C   UNL     1       6.776   5.072  14.291  0.00  0.00    +0.000 A 
ATOM     12  N   UNL     1       6.322   5.487  15.518  0.00  0.00    +0.000 N 
ATOM     13  H   UNL     1       4.067   3.959  17.352  0.00  0.00    +0.000 HD
ATOM     14  H   UNL     1       6.643   6.289  16.043  0.00  0.00    +0.000 HD
ENDROOT
BRANCH   1  18
ATOM     15  C   UNL     1       1.104   8.486  20.525  0.00  0.00    +0.000 C 
ATOM     16  C   UNL     1       1.884   7.262  20.169  0.00  0.00    +0.000 A 
ATOM     17  C   UNL     1       2.760   7.247  19.093  0.00  0.00    +0.000 A 
ATOM     18  C   UNL     1       3.425   6.051  18.793  0.00  0.00    +0.000 A 
ATOM     19  C   UNL     1       3.215   4.892  19.587  0.00  0.00    +0.000 A 
ATOM     20  C   UNL     1       3.849   3.633  19.413  0.00  0.00    +0.000 A 
ATOM     21  C   UNL     1       3.548   2.544  20.236  0.00  0.00    +0.000 A 
ATOM     22  C   UNL     1       2.605   2.685  21.245  0.00  0.00    +0.000 A 
ATOM     23  C   UNL     1       1.990   3.922  21.436  0.00  0.00    +0.000 A 
ATOM     24  C   UNL     1       2.286   5.023  20.646  0.00  0.00    +0.000 A 
ATOM     25  N   UNL     1       1.650   6.174  20.920  0.00  0.00    +0.000 NA
ENDBRANCH   1  18
TORSDOF 1
ENDMDL
