MODEL 1
REMARK VINA RESULT:      -7.4      0.000      0.000
REMARK  Name = 
REMARK  10 active torsions:
REMARK  status: ('A' for Active; 'I' for Inactive)
REMARK    1  A    between atoms: C_1  and  N_2
REMARK    2  A    between atoms: N_2  and  C_3
REMARK    3  A    between atoms: C_3  and  N_4
REMARK    4  A    between atoms: C_3  and  C_5
REMARK    5  A    between atoms: C_9  and  N_10
REMARK    6  A    between atoms: C_15  and  C_16
REMARK    7  A    between atoms: C_16  and  C_17
REMARK    8  A    between atoms: C_17  and  N_18
REMARK    9  A    between atoms: C_20  and  C_21
REMARK   10  A    between atoms: C_24  and  C_25
REMARK                            x       y       z     vdW  Elec       q    Type
REMARK                         _______ _______ _______ _____ _____    ______ ____
ROOT
ATOM      1  N   UNL     1      -0.365  11.624  18.633  0.00  0.00    +0.000 N 
ATOM      2  C   UNL     1       0.383  10.843  19.650  0.00  0.00    +0.000 C 
ATOM      3  C   UNL     1      -0.209  11.351  20.929  0.00  0.00    +0.000 A 
ATOM      4  C   UNL     1      -0.662  12.651  20.694  0.00  0.00    +0.000 A 
ATOM      5  C   UNL     1      -1.401  13.375  21.613  0.00  0.00    +0.000 A 
ATOM      6  C   UNL     1      -1.715  12.753  22.829  0.00  0.00    +0.000 A 
ATOM      7  C   UNL     1      -1.287  11.421  23.048  0.00  0.00    +0.000 A 
ATOM      8  C   UNL     1      -0.522  10.696  22.110  0.00  0.00    +0.000 A 
ATOM      9  C   UNL     1      -0.622  12.884  19.231  0.00  0.00    +0.000 C 
ATOM     10  O   UNL     1      -0.952  13.924  18.695  0.00  0.00    +0.000 OA
ENDROOT
BRANCH   1  15
ATOM     11  C   UNL     1      -3.830  11.303  17.491  0.00  0.00    +0.000 A 
ATOM     12  C   UNL     1      -3.602  10.490  16.371  0.00  0.00    +0.000 A 
ATOM     13  C   UNL     1      -2.427   9.745  16.263  0.00  0.00    +0.000 A 
ATOM     14  C   UNL     1      -1.419   9.894  17.213  0.00  0.00    +0.000 A 
ATOM     15  C   UNL     1      -1.539  10.883  18.198  0.00  0.00    +0.000 A 
ATOM     16  C   UNL     1      -2.787  11.468  18.420  0.00  0.00    +0.000 A 
BRANCH  11  17
ATOM     17  C   UNL     1      -5.117  12.101  17.617  0.00  0.00    +0.000 C 
BRANCH  17  19
ATOM     18  C   UNL     1      -6.590  10.619  18.897  0.00  0.00    +0.000 C 
ATOM     19  N   UNL     1      -6.265  11.213  17.612  0.00  0.00    +0.000 NA
ATOM     20  H   UNL     1      -7.064  11.777  17.316  0.00  0.00    +0.000 HD
ENDBRANCH  17  19
BRANCH  17  21
ATOM     21  N   UNL     1      -5.122  12.799  18.879  0.00  0.00    +0.000 NA
ATOM     22  H   UNL     1      -5.555  12.170  19.551  0.00  0.00    +0.000 HD
ATOM     23  H   UNL     1      -5.751  13.589  18.807  0.00  0.00    +0.000 HD
ENDBRANCH  17  21
ENDBRANCH  11  17
ENDBRANCH   1  15
BRANCH   8  24
ATOM     24  C   UNL     1      -0.206   9.249  22.395  0.00  0.00    +0.000 C 
ATOM     25  F   UNL     1       1.102   8.915  22.242  0.00  0.00    +0.000 F 
ATOM     26  F   UNL     1      -0.526   8.908  23.674  0.00  0.00    +0.000 F 
ATOM     27  F   UNL     1      -0.913   8.401  21.603  0.00  0.00    +0.000 F 
ENDBRANCH   8  24
BRANCH   6  28
ATOM     28  C   UNL     1      -2.636  13.469  23.798  0.00  0.00    +0.000 C 
BRANCH  28  29
ATOM     29  C   UNL     1      -3.805  12.600  24.310  0.00  0.00    +0.000 C 
BRANCH  29  30
ATOM     30  N   UNL     1      -4.915  12.597  23.360  0.00  0.00    +0.000 NA
ATOM     31  C   UNL     1      -5.135  13.973  22.839  0.00  0.00    +0.000 C 
ATOM     32  C   UNL     1      -6.654  13.719  22.982  0.00  0.00    +0.000 C 
ATOM     33  C   UNL     1      -7.359  13.150  21.761  0.00  0.00    +0.000 C 
ATOM     34  C   UNL     1      -6.226  12.694  24.061  0.00  0.00    +0.000 C 
ENDBRANCH  29  30
ENDBRANCH  28  29
ENDBRANCH   6  28
TORSDOF 8
ENDMDL
MODEL 2
REMARK VINA RESULT:      -7.2      4.682      7.071
REMARK  Name = 
REMARK  10 active torsions:
REMARK  status: ('A' for Active; 'I' for Inactive)
REMARK    1  A    between atoms: C_1  and  N_2
REMARK    2  A    between atoms: N_2  and  C_3
REMARK    3  A    between atoms: C_3  and  N_4
REMARK    4  A    between atoms: C_3  and  C_5
REMARK    5  A    between atoms: C_9  and  N_10
REMARK    6  A    between atoms: C_15  and  C_16
REMARK    7  A    between atoms: C_16  and  C_17
REMARK    8  A    between atoms: C_17  and  N_18
REMARK    9  A    between atoms: C_20  and  C_21
REMARK   10  A    between atoms: C_24  and  C_25
REMARK                            x       y       z     vdW  Elec       q    Type
REMARK                         _______ _______ _______ _____ _____    ______ ____
ROOT
ATOM      1  N   UNL     1       2.674   7.533  19.317  0.00  0.00    +0.000 N 
ATOM      2  C   UNL     1       2.303   8.341  20.506  0.00  0.00    +0.000 C 
ATOM      3  C   UNL     1       1.149   9.144  19.988  0.00  0.00    +0.000 A 
ATOM      4  C   UNL     1       1.319   9.280  18.608  0.00  0.00    +0.000 A 
ATOM      5  C   UNL     1       0.363   9.836  17.777  0.00  0.00    +0.000 A 
ATOM      6  C   UNL     1      -0.835  10.267  18.362  0.00  0.00    +0.000 A 
ATOM      7  C   UNL     1      -1.019  10.092  19.754  0.00  0.00    +0.000 A 
ATOM      8  C   UNL     1      -0.033   9.536  20.596  0.00  0.00    +0.000 A 
ATOM      9  C   UNL     1       2.402   8.356  18.195  0.00  0.00    +0.000 C 
ATOM     10  O   UNL     1       2.797   8.233  17.052  0.00  0.00    +0.000 OA
ENDROOT
BRANCH   1  15
ATOM     11  C   UNL     1       2.292   3.966  18.580  0.00  0.00    +0.000 A 
ATOM     12  C   UNL     1       1.976   3.523  19.873  0.00  0.00    +0.000 A 
ATOM     13  C   UNL     1       1.496   4.415  20.831  0.00  0.00    +0.000 A 
ATOM     14  C   UNL     1       1.437   5.777  20.546  0.00  0.00    +0.000 A 
ATOM     15  C   UNL     1       1.978   6.256  19.345  0.00  0.00    +0.000 A 
ATOM     16  C   UNL     1       2.260   5.348  18.322  0.00  0.00    +0.000 A 
BRANCH  11  17
ATOM     17  C   UNL     1       2.799   2.991  17.531  0.00  0.00    +0.000 C 
BRANCH  17  19
ATOM     18  C   UNL     1       4.890   3.801  16.542  0.00  0.00    +0.000 C 
ATOM     19  N   UNL     1       4.249   2.955  17.534  0.00  0.00    +0.000 NA
ATOM     20  H   UNL     1       4.543   3.276  18.458  0.00  0.00    +0.000 HD
ENDBRANCH  17  19
BRANCH  17  21
ATOM     21  N   UNL     1       2.337   1.663  17.854  0.00  0.00    +0.000 NA
ATOM     22  H   UNL     1       1.325   1.726  17.940  0.00  0.00    +0.000 HD
ATOM     23  H   UNL     1       2.671   1.423  18.779  0.00  0.00    +0.000 HD
ENDBRANCH  17  21
ENDBRANCH  11  17
ENDBRANCH   1  15
BRANCH   8  24
ATOM     24  C   UNL     1      -0.367   9.297  22.047  0.00  0.00    +0.000 C 
ATOM     25  F   UNL     1       0.701   9.323  22.886  0.00  0.00    +0.000 F 
ATOM     26  F   UNL     1      -1.232  10.236  22.524  0.00  0.00    +0.000 F 
ATOM     27  F   UNL     1      -0.981   8.101  22.245  0.00  0.00    +0.000 F 
ENDBRANCH   8  24
BRANCH   6  28
ATOM     28  C   UNL     1      -1.953  10.755  17.460  0.00  0.00    +0.000 C 
BRANCH  28  29
ATOM     29  C   UNL     1      -3.352  10.236  17.858  0.00  0.00    +0.000 C 
BRANCH  29  30
ATOM     30  N   UNL     1      -4.275  11.343  18.102  0.00  0.00    +0.000 NA
ATOM     31  C   UNL     1      -5.607  10.810  18.494  0.00  0.00    +0.000 C 
ATOM     32  C   UNL     1      -6.238  11.886  17.580  0.00  0.00    +0.000 C 
ATOM     33  C   UNL     1      -6.581  13.212  18.240  0.00  0.00    +0.000 C 
ATOM     34  C   UNL     1      -4.884  11.828  16.832  0.00  0.00    +0.000 C 
ENDBRANCH  29  30
ENDBRANCH  28  29
ENDBRANCH   6  28
TORSDOF 8
ENDMDL
MODEL 3
REMARK VINA RESULT:      -7.1      0.814      1.283
REMARK  Name = 
REMARK  10 active torsions:
REMARK  status: ('A' for Active; 'I' for Inactive)
REMARK    1  A    between atoms: C_1  and  N_2
REMARK    2  A    between atoms: N_2  and  C_3
REMARK    3  A    between atoms: C_3  and  N_4
REMARK    4  A    between atoms: C_3  and  C_5
REMARK    5  A    between atoms: C_9  and  N_10
REMARK    6  A    between atoms: C_15  and  C_16
REMARK    7  A    between atoms: C_16  and  C_17
REMARK    8  A    between atoms: C_17  and  N_18
REMARK    9  A    between atoms: C_20  and  C_21
REMARK   10  A    between atoms: C_24  and  C_25
REMARK                            x       y       z     vdW  Elec       q    Type
REMARK                         _______ _______ _______ _____ _____    ______ ____
ROOT
ATOM      1  N   UNL     1      -0.245  11.543  18.654  0.00  0.00    +0.000 N 
ATOM      2  C   UNL     1       0.507  10.802  19.697  0.00  0.00    +0.000 C 
ATOM      3  C   UNL     1      -0.046  11.394  20.957  0.00  0.00    +0.000 A 
ATOM      4  C   UNL     1      -0.474  12.690  20.660  0.00  0.00    +0.000 A 
ATOM      5  C   UNL     1      -1.176  13.481  21.551  0.00  0.00    +0.000 A 
ATOM      6  C   UNL     1      -1.477  12.935  22.806  0.00  0.00    +0.000 A 
ATOM      7  C   UNL     1      -1.076  11.608  23.090  0.00  0.00    +0.000 A 
ATOM      8  C   UNL     1      -0.348  10.814  22.179  0.00  0.00    +0.000 A 
ATOM      9  C   UNL     1      -0.459  12.841  19.185  0.00  0.00    +0.000 C 
ATOM     10  O   UNL     1      -0.777  13.857  18.599  0.00  0.00    +0.000 OA
ENDROOT
BRANCH   1  15
ATOM     11  C   UNL     1      -3.810  11.217  17.883  0.00  0.00    +0.000 A 
ATOM     12  C   UNL     1      -3.694  10.520  16.672  0.00  0.00    +0.000 A 
ATOM     13  C   UNL     1      -2.524   9.827  16.362  0.00  0.00    +0.000 A 
ATOM     14  C   UNL     1      -1.417   9.919  17.202  0.00  0.00    +0.000 A 
ATOM     15  C   UNL     1      -1.444  10.808  18.285  0.00  0.00    +0.000 A 
ATOM     16  C   UNL     1      -2.671  11.329  18.701  0.00  0.00    +0.000 A 
BRANCH  11  17
ATOM     17  C   UNL     1      -5.091  11.958  18.229  0.00  0.00    +0.000 C 
BRANCH  17  19
ATOM     18  C   UNL     1      -5.980  13.786  19.598  0.00  0.00    +0.000 C 
ATOM     19  N   UNL     1      -4.831  12.978  19.228  0.00  0.00    +0.000 NA
ATOM     20  H   UNL     1      -4.509  12.487  20.064  0.00  0.00    +0.000 HD
ENDBRANCH  17  19
BRANCH  17  21
ATOM     21  N   UNL     1      -5.585  12.628  17.052  0.00  0.00    +0.000 NA
ATOM     22  H   UNL     1      -5.000  12.317  16.280  0.00  0.00    +0.000 HD
ATOM     23  H   UNL     1      -5.400  13.620  17.145  0.00  0.00    +0.000 HD
ENDBRANCH  17  21
ENDBRANCH  11  17
ENDBRANCH   1  15
BRANCH   8  24
ATOM     24  C   UNL     1      -0.060   9.377  22.538  0.00  0.00    +0.000 C 
ATOM     25  F   UNL     1      -0.231   9.077  23.852  0.00  0.00    +0.000 F 
ATOM     26  F   UNL     1      -0.866   8.518  21.856  0.00  0.00    +0.000 F 
ATOM     27  F   UNL     1       1.211   9.013  22.224  0.00  0.00    +0.000 F 
ENDBRANCH   8  24
BRANCH   6  28
ATOM     28  C   UNL     1      -2.361  13.727  23.753  0.00  0.00    +0.000 C 
BRANCH  28  29
ATOM     29  C   UNL     1      -3.468  14.537  23.046  0.00  0.00    +0.000 C 
BRANCH  29  30
ATOM     30  N   UNL     1      -4.689  13.747  22.901  0.00  0.00    +0.000 NA
ATOM     31  C   UNL     1      -5.863  14.549  23.339  0.00  0.00    +0.000 C 
ATOM     32  C   UNL     1      -6.393  13.278  24.042  0.00  0.00    +0.000 C 
ATOM     33  C   UNL     1      -7.314  12.390  23.220  0.00  0.00    +0.000 C 
ATOM     34  C   UNL     1      -4.902  12.862  24.080  0.00  0.00    +0.000 C 
ENDBRANCH  29  30
ENDBRANCH  28  29
ENDBRANCH   6  28
TORSDOF 8
ENDMDL
MODEL 4
REMARK VINA RESULT:      -7.0      0.915      1.225
REMARK  Name = 
REMARK  10 active torsions:
REMARK  status: ('A' for Active; 'I' for Inactive)
REMARK    1  A    between atoms: C_1  and  N_2
REMARK    2  A    between atoms: N_2  and  C_3
REMARK    3  A    between atoms: C_3  and  N_4
REMARK    4  A    between atoms: C_3  and  C_5
REMARK    5  A    between atoms: C_9  and  N_10
REMARK    6  A    between atoms: C_15  and  C_16
REMARK    7  A    between atoms: C_16  and  C_17
REMARK    8  A    between atoms: C_17  and  N_18
REMARK    9  A    between atoms: C_20  and  C_21
REMARK   10  A    between atoms: C_24  and  C_25
REMARK                            x       y       z     vdW  Elec       q    Type
REMARK                         _______ _______ _______ _____ _____    ______ ____
ROOT
ATOM      1  N   UNL     1      -0.198  11.333  18.400  0.00  0.00    +0.000 N 
ATOM      2  C   UNL     1       0.537  10.546  19.421  0.00  0.00    +0.000 C 
ATOM      3  C   UNL     1       0.091  11.196  20.695  0.00  0.00    +0.000 A 
ATOM      4  C   UNL     1      -0.244  12.519  20.396  0.00  0.00    +0.000 A 
ATOM      5  C   UNL     1      -0.839  13.376  21.304  0.00  0.00    +0.000 A 
ATOM      6  C   UNL     1      -1.127  12.872  22.579  0.00  0.00    +0.000 A 
ATOM      7  C   UNL     1      -0.822  11.519  22.867  0.00  0.00    +0.000 A 
ATOM      8  C   UNL     1      -0.202  10.657  21.938  0.00  0.00    +0.000 A 
ATOM      9  C   UNL     1      -0.284  12.650  18.920  0.00  0.00    +0.000 C 
ATOM     10  O   UNL     1      -0.544  13.681  18.332  0.00  0.00    +0.000 OA
ENDROOT
BRANCH   1  15
ATOM     11  C   UNL     1      -3.804  11.293  17.756  0.00  0.00    +0.000 A 
ATOM     12  C   UNL     1      -3.790  10.550  16.567  0.00  0.00    +0.000 A 
ATOM     13  C   UNL     1      -2.695   9.749  16.244  0.00  0.00    +0.000 A 
ATOM     14  C   UNL     1      -1.556   9.771  17.044  0.00  0.00    +0.000 A 
ATOM     15  C   UNL     1      -1.469  10.693  18.095  0.00  0.00    +0.000 A 
ATOM     16  C   UNL     1      -2.631  11.332  18.532  0.00  0.00    +0.000 A 
BRANCH  11  17
ATOM     17  C   UNL     1      -5.003  12.153  18.117  0.00  0.00    +0.000 C 
BRANCH  17  19
ATOM     18  C   UNL     1      -6.870  13.323  17.044  0.00  0.00    +0.000 C 
ATOM     19  N   UNL     1      -5.935  12.212  17.005  0.00  0.00    +0.000 NA
ATOM     20  H   UNL     1      -5.368  12.307  16.160  0.00  0.00    +0.000 HD
ENDBRANCH  17  19
BRANCH  17  21
ATOM     21  N   UNL     1      -5.701  11.553  19.227  0.00  0.00    +0.000 NA
ATOM     22  H   UNL     1      -6.231  10.773  18.843  0.00  0.00    +0.000 HD
ATOM     23  H   UNL     1      -6.395  12.209  19.563  0.00  0.00    +0.000 HD
ENDBRANCH  17  21
ENDBRANCH  11  17
ENDBRANCH   1  15
BRANCH   8  24
ATOM     24  C   UNL     1      -0.014   9.207  22.306  0.00  0.00    +0.000 C 
ATOM     25  F   UNL     1       1.234   8.721  22.076  0.00  0.00    +0.000 F 
ATOM     26  F   UNL     1      -0.255   8.990  23.629  0.00  0.00    +0.000 F 
ATOM     27  F   UNL     1      -0.873   8.391  21.640  0.00  0.00    +0.000 F 
ENDBRANCH   8  24
BRANCH   6  28
ATOM     28  C   UNL     1      -1.901  13.743  23.551  0.00  0.00    +0.000 C 
BRANCH  28  29
ATOM     29  C   UNL     1      -2.873  14.731  22.870  0.00  0.00    +0.000 C 
BRANCH  29  30
ATOM     30  N   UNL     1      -4.260  14.433  23.224  0.00  0.00    +0.000 NA
ATOM     31  C   UNL     1      -4.295  13.504  24.385  0.00  0.00    +0.000 C 
ATOM     32  C   UNL     1      -5.434  12.745  23.665  0.00  0.00    +0.000 C 
ATOM     33  C   UNL     1      -6.850  13.194  23.988  0.00  0.00    +0.000 C 
ATOM     34  C   UNL     1      -4.810  13.337  22.378  0.00  0.00    +0.000 C 
ENDBRANCH  29  30
ENDBRANCH  28  29
ENDBRANCH   6  28
TORSDOF 8
ENDMDL
MODEL 5
REMARK VINA RESULT:      -7.0      8.302     12.033
REMARK  Name = 
REMARK  10 active torsions:
REMARK  status: ('A' for Active; 'I' for Inactive)
REMARK    1  A    between atoms: C_1  and  N_2
REMARK    2  A    between atoms: N_2  and  C_3
REMARK    3  A    between atoms: C_3  and  N_4
REMARK    4  A    between atoms: C_3  and  C_5
REMARK    5  A    between atoms: C_9  and  N_10
REMARK    6  A    between atoms: C_15  and  C_16
REMARK    7  A    between atoms: C_16  and  C_17
REMARK    8  A    between atoms: C_17  and  N_18
REMARK    9  A    between atoms: C_20  and  C_21
REMARK   10  A    between atoms: C_24  and  C_25
REMARK                            x       y       z     vdW  Elec       q    Type
REMARK                         _______ _______ _______ _____ _____    ______ ____
ROOT
ATOM      1  N   UNL     1       4.309   4.574  18.882  0.00  0.00    +0.000 N 
ATOM      2  C   UNL     1       5.623   5.213  19.146  0.00  0.00    +0.000 C 
ATOM      3  C   UNL     1       6.257   5.192  17.788  0.00  0.00    +0.000 A 
ATOM      4  C   UNL     1       5.709   4.116  17.086  0.00  0.00    +0.000 A 
ATOM      5  C   UNL     1       5.951   3.883  15.744  0.00  0.00    +0.000 A 
ATOM      6  C   UNL     1       6.780   4.787  15.067  0.00  0.00    +0.000 A 
ATOM      7  C   UNL     1       7.302   5.898  15.772  0.00  0.00    +0.000 A 
ATOM      8  C   UNL     1       7.059   6.120  17.144  0.00  0.00    +0.000 A 
ATOM      9  C   UNL     1       4.546   3.619  17.861  0.00  0.00    +0.000 C 
ATOM     10  O   UNL     1       3.849   2.683  17.521  0.00  0.00    +0.000 OA
ENDROOT
BRANCH   1  15
ATOM     11  C   UNL     1       1.952   7.247  19.727  0.00  0.00    +0.000 A 
ATOM     12  C   UNL     1       2.388   8.204  18.799  0.00  0.00    +0.000 A 
ATOM     13  C   UNL     1       3.125   7.822  17.678  0.00  0.00    +0.000 A 
ATOM     14  C   UNL     1       3.535   6.499  17.533  0.00  0.00    +0.000 A 
ATOM     15  C   UNL     1       3.313   5.589  18.576  0.00  0.00    +0.000 A 
ATOM     16  C   UNL     1       2.406   5.923  19.583  0.00  0.00    +0.000 A 
BRANCH  11  17
ATOM     17  C   UNL     1       1.135   7.661  20.939  0.00  0.00    +0.000 C 
BRANCH  17  19
ATOM     18  C   UNL     1       1.220   9.513  22.542  0.00  0.00    +0.000 C 
ATOM     19  N   UNL     1       1.940   8.464  21.840  0.00  0.00    +0.000 NA
ATOM     20  H   UNL     1       2.318   7.822  22.539  0.00  0.00    +0.000 HD
ENDBRANCH  17  19
BRANCH  17  21
ATOM     21  N   UNL     1       0.029   8.480  20.508  0.00  0.00    +0.000 NA
ATOM     22  H   UNL     1       0.313   9.446  20.663  0.00  0.00    +0.000 HD
ATOM     23  H   UNL     1      -0.750   8.326  21.137  0.00  0.00    +0.000 HD
ENDBRANCH  17  21
ENDBRANCH  11  17
ENDBRANCH   1  15
BRANCH   8  24
ATOM     24  C   UNL     1       7.577   7.388  17.777  0.00  0.00    +0.000 C 
ATOM     25  F   UNL     1       8.206   7.211  18.968  0.00  0.00    +0.000 F 
ATOM     26  F   UNL     1       8.479   8.018  16.974  0.00  0.00    +0.000 F 
ATOM     27  F   UNL     1       6.588   8.295  17.997  0.00  0.00    +0.000 F 
ENDBRANCH   8  24
BRANCH   6  28
ATOM     28  C   UNL     1       6.955   4.634  13.568  0.00  0.00    +0.000 C 
BRANCH  28  29
ATOM     29  C   UNL     1       6.367   3.326  12.998  0.00  0.00    +0.000 C 
BRANCH  29  30
ATOM     30  N   UNL     1       5.504   3.592  11.848  0.00  0.00    +0.000 NA
ATOM     31  C   UNL     1       4.103   3.791  12.306  0.00  0.00    +0.000 C 
ATOM     32  C   UNL     1       3.651   2.937  11.098  0.00  0.00    +0.000 C 
ATOM     33  C   UNL     1       3.336   3.696   9.819  0.00  0.00    +0.000 C 
ATOM     34  C   UNL     1       5.071   2.325  11.194  0.00  0.00    +0.000 C 
ENDBRANCH  29  30
ENDBRANCH  28  29
ENDBRANCH   6  28
TORSDOF 8
ENDMDL
MODEL 6
REMARK VINA RESULT:      -7.0      3.459      7.374
REMARK  Name = 
REMARK  10 active torsions:
REMARK  status: ('A' for Active; 'I' for Inactive)
REMARK    1  A    between atoms: C_1  and  N_2
REMARK    2  A    between atoms: N_2  and  C_3
REMARK    3  A    between atoms: C_3  and  N_4
REMARK    4  A    between atoms: C_3  and  C_5
REMARK    5  A    between atoms: C_9  and  N_10
REMARK    6  A    between atoms: C_15  and  C_16
REMARK    7  A    between atoms: C_16  and  C_17
REMARK    8  A    between atoms: C_17  and  N_18
REMARK    9  A    between atoms: C_20  and  C_21
REMARK   10  A    between atoms: C_24  and  C_25
REMARK                            x       y       z     vdW  Elec       q    Type
REMARK                         _______ _______ _______ _____ _____    ______ ____
ROOT
ATOM      1  N   UNL     1       0.214  13.545  20.448  0.00  0.00    +0.000 N 
ATOM      2  C   UNL     1      -0.826  13.308  19.416  0.00  0.00    +0.000 C 
ATOM      3  C   UNL     1      -0.317  12.070  18.743  0.00  0.00    +0.000 A 
ATOM      4  C   UNL     1       1.071  12.052  18.891  0.00  0.00    +0.000 A 
ATOM      5  C   UNL     1       1.860  10.977  18.523  0.00  0.00    +0.000 A 
ATOM      6  C   UNL     1       1.217   9.852  17.988  0.00  0.00    +0.000 A 
ATOM      7  C   UNL     1      -0.194   9.859  17.875  0.00  0.00    +0.000 A 
ATOM      8  C   UNL     1      -0.989  10.965  18.242  0.00  0.00    +0.000 A 
ATOM      9  C   UNL     1       1.432  13.101  19.875  0.00  0.00    +0.000 C 
ATOM     10  O   UNL     1       2.570  13.345  20.226  0.00  0.00    +0.000 OA
ENDROOT
BRANCH   1  15
ATOM     11  C   UNL     1      -2.128  12.630  23.111  0.00  0.00    +0.000 A 
ATOM     12  C   UNL     1      -1.884  11.248  23.132  0.00  0.00    +0.000 A 
ATOM     13  C   UNL     1      -0.705  10.729  22.598  0.00  0.00    +0.000 A 
ATOM     14  C   UNL     1       0.187  11.567  21.934  0.00  0.00    +0.000 A 
ATOM     15  C   UNL     1      -0.166  12.902  21.697  0.00  0.00    +0.000 A 
ATOM     16  C   UNL     1      -1.234  13.455  22.406  0.00  0.00    +0.000 A 
BRANCH  11  17
ATOM     17  C   UNL     1      -3.405  13.198  23.708  0.00  0.00    +0.000 C 
BRANCH  17  19
ATOM     18  C   UNL     1      -4.979  12.865  21.859  0.00  0.00    +0.000 C 
ATOM     19  N   UNL     1      -4.222  13.801  22.671  0.00  0.00    +0.000 NA
ATOM     20  H   UNL     1      -4.887  14.413  23.149  0.00  0.00    +0.000 HD
ENDBRANCH  17  19
BRANCH  17  21
ATOM     21  N   UNL     1      -4.175  12.126  24.289  0.00  0.00    +0.000 NA
ATOM     22  H   UNL     1      -4.161  11.366  23.613  0.00  0.00    +0.000 HD
ATOM     23  H   UNL     1      -5.144  12.418  24.343  0.00  0.00    +0.000 HD
ENDBRANCH  17  21
ENDBRANCH  11  17
ENDBRANCH   1  15
BRANCH   8  24
ATOM     24  C   UNL     1      -2.490  10.833  18.179  0.00  0.00    +0.000 C 
ATOM     25  F   UNL     1      -3.146  11.314  19.267  0.00  0.00    +0.000 F 
ATOM     26  F   UNL     1      -3.009  11.501  17.112  0.00  0.00    +0.000 F 
ATOM     27  F   UNL     1      -2.888   9.542  18.031  0.00  0.00    +0.000 F 
ENDBRANCH   8  24
BRANCH   6  28
ATOM     28  C   UNL     1       2.039   8.609  17.702  0.00  0.00    +0.000 C 
BRANCH  28  29
ATOM     29  C   UNL     1       2.224   7.684  18.924  0.00  0.00    +0.000 C 
BRANCH  29  30
ATOM     30  N   UNL     1       2.616   6.338  18.511  0.00  0.00    +0.000 NA
ATOM     31  C   UNL     1       3.411   5.692  19.590  0.00  0.00    +0.000 C 
ATOM     32  C   UNL     1       4.353   5.152  18.489  0.00  0.00    +0.000 C 
ATOM     33  C   UNL     1       4.013   3.781  17.926  0.00  0.00    +0.000 C 
ATOM     34  C   UNL     1       3.847   6.367  17.672  0.00  0.00    +0.000 C 
ENDBRANCH  29  30
ENDBRANCH  28  29
ENDBRANCH   6  28
TORSDOF 8
ENDMDL
MODEL 7
REMARK VINA RESULT:      -7.0      4.658      7.507
REMARK  Name = 
REMARK  10 active torsions:
REMARK  status: ('A' for Active; 'I' for Inactive)
REMARK    1  A    between atoms: C_1  and  N_2
REMARK    2  A    between atoms: N_2  and  C_3
REMARK    3  A    between atoms: C_3  and  N_4
REMARK    4  A    between atoms: C_3  and  C_5
REMARK    5  A    between atoms: C_9  and  N_10
REMARK    6  A    between atoms: C_15  and  C_16
REMARK    7  A    between atoms: C_16  and  C_17
REMARK    8  A    between atoms: C_17  and  N_18
REMARK    9  A    between atoms: C_20  and  C_21
REMARK   10  A    between atoms: C_24  and  C_25
REMARK                            x       y       z     vdW  Elec       q    Type
REMARK                         _______ _______ _______ _____ _____    ______ ____
ROOT
ATOM      1  N   UNL     1       2.584   7.444  19.442  0.00  0.00    +0.000 N 
ATOM      2  C   UNL     1       2.258   8.216  20.667  0.00  0.00    +0.000 C 
ATOM      3  C   UNL     1       1.155   9.108  20.187  0.00  0.00    +0.000 A 
ATOM      4  C   UNL     1       1.335   9.298  18.815  0.00  0.00    +0.000 A 
ATOM      5  C   UNL     1       0.416   9.947  18.011  0.00  0.00    +0.000 A 
ATOM      6  C   UNL     1      -0.757  10.419  18.615  0.00  0.00    +0.000 A 
ATOM      7  C   UNL     1      -0.955  10.190  19.998  0.00  0.00    +0.000 A 
ATOM      8  C   UNL     1      -0.004   9.539  20.813  0.00  0.00    +0.000 A 
ATOM      9  C   UNL     1       2.364   8.333  18.359  0.00  0.00    +0.000 C 
ATOM     10  O   UNL     1       2.754   8.241  17.211  0.00  0.00    +0.000 OA
ENDROOT
BRANCH   1  15
ATOM     11  C   UNL     1       1.961   3.968  18.472  0.00  0.00    +0.000 A 
ATOM     12  C   UNL     1       1.672   3.450  19.743  0.00  0.00    +0.000 A 
ATOM     13  C   UNL     1       1.285   4.296  20.782  0.00  0.00    +0.000 A 
ATOM     14  C   UNL     1       1.295   5.676  20.597  0.00  0.00    +0.000 A 
ATOM     15  C   UNL     1       1.816   6.210  19.410  0.00  0.00    +0.000 A 
ATOM     16  C   UNL     1       2.001   5.365  18.314  0.00  0.00    +0.000 A 
BRANCH  11  17
ATOM     17  C   UNL     1       2.366   3.045  17.335  0.00  0.00    +0.000 C 
BRANCH  17  19
ATOM     18  C   UNL     1       4.781   3.439  17.487  0.00  0.00    +0.000 C 
ATOM     19  N   UNL     1       3.570   3.536  16.690  0.00  0.00    +0.000 NA
ATOM     20  H   UNL     1       3.700   2.968  15.851  0.00  0.00    +0.000 HD
ENDBRANCH  17  19
BRANCH  17  21
ATOM     21  N   UNL     1       2.669   1.740  17.867  0.00  0.00    +0.000 NA
ATOM     22  H   UNL     1       2.463   1.783  18.863  0.00  0.00    +0.000 HD
ATOM     23  H   UNL     1       3.669   1.591  17.807  0.00  0.00    +0.000 HD
ENDBRANCH  17  21
ENDBRANCH  11  17
ENDBRANCH   1  15
BRANCH   8  24
ATOM     24  C   UNL     1      -0.356   9.254  22.251  0.00  0.00    +0.000 C 
ATOM     25  F   UNL     1      -0.923   8.037  22.465  0.00  0.00    +0.000 F 
ATOM     26  F   UNL     1       0.743   9.293  23.054  0.00  0.00    +0.000 F 
ATOM     27  F   UNL     1      -1.216  10.173  22.764  0.00  0.00    +0.000 F 
ENDBRANCH   8  24
BRANCH   6  28
ATOM     28  C   UNL     1      -1.842  11.013  17.737  0.00  0.00    +0.000 C 
BRANCH  28  29
ATOM     29  C   UNL     1      -3.181  10.246  17.790  0.00  0.00    +0.000 C 
BRANCH  29  30
ATOM     30  N   UNL     1      -3.703  10.003  16.446  0.00  0.00    +0.000 NA
ATOM     31  C   UNL     1      -2.623   9.464  15.577  0.00  0.00    +0.000 C 
ATOM     32  C   UNL     1      -3.143  10.394  14.457  0.00  0.00    +0.000 C 
ATOM     33  C   UNL     1      -4.185   9.803  13.520  0.00  0.00    +0.000 C 
ATOM     34  C   UNL     1      -3.688  11.248  15.628  0.00  0.00    +0.000 C 
ENDBRANCH  29  30
ENDBRANCH  28  29
ENDBRANCH   6  28
TORSDOF 8
ENDMDL
MODEL 8
REMARK VINA RESULT:      -6.9      0.899      1.305
REMARK  Name = 
REMARK  10 active torsions:
REMARK  status: ('A' for Active; 'I' for Inactive)
REMARK    1  A    between atoms: C_1  and  N_2
REMARK    2  A    between atoms: N_2  and  C_3
REMARK    3  A    between atoms: C_3  and  N_4
REMARK    4  A    between atoms: C_3  and  C_5
REMARK    5  A    between atoms: C_9  and  N_10
REMARK    6  A    between atoms: C_15  and  C_16
REMARK    7  A    between atoms: C_16  and  C_17
REMARK    8  A    between atoms: C_17  and  N_18
REMARK    9  A    between atoms: C_20  and  C_21
REMARK   10  A    between atoms: C_24  and  C_25
REMARK                            x       y       z     vdW  Elec       q    Type
REMARK                         _______ _______ _______ _____ _____    ______ ____
ROOT
ATOM      1  N   UNL     1      -0.198  11.507  18.598  0.00  0.00    +0.000 N 
ATOM      2  C   UNL     1       0.548  10.780  19.656  0.00  0.00    +0.000 C 
ATOM      3  C   UNL     1      -0.016  11.385  20.905  0.00  0.00    +0.000 A 
ATOM      4  C   UNL     1      -0.446  12.675  20.589  0.00  0.00    +0.000 A 
ATOM      5  C   UNL     1      -1.159  13.474  21.465  0.00  0.00    +0.000 A 
ATOM      6  C   UNL     1      -1.468  12.942  22.724  0.00  0.00    +0.000 A 
ATOM      7  C   UNL     1      -1.064  11.619  23.027  0.00  0.00    +0.000 A 
ATOM      8  C   UNL     1      -0.327  10.817  22.131  0.00  0.00    +0.000 A 
ATOM      9  C   UNL     1      -0.421  12.809  19.113  0.00  0.00    +0.000 C 
ATOM     10  O   UNL     1      -0.737  13.818  18.512  0.00  0.00    +0.000 OA
ENDROOT
BRANCH   1  15
ATOM     11  C   UNL     1      -3.771  11.143  17.884  0.00  0.00    +0.000 A 
ATOM     12  C   UNL     1      -3.667  10.487  16.649  0.00  0.00    +0.000 A 
ATOM     13  C   UNL     1      -2.492   9.825  16.295  0.00  0.00    +0.000 A 
ATOM     14  C   UNL     1      -1.370   9.909  17.117  0.00  0.00    +0.000 A 
ATOM     15  C   UNL     1      -1.392  10.763  18.228  0.00  0.00    +0.000 A 
ATOM     16  C   UNL     1      -2.619  11.249  18.684  0.00  0.00    +0.000 A 
BRANCH  11  17
ATOM     17  C   UNL     1      -5.057  11.850  18.278  0.00  0.00    +0.000 C 
BRANCH  17  19
ATOM     18  C   UNL     1      -6.930  12.970  17.162  0.00  0.00    +0.000 C 
ATOM     19  N   UNL     1      -5.499  12.728  17.210  0.00  0.00    +0.000 NA
ATOM     20  H   UNL     1      -5.033  13.624  17.363  0.00  0.00    +0.000 HD
ENDBRANCH  17  19
BRANCH  17  21
ATOM     21  N   UNL     1      -6.095  10.870  18.481  0.00  0.00    +0.000 NA
ATOM     22  H   UNL     1      -6.897  11.376  18.851  0.00  0.00    +0.000 HD
ATOM     23  H   UNL     1      -5.807  10.245  19.225  0.00  0.00    +0.000 HD
ENDBRANCH  17  21
ENDBRANCH  11  17
ENDBRANCH   1  15
BRANCH   8  24
ATOM     24  C   UNL     1      -0.035   9.386  22.509  0.00  0.00    +0.000 C 
ATOM     25  F   UNL     1      -0.273   9.085  23.812  0.00  0.00    +0.000 F 
ATOM     26  F   UNL     1      -0.790   8.513  21.785  0.00  0.00    +0.000 F 
ATOM     27  F   UNL     1       1.256   9.042  22.265  0.00  0.00    +0.000 F 
ENDBRANCH   8  24
BRANCH   6  28
ATOM     28  C   UNL     1      -2.362  13.741  23.654  0.00  0.00    +0.000 C 
BRANCH  28  29
ATOM     29  C   UNL     1      -3.658  13.007  24.061  0.00  0.00    +0.000 C 
BRANCH  29  30
ATOM     30  N   UNL     1      -4.793  13.459  23.258  0.00  0.00    +0.000 NA
ATOM     31  C   UNL     1      -4.808  12.739  21.957  0.00  0.00    +0.000 C 
ATOM     32  C   UNL     1      -5.162  14.086  21.285  0.00  0.00    +0.000 C 
ATOM     33  C   UNL     1      -6.644  14.390  21.127  0.00  0.00    +0.000 C 
ATOM     34  C   UNL     1      -4.467  14.711  22.519  0.00  0.00    +0.000 C 
ENDBRANCH  29  30
ENDBRANCH  28  29
ENDBRANCH   6  28
TORSDOF 8
ENDMDL
MODEL 9
REMARK VINA RESULT:      -6.8      1.379      2.033
REMARK  Name = 
REMARK  10 active torsions:
REMARK  status: ('A' for Active; 'I' for Inactive)
REMARK    1  A    between atoms: C_1  and  N_2
REMARK    2  A    between atoms: N_2  and  C_3
REMARK    3  A    between atoms: C_3  and  N_4
REMARK    4  A    between atoms: C_3  and  C_5
REMARK    5  A    between atoms: C_9  and  N_10
REMARK    6  A    between atoms: C_15  and  C_16
REMARK    7  A    between atoms: C_16  and  C_17
REMARK    8  A    between atoms: C_17  and  N_18
REMARK    9  A    between atoms: C_20  and  C_21
REMARK   10  A    between atoms: C_24  and  C_25
REMARK                            x       y       z     vdW  Elec       q    Type
REMARK                         _______ _______ _______ _____ _____    ______ ____
ROOT
ATOM      1  N   UNL     1      -0.259  11.235  18.355  0.00  0.00    +0.000 N 
ATOM      2  C   UNL     1       0.471  10.427  19.364  0.00  0.00    +0.000 C 
ATOM      3  C   UNL     1       0.094  11.114  20.641  0.00  0.00    +0.000 A 
ATOM      4  C   UNL     1      -0.189  12.446  20.334  0.00  0.00    +0.000 A 
ATOM      5  C   UNL     1      -0.717  13.341  21.248  0.00  0.00    +0.000 A 
ATOM      6  C   UNL     1      -0.988  12.866  22.538  0.00  0.00    +0.000 A 
ATOM      7  C   UNL     1      -0.736  11.505  22.835  0.00  0.00    +0.000 A 
ATOM      8  C   UNL     1      -0.185  10.604  21.900  0.00  0.00    +0.000 A 
ATOM      9  C   UNL     1      -0.268  12.561  18.858  0.00  0.00    +0.000 C 
ATOM     10  O   UNL     1      -0.500  13.595  18.264  0.00  0.00    +0.000 OA
ENDROOT
BRANCH   1  15
ATOM     11  C   UNL     1      -3.906  11.318  18.025  0.00  0.00    +0.000 A 
ATOM     12  C   UNL     1      -4.011  10.703  16.769  0.00  0.00    +0.000 A 
ATOM     13  C   UNL     1      -2.968   9.923  16.272  0.00  0.00    +0.000 A 
ATOM     14  C   UNL     1      -1.764   9.844  16.968  0.00  0.00    +0.000 A 
ATOM     15  C   UNL     1      -1.566  10.650  18.097  0.00  0.00    +0.000 A 
ATOM     16  C   UNL     1      -2.671  11.257  18.697  0.00  0.00    +0.000 A 
BRANCH  11  17
ATOM     17  C   UNL     1      -5.049  12.153  18.575  0.00  0.00    +0.000 C 
BRANCH  17  19
ATOM     18  C   UNL     1      -5.369  13.376  20.675  0.00  0.00    +0.000 C 
ATOM     19  N   UNL     1      -4.546  13.153  19.499  0.00  0.00    +0.000 NA
ATOM     20  H   UNL     1      -3.632  12.820  19.813  0.00  0.00    +0.000 HD
ENDBRANCH  17  19
BRANCH  17  21
ATOM     21  N   UNL     1      -5.687  12.857  17.491  0.00  0.00    +0.000 NA
ATOM     22  H   UNL     1      -5.211  13.753  17.413  0.00  0.00    +0.000 HD
ATOM     23  H   UNL     1      -6.636  13.082  17.766  0.00  0.00    +0.000 HD
ENDBRANCH  17  21
ENDBRANCH  11  17
ENDBRANCH   1  15
BRANCH   8  24
ATOM     24  C   UNL     1      -0.052   9.152  22.283  0.00  0.00    +0.000 C 
ATOM     25  F   UNL     1      -0.344   8.879  23.582  0.00  0.00    +0.000 F 
ATOM     26  F   UNL     1      -0.879   8.360  21.545  0.00  0.00    +0.000 F 
ATOM     27  F   UNL     1       1.202   8.674  22.064  0.00  0.00    +0.000 F 
ENDBRANCH   8  24
BRANCH   6  28
ATOM     28  C   UNL     1      -1.691  13.785  23.520  0.00  0.00    +0.000 C 
BRANCH  28  29
ATOM     29  C   UNL     1      -3.156  13.391  23.807  0.00  0.00    +0.000 C 
BRANCH  29  30
ATOM     30  N   UNL     1      -3.928  14.540  24.279  0.00  0.00    +0.000 NA
ATOM     31  C   UNL     1      -3.816  15.656  23.303  0.00  0.00    +0.000 C 
ATOM     32  C   UNL     1      -3.664  16.614  24.507  0.00  0.00    +0.000 C 
ATOM     33  C   UNL     1      -4.947  17.223  25.048  0.00  0.00    +0.000 C 
ATOM     34  C   UNL     1      -3.143  15.357  25.246  0.00  0.00    +0.000 C 
ENDBRANCH  29  30
ENDBRANCH  28  29
ENDBRANCH   6  28
TORSDOF 8
ENDMDL
