MODEL 1
REMARK VINA RESULT:      -8.3      0.000      0.000
REMARK  Name = 
REMARK  4 active torsions:
REMARK  status: ('A' for Active; 'I' for Inactive)
REMARK    1  A    between atoms: C_1  and  C_2
REMARK    2  A    between atoms: C_4  and  C_5
REMARK    3  A    between atoms: C_13  and  C_15
REMARK    4  A    between atoms: C_15  and  C_16
REMARK                            x       y       z     vdW  Elec       q    Type
REMARK                         _______ _______ _______ _____ _____    ______ ____
ROOT
ATOM      1  C   UNL     1       7.803   5.283  18.798  0.00  0.00    +0.000 C 
ATOM      2  C   UNL     1       6.929   4.808  17.648  0.00  0.00    +0.000 C 
ATOM      3  C   UNL     1       7.480   5.305  16.300  0.00  0.00    +0.000 C 
ATOM      4  C   UNL     1       6.258   5.490  15.387  0.00  0.00    +0.000 C 
ATOM      5  C   UNL     1       5.054   5.111  16.246  0.00  0.00    +0.000 C 
ATOM      6  N   UNL     1       5.524   5.211  17.613  0.00  0.00    +0.000 N 
ATOM      7  C   UNL     1       4.695   5.283  18.721  0.00  0.00    +0.000 C 
ATOM      8  O   UNL     1       5.128   5.270  19.875  0.00  0.00    +0.000 OA
ENDROOT
BRANCH   4   9
ATOM      9  C   UNL     1       6.318   4.740  14.080  0.00  0.00    +0.000 A 
ATOM     10  C   UNL     1       5.308   3.847  13.694  0.00  0.00    +0.000 A 
ATOM     11  C   UNL     1       5.385   3.174  12.473  0.00  0.00    +0.000 A 
ATOM     12  C   UNL     1       6.472   3.385  11.628  0.00  0.00    +0.000 A 
ATOM     13  C   UNL     1       7.482   4.268  11.998  0.00  0.00    +0.000 A 
ATOM     14  C   UNL     1       7.405   4.944  13.216  0.00  0.00    +0.000 A 
ENDBRANCH   4   9
BRANCH   7  15
ATOM     15  C   UNL     1       3.185   5.346  18.475  0.00  0.00    +0.000 C 
BRANCH  15  16
ATOM     16  C   UNL     1       2.456   6.351  19.313  0.00  0.00    +0.000 A 
ATOM     17  C   UNL     1       2.028   6.178  20.622  0.00  0.00    +0.000 A 
ATOM     18  N   UNL     1       1.425   7.336  21.040  0.00  0.00    +0.000 N 
ATOM     19  C   UNL     1       1.483   8.271  20.048  0.00  0.00    +0.000 A 
ATOM     20  N   UNL     1       1.000   9.522  20.160  0.00  0.00    +0.000 NA
ATOM     21  C   UNL     1       1.206  10.260  19.046  0.00  0.00    +0.000 A 
ATOM     22  C   UNL     1       1.838   9.825  17.888  0.00  0.00    +0.000 A 
ATOM     23  C   UNL     1       2.314   8.514  17.829  0.00  0.00    +0.000 A 
ATOM     24  C   UNL     1       2.127   7.698  18.957  0.00  0.00    +0.000 A 
ATOM     25  H   UNL     1       1.015   7.510  21.947  0.00  0.00    +0.000 HD
ENDBRANCH  15  16
ENDBRANCH   7  15
TORSDOF 3
ENDMDL
MODEL 2
REMARK VINA RESULT:      -8.2      2.062      3.756
REMARK  Name = 
REMARK  4 active torsions:
REMARK  status: ('A' for Active; 'I' for Inactive)
REMARK    1  A    between atoms: C_1  and  C_2
REMARK    2  A    between atoms: C_4  and  C_5
REMARK    3  A    between atoms: C_13  and  C_15
REMARK    4  A    between atoms: C_15  and  C_16
REMARK                            x       y       z     vdW  Elec       q    Type
REMARK                         _______ _______ _______ _____ _____    ______ ____
ROOT
ATOM      1  C   UNL     1       1.060   2.413  18.703  0.00  0.00    +0.000 C 
ATOM      2  C   UNL     1       2.079   3.448  18.255  0.00  0.00    +0.000 C 
ATOM      3  C   UNL     1       3.369   2.769  17.762  0.00  0.00    +0.000 C 
ATOM      4  C   UNL     1       4.511   3.745  18.086  0.00  0.00    +0.000 C 
ATOM      5  C   UNL     1       3.841   4.937  18.766  0.00  0.00    +0.000 C 
ATOM      6  N   UNL     1       2.560   4.434  19.223  0.00  0.00    +0.000 N 
ATOM      7  C   UNL     1       1.768   5.060  20.172  0.00  0.00    +0.000 C 
ATOM      8  O   UNL     1       0.642   4.656  20.467  0.00  0.00    +0.000 OA
ENDROOT
BRANCH   4   9
ATOM      9  C   UNL     1       5.370   4.136  16.909  0.00  0.00    +0.000 A 
ATOM     10  C   UNL     1       6.696   4.561  17.071  0.00  0.00    +0.000 A 
ATOM     11  C   UNL     1       7.471   4.905  15.963  0.00  0.00    +0.000 A 
ATOM     12  C   UNL     1       6.928   4.830  14.682  0.00  0.00    +0.000 A 
ATOM     13  C   UNL     1       5.612   4.410  14.506  0.00  0.00    +0.000 A 
ATOM     14  C   UNL     1       4.838   4.062  15.612  0.00  0.00    +0.000 A 
ENDBRANCH   4   9
BRANCH   7  15
ATOM     15  C   UNL     1       2.324   6.321  20.839  0.00  0.00    +0.000 C 
BRANCH  15  16
ATOM     16  C   UNL     1       1.829   7.609  20.254  0.00  0.00    +0.000 A 
ATOM     17  C   UNL     1       2.010   8.044  18.949  0.00  0.00    +0.000 A 
ATOM     18  N   UNL     1       1.386   9.256  18.803  0.00  0.00    +0.000 N 
ATOM     19  C   UNL     1       0.774   9.603  19.971  0.00  0.00    +0.000 A 
ATOM     20  N   UNL     1       0.055  10.727  20.143  0.00  0.00    +0.000 NA
ATOM     21  C   UNL     1      -0.471  10.825  21.385  0.00  0.00    +0.000 A 
ATOM     22  C   UNL     1      -0.316   9.897  22.407  0.00  0.00    +0.000 A 
ATOM     23  C   UNL     1       0.444   8.751  22.172  0.00  0.00    +0.000 A 
ATOM     24  C   UNL     1       1.019   8.597  20.899  0.00  0.00    +0.000 A 
ATOM     25  H   UNL     1       1.347   9.819  17.965  0.00  0.00    +0.000 HD
ENDBRANCH  15  16
ENDBRANCH   7  15
TORSDOF 3
ENDMDL
MODEL 3
REMARK VINA RESULT:      -8.1      2.023      7.164
REMARK  Name = 
REMARK  4 active torsions:
REMARK  status: ('A' for Active; 'I' for Inactive)
REMARK    1  A    between atoms: C_1  and  C_2
REMARK    2  A    between atoms: C_4  and  C_5
REMARK    3  A    between atoms: C_13  and  C_15
REMARK    4  A    between atoms: C_15  and  C_16
REMARK                            x       y       z     vdW  Elec       q    Type
REMARK                         _______ _______ _______ _____ _____    ______ ____
ROOT
ATOM      1  C   UNL     1       1.756   2.951  18.534  0.00  0.00    +0.000 C 
ATOM      2  C   UNL     1       2.203   4.329  18.997  0.00  0.00    +0.000 C 
ATOM      3  C   UNL     1       1.475   5.433  18.211  0.00  0.00    +0.000 C 
ATOM      4  C   UNL     1       2.456   6.614  18.135  0.00  0.00    +0.000 C 
ATOM      5  C   UNL     1       3.712   6.140  18.863  0.00  0.00    +0.000 C 
ATOM      6  N   UNL     1       3.614   4.694  18.874  0.00  0.00    +0.000 N 
ATOM      7  C   UNL     1       4.675   3.840  19.128  0.00  0.00    +0.000 C 
ATOM      8  O   UNL     1       4.536   2.620  19.225  0.00  0.00    +0.000 OA
ENDROOT
BRANCH   4   9
ATOM      9  C   UNL     1       1.921   7.923  18.660  0.00  0.00    +0.000 A 
ATOM     10  C   UNL     1       1.742   9.035  17.825  0.00  0.00    +0.000 A 
ATOM     11  C   UNL     1       1.233  10.230  18.336  0.00  0.00    +0.000 A 
ATOM     12  C   UNL     1       0.902  10.327  19.686  0.00  0.00    +0.000 A 
ATOM     13  C   UNL     1       1.075   9.231  20.526  0.00  0.00    +0.000 A 
ATOM     14  C   UNL     1       1.580   8.035  20.016  0.00  0.00    +0.000 A 
ENDBRANCH   4   9
BRANCH   7  15
ATOM     15  C   UNL     1       6.058   4.467  19.325  0.00  0.00    +0.000 C 
BRANCH  15  16
ATOM     16  C   UNL     1       6.628   5.123  18.103  0.00  0.00    +0.000 A 
ATOM     17  C   UNL     1       7.460   6.233  18.076  0.00  0.00    +0.000 A 
ATOM     18  N   UNL     1       7.781   6.505  16.771  0.00  0.00    +0.000 N 
ATOM     19  C   UNL     1       7.208   5.577  15.952  0.00  0.00    +0.000 A 
ATOM     20  N   UNL     1       7.356   5.555  14.615  0.00  0.00    +0.000 NA
ATOM     21  C   UNL     1       6.709   4.518  14.036  0.00  0.00    +0.000 A 
ATOM     22  C   UNL     1       5.960   3.556  14.701  0.00  0.00    +0.000 A 
ATOM     23  C   UNL     1       5.838   3.632  16.089  0.00  0.00    +0.000 A 
ATOM     24  C   UNL     1       6.487   4.692  16.746  0.00  0.00    +0.000 A 
ATOM     25  H   UNL     1       8.370   7.255  16.438  0.00  0.00    +0.000 HD
ENDBRANCH  15  16
ENDBRANCH   7  15
TORSDOF 3
ENDMDL
MODEL 4
REMARK VINA RESULT:      -7.9      1.916      3.490
REMARK  Name = 
REMARK  4 active torsions:
REMARK  status: ('A' for Active; 'I' for Inactive)
REMARK    1  A    between atoms: C_1  and  C_2
REMARK    2  A    between atoms: C_4  and  C_5
REMARK    3  A    between atoms: C_13  and  C_15
REMARK    4  A    between atoms: C_15  and  C_16
REMARK                            x       y       z     vdW  Elec       q    Type
REMARK                         _______ _______ _______ _____ _____    ______ ____
ROOT
ATOM      1  C   UNL     1       0.890   2.287  18.501  0.00  0.00    +0.000 C 
ATOM      2  C   UNL     1       1.957   3.322  18.187  0.00  0.00    +0.000 C 
ATOM      3  C   UNL     1       3.229   2.650  17.642  0.00  0.00    +0.000 C 
ATOM      4  C   UNL     1       4.402   3.538  18.090  0.00  0.00    +0.000 C 
ATOM      5  C   UNL     1       3.763   4.674  18.887  0.00  0.00    +0.000 C 
ATOM      6  N   UNL     1       2.456   4.175  19.265  0.00  0.00    +0.000 N 
ATOM      7  C   UNL     1       1.669   4.725  20.265  0.00  0.00    +0.000 C 
ATOM      8  O   UNL     1       0.522   4.337  20.496  0.00  0.00    +0.000 OA
ENDROOT
BRANCH   4   9
ATOM      9  C   UNL     1       5.298   4.020  16.978  0.00  0.00    +0.000 A 
ATOM     10  C   UNL     1       6.589   4.507  17.228  0.00  0.00    +0.000 A 
ATOM     11  C   UNL     1       7.401   4.936  16.178  0.00  0.00    +0.000 A 
ATOM     12  C   UNL     1       6.931   4.886  14.867  0.00  0.00    +0.000 A 
ATOM     13  C   UNL     1       5.651   4.405  14.603  0.00  0.00    +0.000 A 
ATOM     14  C   UNL     1       4.840   3.973  15.652  0.00  0.00    +0.000 A 
ENDBRANCH   4   9
BRANCH   7  15
ATOM     15  C   UNL     1       2.260   5.881  21.077  0.00  0.00    +0.000 C 
BRANCH  15  16
ATOM     16  C   UNL     1       1.630   7.216  20.814  0.00  0.00    +0.000 A 
ATOM     17  C   UNL     1       0.847   7.946  21.697  0.00  0.00    +0.000 A 
ATOM     18  N   UNL     1       0.485   9.120  21.090  0.00  0.00    +0.000 N 
ATOM     19  C   UNL     1       1.044   9.189  19.847  0.00  0.00    +0.000 A 
ATOM     20  N   UNL     1       0.898  10.231  19.009  0.00  0.00    +0.000 NA
ATOM     21  C   UNL     1       1.574  10.066  17.850  0.00  0.00    +0.000 A 
ATOM     22  C   UNL     1       2.346   8.962  17.510  0.00  0.00    +0.000 A 
ATOM     23  C   UNL     1       2.457   7.908  18.418  0.00  0.00    +0.000 A 
ATOM     24  C   UNL     1       1.774   8.023  19.641  0.00  0.00    +0.000 A 
ATOM     25  H   UNL     1      -0.085   9.854  21.485  0.00  0.00    +0.000 HD
ENDBRANCH  15  16
ENDBRANCH   7  15
TORSDOF 3
ENDMDL
MODEL 5
REMARK VINA RESULT:      -7.9      1.053      1.813
REMARK  Name = 
REMARK  4 active torsions:
REMARK  status: ('A' for Active; 'I' for Inactive)
REMARK    1  A    between atoms: C_1  and  C_2
REMARK    2  A    between atoms: C_4  and  C_5
REMARK    3  A    between atoms: C_13  and  C_15
REMARK    4  A    between atoms: C_15  and  C_16
REMARK                            x       y       z     vdW  Elec       q    Type
REMARK                         _______ _______ _______ _____ _____    ______ ____
ROOT
ATOM      1  C   UNL     1       6.966   5.136  19.422  0.00  0.00    +0.000 C 
ATOM      2  C   UNL     1       6.264   4.870  18.100  0.00  0.00    +0.000 C 
ATOM      3  C   UNL     1       7.159   5.274  16.914  0.00  0.00    +0.000 C 
ATOM      4  C   UNL     1       6.202   5.719  15.796  0.00  0.00    +0.000 C 
ATOM      5  C   UNL     1       4.801   5.572  16.384  0.00  0.00    +0.000 C 
ATOM      6  N   UNL     1       4.999   5.548  17.820  0.00  0.00    +0.000 N 
ATOM      7  C   UNL     1       3.995   5.762  18.751  0.00  0.00    +0.000 C 
ATOM      8  O   UNL     1       4.178   5.638  19.964  0.00  0.00    +0.000 OA
ENDROOT
BRANCH   4   9
ATOM      9  C   UNL     1       6.377   4.999  14.483  0.00  0.00    +0.000 A 
ATOM     10  C   UNL     1       5.454   4.041  14.038  0.00  0.00    +0.000 A 
ATOM     11  C   UNL     1       5.635   3.398  12.812  0.00  0.00    +0.000 A 
ATOM     12  C   UNL     1       6.740   3.704  12.021  0.00  0.00    +0.000 A 
ATOM     13  C   UNL     1       7.665   4.652  12.450  0.00  0.00    +0.000 A 
ATOM     14  C   UNL     1       7.483   5.298  13.673  0.00  0.00    +0.000 A 
ENDBRANCH   4   9
BRANCH   7  15
ATOM     15  C   UNL     1       2.606   6.131  18.224  0.00  0.00    +0.000 C 
BRANCH  15  16
ATOM     16  C   UNL     1       2.223   7.567  18.420  0.00  0.00    +0.000 A 
ATOM     17  C   UNL     1       2.252   8.566  17.457  0.00  0.00    +0.000 A 
ATOM     18  N   UNL     1       1.805   9.731  18.024  0.00  0.00    +0.000 N 
ATOM     19  C   UNL     1       1.452   9.506  19.323  0.00  0.00    +0.000 A 
ATOM     20  N   UNL     1       0.951  10.447  20.144  0.00  0.00    +0.000 NA
ATOM     21  C   UNL     1       0.656   9.963  21.372  0.00  0.00    +0.000 A 
ATOM     22  C   UNL     1       0.834   8.651  21.792  0.00  0.00    +0.000 A 
ATOM     23  C   UNL     1       1.362   7.720  20.897  0.00  0.00    +0.000 A 
ATOM     24  C   UNL     1       1.690   8.165  19.605  0.00  0.00    +0.000 A 
ATOM     25  H   UNL     1       1.714  10.629  17.570  0.00  0.00    +0.000 HD
ENDBRANCH  15  16
ENDBRANCH   7  15
TORSDOF 3
ENDMDL
MODEL 6
REMARK VINA RESULT:      -7.8      1.913      3.394
REMARK  Name = 
REMARK  4 active torsions:
REMARK  status: ('A' for Active; 'I' for Inactive)
REMARK    1  A    between atoms: C_1  and  C_2
REMARK    2  A    between atoms: C_4  and  C_5
REMARK    3  A    between atoms: C_13  and  C_15
REMARK    4  A    between atoms: C_15  and  C_16
REMARK                            x       y       z     vdW  Elec       q    Type
REMARK                         _______ _______ _______ _____ _____    ______ ____
ROOT
ATOM      1  C   UNL     1       0.934   2.365  18.645  0.00  0.00    +0.000 C 
ATOM      2  C   UNL     1       1.988   3.394  18.268  0.00  0.00    +0.000 C 
ATOM      3  C   UNL     1       3.258   2.708  17.736  0.00  0.00    +0.000 C 
ATOM      4  C   UNL     1       4.429   3.624  18.127  0.00  0.00    +0.000 C 
ATOM      5  C   UNL     1       3.792   4.790  18.881  0.00  0.00    +0.000 C 
ATOM      6  N   UNL     1       2.494   4.299  19.300  0.00  0.00    +0.000 N 
ATOM      7  C   UNL     1       1.717   4.887  20.286  0.00  0.00    +0.000 C 
ATOM      8  O   UNL     1       0.577   4.500  20.550  0.00  0.00    +0.000 OA
ENDROOT
BRANCH   4   9
ATOM      9  C   UNL     1       5.305   4.063  16.981  0.00  0.00    +0.000 A 
ATOM     10  C   UNL     1       4.848   4.051  15.655  0.00  0.00    +0.000 A 
ATOM     11  C   UNL     1       5.677   4.473  14.615  0.00  0.00    +0.000 A 
ATOM     12  C   UNL     1       6.972   4.909  14.888  0.00  0.00    +0.000 A 
ATOM     13  C   UNL     1       7.439   4.926  16.200  0.00  0.00    +0.000 A 
ATOM     14  C   UNL     1       6.610   4.508  17.240  0.00  0.00    +0.000 A 
ENDBRANCH   4   9
BRANCH   7  15
ATOM     15  C   UNL     1       2.309   6.083  21.036  0.00  0.00    +0.000 C 
BRANCH  15  16
ATOM     16  C   UNL     1       1.576   7.375  20.831  0.00  0.00    +0.000 A 
ATOM     17  C   UNL     1       0.754   8.010  21.751  0.00  0.00    +0.000 A 
ATOM     18  N   UNL     1       0.294   9.175  21.193  0.00  0.00    +0.000 N 
ATOM     19  C   UNL     1       0.827   9.331  19.947  0.00  0.00    +0.000 A 
ATOM     20  N   UNL     1       0.590  10.389  19.151  0.00  0.00    +0.000 NA
ATOM     21  C   UNL     1       1.259  10.319  17.978  0.00  0.00    +0.000 A 
ATOM     22  C   UNL     1       2.107   9.291  17.588  0.00  0.00    +0.000 A 
ATOM     23  C   UNL     1       2.312   8.216  18.454  0.00  0.00    +0.000 A 
ATOM     24  C   UNL     1       1.640   8.233  19.688  0.00  0.00    +0.000 A 
ATOM     25  H   UNL     1      -0.324   9.848  21.623  0.00  0.00    +0.000 HD
ENDBRANCH  15  16
ENDBRANCH   7  15
TORSDOF 3
ENDMDL
MODEL 7
REMARK VINA RESULT:      -7.8      2.412      3.413
REMARK  Name = 
REMARK  4 active torsions:
REMARK  status: ('A' for Active; 'I' for Inactive)
REMARK    1  A    between atoms: C_1  and  C_2
REMARK    2  A    between atoms: C_4  and  C_5
REMARK    3  A    between atoms: C_13  and  C_15
REMARK    4  A    between atoms: C_15  and  C_16
REMARK                            x       y       z     vdW  Elec       q    Type
REMARK                         _______ _______ _______ _____ _____    ______ ____
ROOT
ATOM      1  C   UNL     1       8.025   4.901  18.421  0.00  0.00    +0.000 C 
ATOM      2  C   UNL     1       6.993   4.603  17.345  0.00  0.00    +0.000 C 
ATOM      3  C   UNL     1       7.573   4.863  15.943  0.00  0.00    +0.000 C 
ATOM      4  C   UNL     1       6.387   5.305  15.071  0.00  0.00    +0.000 C 
ATOM      5  C   UNL     1       5.178   5.299  16.004  0.00  0.00    +0.000 C 
ATOM      6  N   UNL     1       5.737   5.353  17.340  0.00  0.00    +0.000 N 
ATOM      7  C   UNL     1       5.020   5.700  18.474  0.00  0.00    +0.000 C 
ATOM      8  O   UNL     1       5.502   5.641  19.607  0.00  0.00    +0.000 OA
ENDROOT
BRANCH   4   9
ATOM      9  C   UNL     1       6.178   4.491  13.819  0.00  0.00    +0.000 A 
ATOM     10  C   UNL     1       4.945   3.887  13.528  0.00  0.00    +0.000 A 
ATOM     11  C   UNL     1       4.777   3.149  12.356  0.00  0.00    +0.000 A 
ATOM     12  C   UNL     1       5.838   3.003  11.464  0.00  0.00    +0.000 A 
ATOM     13  C   UNL     1       7.067   3.596  11.741  0.00  0.00    +0.000 A 
ATOM     14  C   UNL     1       7.236   4.338  12.910  0.00  0.00    +0.000 A 
ENDBRANCH   4   9
BRANCH   7  15
ATOM     15  C   UNL     1       3.565   6.136  18.287  0.00  0.00    +0.000 C 
BRANCH  15  16
ATOM     16  C   UNL     1       2.555   5.045  18.481  0.00  0.00    +0.000 A 
ATOM     17  C   UNL     1       1.748   4.484  17.501  0.00  0.00    +0.000 A 
ATOM     18  N   UNL     1       0.983   3.503  18.075  0.00  0.00    +0.000 N 
ATOM     19  C   UNL     1       1.297   3.387  19.398  0.00  0.00    +0.000 A 
ATOM     20  N   UNL     1       0.737   2.493  20.232  0.00  0.00    +0.000 NA
ATOM     21  C   UNL     1       1.241   2.562  21.485  0.00  0.00    +0.000 A 
ATOM     22  C   UNL     1       2.226   3.441  21.916  0.00  0.00    +0.000 A 
ATOM     23  C   UNL     1       2.768   4.350  21.006  0.00  0.00    +0.000 A 
ATOM     24  C   UNL     1       2.281   4.326  19.688  0.00  0.00    +0.000 A 
ATOM     25  H   UNL     1       0.300   2.920  17.611  0.00  0.00    +0.000 HD
ENDBRANCH  15  16
ENDBRANCH   7  15
TORSDOF 3
ENDMDL
MODEL 8
REMARK VINA RESULT:      -7.7      2.385      3.580
REMARK  Name = 
REMARK  4 active torsions:
REMARK  status: ('A' for Active; 'I' for Inactive)
REMARK    1  A    between atoms: C_1  and  C_2
REMARK    2  A    between atoms: C_4  and  C_5
REMARK    3  A    between atoms: C_13  and  C_15
REMARK    4  A    between atoms: C_15  and  C_16
REMARK                            x       y       z     vdW  Elec       q    Type
REMARK                         _______ _______ _______ _____ _____    ______ ____
ROOT
ATOM      1  C   UNL     1       7.887   5.296  18.641  0.00  0.00    +0.000 C 
ATOM      2  C   UNL     1       6.940   4.909  17.517  0.00  0.00    +0.000 C 
ATOM      3  C   UNL     1       7.563   5.219  16.145  0.00  0.00    +0.000 C 
ATOM      4  C   UNL     1       6.388   5.557  15.213  0.00  0.00    +0.000 C 
ATOM      5  C   UNL     1       5.140   5.447  16.085  0.00  0.00    +0.000 C 
ATOM      6  N   UNL     1       5.626   5.548  17.447  0.00  0.00    +0.000 N 
ATOM      7  C   UNL     1       4.827   5.832  18.543  0.00  0.00    +0.000 C 
ATOM      8  O   UNL     1       5.255   5.815  19.699  0.00  0.00    +0.000 OA
ENDROOT
BRANCH   4   9
ATOM      9  C   UNL     1       6.312   4.728  13.956  0.00  0.00    +0.000 A 
ATOM     10  C   UNL     1       7.357   4.707  13.020  0.00  0.00    +0.000 A 
ATOM     11  C   UNL     1       7.264   3.922  11.871  0.00  0.00    +0.000 A 
ATOM     12  C   UNL     1       6.126   3.152  11.642  0.00  0.00    +0.000 A 
ATOM     13  C   UNL     1       5.080   3.163  12.561  0.00  0.00    +0.000 A 
ATOM     14  C   UNL     1       5.173   3.945  13.713  0.00  0.00    +0.000 A 
ENDBRANCH   4   9
BRANCH   7  15
ATOM     15  C   UNL     1       3.350   6.141  18.283  0.00  0.00    +0.000 C 
BRANCH  15  16
ATOM     16  C   UNL     1       2.422   4.982  18.490  0.00  0.00    +0.000 A 
ATOM     17  C   UNL     1       1.674   4.341  17.513  0.00  0.00    +0.000 A 
ATOM     18  N   UNL     1       0.976   3.317  18.099  0.00  0.00    +0.000 N 
ATOM     19  C   UNL     1       1.280   3.254  19.428  0.00  0.00    +0.000 A 
ATOM     20  N   UNL     1       0.776   2.339  20.276  0.00  0.00    +0.000 NA
ATOM     21  C   UNL     1       1.256   2.473  21.533  0.00  0.00    +0.000 A 
ATOM     22  C   UNL     1       2.166   3.433  21.956  0.00  0.00    +0.000 A 
ATOM     23  C   UNL     1       2.651   4.360  21.032  0.00  0.00    +0.000 A 
ATOM     24  C   UNL     1       2.186   4.271  19.709  0.00  0.00    +0.000 A 
ATOM     25  H   UNL     1       0.346   2.674  17.641  0.00  0.00    +0.000 HD
ENDBRANCH  15  16
ENDBRANCH   7  15
TORSDOF 3
ENDMDL
MODEL 9
REMARK VINA RESULT:      -7.6      1.732      2.813
REMARK  Name = 
REMARK  4 active torsions:
REMARK  status: ('A' for Active; 'I' for Inactive)
REMARK    1  A    between atoms: C_1  and  C_2
REMARK    2  A    between atoms: C_4  and  C_5
REMARK    3  A    between atoms: C_13  and  C_15
REMARK    4  A    between atoms: C_15  and  C_16
REMARK                            x       y       z     vdW  Elec       q    Type
REMARK                         _______ _______ _______ _____ _____    ______ ____
ROOT
ATOM      1  C   UNL     1       2.507   3.057  18.356  0.00  0.00    +0.000 C 
ATOM      2  C   UNL     1       3.174   3.908  17.289  0.00  0.00    +0.000 C 
ATOM      3  C   UNL     1       4.488   3.263  16.815  0.00  0.00    +0.000 C 
ATOM      4  C   UNL     1       5.412   4.426  16.419  0.00  0.00    +0.000 C 
ATOM      5  C   UNL     1       4.604   5.692  16.695  0.00  0.00    +0.000 C 
ATOM      6  N   UNL     1       3.566   5.279  17.618  0.00  0.00    +0.000 N 
ATOM      7  C   UNL     1       2.815   6.150  18.391  0.00  0.00    +0.000 C 
ATOM      8  O   UNL     1       1.875   5.772  19.093  0.00  0.00    +0.000 OA
ENDROOT
BRANCH   4   9
ATOM      9  C   UNL     1       5.955   4.359  15.014  0.00  0.00    +0.000 A 
ATOM     10  C   UNL     1       5.302   3.639  14.003  0.00  0.00    +0.000 A 
ATOM     11  C   UNL     1       5.821   3.603  12.708  0.00  0.00    +0.000 A 
ATOM     12  C   UNL     1       7.000   4.285  12.411  0.00  0.00    +0.000 A 
ATOM     13  C   UNL     1       7.659   5.003  13.404  0.00  0.00    +0.000 A 
ATOM     14  C   UNL     1       7.139   5.042  14.698  0.00  0.00    +0.000 A 
ENDBRANCH   4   9
BRANCH   7  15
ATOM     15  C   UNL     1       3.167   7.639  18.325  0.00  0.00    +0.000 C 
BRANCH  15  16
ATOM     16  C   UNL     1       2.007   8.566  18.533  0.00  0.00    +0.000 A 
ATOM     17  C   UNL     1       1.308   9.246  17.547  0.00  0.00    +0.000 A 
ATOM     18  N   UNL     1       0.306   9.968  18.141  0.00  0.00    +0.000 N 
ATOM     19  C   UNL     1       0.313   9.745  19.487  0.00  0.00    +0.000 A 
ATOM     20  N   UNL     1      -0.566  10.290  20.348  0.00  0.00    +0.000 NA
ATOM     21  C   UNL     1      -0.362   9.889  21.623  0.00  0.00    +0.000 A 
ATOM     22  C   UNL     1       0.630   9.016  22.051  0.00  0.00    +0.000 A 
ATOM     23  C   UNL     1       1.516   8.485  21.113  0.00  0.00    +0.000 A 
ATOM     24  C   UNL     1       1.354   8.868  19.770  0.00  0.00    +0.000 A 
ATOM     25  H   UNL     1      -0.367  10.563  17.678  0.00  0.00    +0.000 HD
ENDBRANCH  15  16
ENDBRANCH   7  15
TORSDOF 3
ENDMDL
