MODEL 1
REMARK VINA RESULT:      -9.6      0.000      0.000
REMARK  Name = 
REMARK  4 active torsions:
REMARK  status: ('A' for Active; 'I' for Inactive)
REMARK    1  A    between atoms: C_2  and  C_19
REMARK    2  A    between atoms: N_3  and  C_4
REMARK    3  A    between atoms: C_8  and  S_9
REMARK    4  A    between atoms: S_9  and  N_12
REMARK                            x       y       z     vdW  Elec       q    Type
REMARK                         _______ _______ _______ _____ _____    ______ ____
ROOT
ATOM      1  C   UNL     1       3.062   5.852  18.358  0.00  0.00    +0.000 A 
ATOM      2  C   UNL     1       2.502   4.681  17.847  0.00  0.00    +0.000 A 
ATOM      3  C   UNL     1       3.316   3.709  17.253  0.00  0.00    +0.000 A 
ATOM      4  C   UNL     1       4.694   3.897  17.171  0.00  0.00    +0.000 A 
ATOM      5  C   UNL     1       5.265   5.038  17.730  0.00  0.00    +0.000 A 
ATOM      6  C   UNL     1       4.454   6.025  18.305  0.00  0.00    +0.000 A 
ENDROOT
BRANCH   1   9
ATOM      7  O   UNL     1       2.471   8.601  17.323  0.00  0.00    +0.000 OA
ATOM      8  C   UNL     1       2.098   8.195  18.421  0.00  0.00    +0.000 C 
ATOM      9  N   UNL     1       2.313   6.911  18.903  0.00  0.00    +0.000 N 
ATOM     10  H   UNL     1       1.910   6.738  19.817  0.00  0.00    +0.000 HD
BRANCH   8  11
ATOM     11  C   UNL     1       1.402   9.066  19.378  0.00  0.00    +0.000 A 
ATOM     12  C   UNL     1       1.191   8.868  20.730  0.00  0.00    +0.000 A 
ATOM     13  C   UNL     1       0.335   9.864  21.328  0.00  0.00    +0.000 A 
ATOM     14  C   UNL     1      -0.187   9.996  22.635  0.00  0.00    +0.000 A 
ATOM     15  F   UNL     1       0.148   9.113  23.586  0.00  0.00    +0.000 F 
ATOM     16  C   UNL     1      -1.079  11.022  22.961  0.00  0.00    +0.000 A 
ATOM     17  C   UNL     1      -1.453  11.951  22.000  0.00  0.00    +0.000 A 
ATOM     18  C   UNL     1      -0.927  11.877  20.711  0.00  0.00    +0.000 A 
ATOM     19  C   UNL     1      -0.043  10.826  20.390  0.00  0.00    +0.000 A 
ATOM     20  S   UNL     1       0.688  10.541  18.868  0.00  0.00    +0.000 S 
ENDBRANCH   8  11
ENDBRANCH   1   9
BRANCH   5  21
ATOM     21  S   UNL     1       7.027   5.293  17.637  0.00  0.00    +0.000 S 
ATOM     22  O   UNL     1       7.376   6.362  18.545  0.00  0.00    +0.000 OA
ATOM     23  O   UNL     1       7.655   3.994  17.718  0.00  0.00    +0.000 OA
BRANCH  21  24
ATOM     24  N   UNL     1       7.236   5.823  16.079  0.00  0.00    +0.000 N 
ATOM     25  C   UNL     1       6.985   5.151  14.890  0.00  0.00    +0.000 C 
ATOM     26  N   UNL     1       7.604   5.543  13.826  0.00  0.00    +0.000 NA
ATOM     27  C   UNL     1       7.133   4.642  12.752  0.00  0.00    +0.000 C 
ATOM     28  C   UNL     1       6.497   3.453  13.453  0.00  0.00    +0.000 C 
ATOM     29  C   UNL     1       5.985   4.056  14.741  0.00  0.00    +0.000 C 
ATOM     30  H   UNL     1       7.792   6.671  16.005  0.00  0.00    +0.000 HD
ENDBRANCH  21  24
ENDBRANCH   5  21
TORSDOF 4
ENDMDL
MODEL 2
REMARK VINA RESULT:      -9.5      1.365      1.540
REMARK  Name = 
REMARK  4 active torsions:
REMARK  status: ('A' for Active; 'I' for Inactive)
REMARK    1  A    between atoms: C_2  and  C_19
REMARK    2  A    between atoms: N_3  and  C_4
REMARK    3  A    between atoms: C_8  and  S_9
REMARK    4  A    between atoms: S_9  and  N_12
REMARK                            x       y       z     vdW  Elec       q    Type
REMARK                         _______ _______ _______ _____ _____    ______ ____
ROOT
ATOM      1  C   UNL     1       3.167   6.142  18.999  0.00  0.00    +0.000 A 
ATOM      2  C   UNL     1       3.189   4.851  19.525  0.00  0.00    +0.000 A 
ATOM      3  C   UNL     1       4.019   3.873  18.963  0.00  0.00    +0.000 A 
ATOM      4  C   UNL     1       4.837   4.180  17.878  0.00  0.00    +0.000 A 
ATOM      5  C   UNL     1       4.862   5.482  17.385  0.00  0.00    +0.000 A 
ATOM      6  C   UNL     1       4.017   6.459  17.927  0.00  0.00    +0.000 A 
ENDROOT
BRANCH   1   9
ATOM      7  O   UNL     1       2.181   8.639  17.669  0.00  0.00    +0.000 OA
ATOM      8  C   UNL     1       1.912   8.337  18.828  0.00  0.00    +0.000 C 
ATOM      9  N   UNL     1       2.311   7.163  19.452  0.00  0.00    +0.000 N 
ATOM     10  H   UNL     1       1.974   7.063  20.403  0.00  0.00    +0.000 HD
BRANCH   8  11
ATOM     11  C   UNL     1       1.150   9.233  19.709  0.00  0.00    +0.000 A 
ATOM     12  C   UNL     1       0.937   9.128  21.072  0.00  0.00    +0.000 A 
ATOM     13  C   UNL     1       0.013  10.110  21.584  0.00  0.00    +0.000 A 
ATOM     14  C   UNL     1      -0.532  10.310  22.873  0.00  0.00    +0.000 A 
ATOM     15  F   UNL     1      -0.153   9.526  23.892  0.00  0.00    +0.000 F 
ATOM     16  C   UNL     1      -1.491  11.299  23.112  0.00  0.00    +0.000 A 
ATOM     17  C   UNL     1      -1.912  12.124  22.079  0.00  0.00    +0.000 A 
ATOM     18  C   UNL     1      -1.367  11.984  20.803  0.00  0.00    +0.000 A 
ATOM     19  C   UNL     1      -0.415  10.970  20.572  0.00  0.00    +0.000 A 
ATOM     20  S   UNL     1       0.351  10.616  19.082  0.00  0.00    +0.000 S 
ENDBRANCH   8  11
ENDBRANCH   1   9
BRANCH   5  21
ATOM     21  S   UNL     1       5.904   5.894  16.000  0.00  0.00    +0.000 S 
ATOM     22  O   UNL     1       5.246   6.926  15.231  0.00  0.00    +0.000 OA
ATOM     23  O   UNL     1       7.246   6.067  16.508  0.00  0.00    +0.000 OA
BRANCH  21  24
ATOM     24  N   UNL     1       5.910   4.489  15.118  0.00  0.00    +0.000 N 
ATOM     25  C   UNL     1       6.428   4.259  13.850  0.00  0.00    +0.000 C 
ATOM     26  N   UNL     1       5.963   3.263  13.173  0.00  0.00    +0.000 NA
ATOM     27  C   UNL     1       6.701   3.289  11.891  0.00  0.00    +0.000 C 
ATOM     28  C   UNL     1       7.328   4.670  11.799  0.00  0.00    +0.000 C 
ATOM     29  C   UNL     1       7.548   5.038  13.248  0.00  0.00    +0.000 C 
ATOM     30  H   UNL     1       5.289   3.773  15.484  0.00  0.00    +0.000 HD
ENDBRANCH  21  24
ENDBRANCH   5  21
TORSDOF 4
ENDMDL
MODEL 3
REMARK VINA RESULT:      -9.3      1.024      1.143
REMARK  Name = 
REMARK  4 active torsions:
REMARK  status: ('A' for Active; 'I' for Inactive)
REMARK    1  A    between atoms: C_2  and  C_19
REMARK    2  A    between atoms: N_3  and  C_4
REMARK    3  A    between atoms: C_8  and  S_9
REMARK    4  A    between atoms: S_9  and  N_12
REMARK                            x       y       z     vdW  Elec       q    Type
REMARK                         _______ _______ _______ _____ _____    ______ ____
ROOT
ATOM      1  C   UNL     1       3.380   5.740  19.341  0.00  0.00    +0.000 A 
ATOM      2  C   UNL     1       2.975   4.413  19.198  0.00  0.00    +0.000 A 
ATOM      3  C   UNL     1       3.880   3.440  18.757  0.00  0.00    +0.000 A 
ATOM      4  C   UNL     1       5.197   3.785  18.462  0.00  0.00    +0.000 A 
ATOM      5  C   UNL     1       5.623   5.096  18.657  0.00  0.00    +0.000 A 
ATOM      6  C   UNL     1       4.717   6.078  19.076  0.00  0.00    +0.000 A 
ENDROOT
BRANCH   1   9
ATOM      7  O   UNL     1       2.309   8.058  17.775  0.00  0.00    +0.000 OA
ATOM      8  C   UNL     1       2.081   7.883  18.969  0.00  0.00    +0.000 C 
ATOM      9  N   UNL     1       2.521   6.792  19.706  0.00  0.00    +0.000 N 
ATOM     10  H   UNL     1       2.215   6.793  20.673  0.00  0.00    +0.000 HD
BRANCH   8  11
ATOM     11  C   UNL     1       1.331   8.860  19.770  0.00  0.00    +0.000 A 
ATOM     12  C   UNL     1       1.096   8.862  21.134  0.00  0.00    +0.000 A 
ATOM     13  C   UNL     1       0.191   9.901  21.558  0.00  0.00    +0.000 A 
ATOM     14  C   UNL     1      -0.366  10.209  22.820  0.00  0.00    +0.000 A 
ATOM     15  F   UNL     1      -0.020   9.494  23.900  0.00  0.00    +0.000 F 
ATOM     16  C   UNL     1      -1.302  11.236  22.971  0.00  0.00    +0.000 A 
ATOM     17  C   UNL     1      -1.688  11.993  21.874  0.00  0.00    +0.000 A 
ATOM     18  C   UNL     1      -1.130  11.745  20.620  0.00  0.00    +0.000 A 
ATOM     19  C   UNL     1      -0.201  10.694  20.478  0.00  0.00    +0.000 A 
ATOM     20  S   UNL     1       0.575  10.212  19.031  0.00  0.00    +0.000 S 
ENDBRANCH   8  11
ENDBRANCH   1   9
BRANCH   5  21
ATOM     21  S   UNL     1       7.306   5.553  18.288  0.00  0.00    +0.000 S 
ATOM     22  O   UNL     1       7.355   6.987  18.112  0.00  0.00    +0.000 OA
ATOM     23  O   UNL     1       8.155   4.879  19.244  0.00  0.00    +0.000 OA
BRANCH  21  24
ATOM     24  N   UNL     1       7.569   4.823  16.823  0.00  0.00    +0.000 N 
ATOM     25  C   UNL     1       6.723   4.747  15.723  0.00  0.00    +0.000 C 
ATOM     26  N   UNL     1       6.914   3.796  14.871  0.00  0.00    +0.000 NA
ATOM     27  C   UNL     1       5.870   3.984  13.842  0.00  0.00    +0.000 C 
ATOM     28  C   UNL     1       4.834   4.908  14.461  0.00  0.00    +0.000 C 
ATOM     29  C   UNL     1       5.656   5.742  15.416  0.00  0.00    +0.000 C 
ATOM     30  H   UNL     1       8.372   4.199  16.813  0.00  0.00    +0.000 HD
ENDBRANCH  21  24
ENDBRANCH   5  21
TORSDOF 4
ENDMDL
MODEL 4
REMARK VINA RESULT:      -9.3      3.909      9.393
REMARK  Name = 
REMARK  4 active torsions:
REMARK  status: ('A' for Active; 'I' for Inactive)
REMARK    1  A    between atoms: C_2  and  C_19
REMARK    2  A    between atoms: N_3  and  C_4
REMARK    3  A    between atoms: C_8  and  S_9
REMARK    4  A    between atoms: S_9  and  N_12
REMARK                            x       y       z     vdW  Elec       q    Type
REMARK                         _______ _______ _______ _____ _____    ______ ____
ROOT
ATOM      1  C   UNL     1       1.021   8.993  20.530  0.00  0.00    +0.000 A 
ATOM      2  C   UNL     1       0.694   8.725  21.859  0.00  0.00    +0.000 A 
ATOM      3  C   UNL     1      -0.095   9.622  22.588  0.00  0.00    +0.000 A 
ATOM      4  C   UNL     1      -0.570  10.789  21.992  0.00  0.00    +0.000 A 
ATOM      5  C   UNL     1      -0.295  11.034  20.649  0.00  0.00    +0.000 A 
ATOM      6  C   UNL     1       0.514  10.152  19.921  0.00  0.00    +0.000 A 
ENDROOT
BRANCH   1   9
ATOM      7  O   UNL     1       1.685   6.076  20.692  0.00  0.00    +0.000 OA
ATOM      8  C   UNL     1       2.195   6.843  19.880  0.00  0.00    +0.000 C 
ATOM      9  N   UNL     1       1.868   8.186  19.749  0.00  0.00    +0.000 N 
ATOM     10  H   UNL     1       2.365   8.664  19.006  0.00  0.00    +0.000 HD
BRANCH   8  11
ATOM     11  C   UNL     1       3.262   6.413  18.965  0.00  0.00    +0.000 A 
ATOM     12  C   UNL     1       3.578   6.908  17.713  0.00  0.00    +0.000 A 
ATOM     13  C   UNL     1       4.596   6.144  17.035  0.00  0.00    +0.000 A 
ATOM     14  C   UNL     1       5.151   6.253  15.740  0.00  0.00    +0.000 A 
ATOM     15  F   UNL     1       4.764   7.244  14.924  0.00  0.00    +0.000 F 
ATOM     16  C   UNL     1       6.086   5.327  15.269  0.00  0.00    +0.000 A 
ATOM     17  C   UNL     1       6.505   4.285  16.084  0.00  0.00    +0.000 A 
ATOM     18  C   UNL     1       6.010   4.168  17.383  0.00  0.00    +0.000 A 
ATOM     19  C   UNL     1       5.054   5.098  17.838  0.00  0.00    +0.000 A 
ATOM     20  S   UNL     1       4.306   5.115  19.378  0.00  0.00    +0.000 S 
ENDBRANCH   8  11
ENDBRANCH   1   9
BRANCH   5  21
ATOM     21  S   UNL     1      -0.896  12.520  19.870  0.00  0.00    +0.000 S 
ATOM     22  O   UNL     1      -0.987  13.553  20.877  0.00  0.00    +0.000 OA
ATOM     23  O   UNL     1      -0.131  12.709  18.658  0.00  0.00    +0.000 OA
BRANCH  21  24
ATOM     24  N   UNL     1      -2.428  12.091  19.401  0.00  0.00    +0.000 N 
ATOM     25  C   UNL     1      -2.845  11.526  18.202  0.00  0.00    +0.000 C 
ATOM     26  N   UNL     1      -4.082  11.670  17.859  0.00  0.00    +0.000 NA
ATOM     27  C   UNL     1      -4.205  10.973  16.561  0.00  0.00    +0.000 C 
ATOM     28  C   UNL     1      -2.786  10.790  16.048  0.00  0.00    +0.000 C 
ATOM     29  C   UNL     1      -1.978  10.693  17.321  0.00  0.00    +0.000 C 
ATOM     30  H   UNL     1      -3.160  12.468  19.997  0.00  0.00    +0.000 HD
ENDBRANCH  21  24
ENDBRANCH   5  21
TORSDOF 4
ENDMDL
MODEL 5
REMARK VINA RESULT:      -9.3      1.140      1.209
REMARK  Name = 
REMARK  4 active torsions:
REMARK  status: ('A' for Active; 'I' for Inactive)
REMARK    1  A    between atoms: C_2  and  C_19
REMARK    2  A    between atoms: N_3  and  C_4
REMARK    3  A    between atoms: C_8  and  S_9
REMARK    4  A    between atoms: S_9  and  N_12
REMARK                            x       y       z     vdW  Elec       q    Type
REMARK                         _______ _______ _______ _____ _____    ______ ____
ROOT
ATOM      1  C   UNL     1       3.437   5.921  18.263  0.00  0.00    +0.000 A 
ATOM      2  C   UNL     1       2.793   4.786  17.772  0.00  0.00    +0.000 A 
ATOM      3  C   UNL     1       3.510   3.822  17.053  0.00  0.00    +0.000 A 
ATOM      4  C   UNL     1       4.875   3.982  16.825  0.00  0.00    +0.000 A 
ATOM      5  C   UNL     1       5.535   5.085  17.361  0.00  0.00    +0.000 A 
ATOM      6  C   UNL     1       4.820   6.065  18.061  0.00  0.00    +0.000 A 
ENDROOT
BRANCH   1   9
ATOM      7  O   UNL     1       1.899   5.987  20.833  0.00  0.00    +0.000 OA
ATOM      8  C   UNL     1       2.033   6.962  20.098  0.00  0.00    +0.000 C 
ATOM      9  N   UNL     1       2.782   6.973  18.929  0.00  0.00    +0.000 N 
ATOM     10  H   UNL     1       2.809   7.872  18.461  0.00  0.00    +0.000 HD
BRANCH   8  11
ATOM     11  C   UNL     1       1.360   8.240  20.369  0.00  0.00    +0.000 A 
ATOM     12  C   UNL     1       0.791   8.683  21.549  0.00  0.00    +0.000 A 
ATOM     13  C   UNL     1       0.085   9.932  21.410  0.00  0.00    +0.000 A 
ATOM     14  C   UNL     1      -0.687  10.686  22.324  0.00  0.00    +0.000 A 
ATOM     15  F   UNL     1      -0.813  10.277  23.595  0.00  0.00    +0.000 F 
ATOM     16  C   UNL     1      -1.355  11.848  21.927  0.00  0.00    +0.000 A 
ATOM     17  C   UNL     1      -1.252  12.297  20.619  0.00  0.00    +0.000 A 
ATOM     18  C   UNL     1      -0.467  11.603  19.698  0.00  0.00    +0.000 A 
ATOM     19  C   UNL     1       0.186  10.422  20.107  0.00  0.00    +0.000 A 
ATOM     20  S   UNL     1       1.168   9.414  19.132  0.00  0.00    +0.000 S 
ENDBRANCH   8  11
ENDBRANCH   1   9
BRANCH   5  21
ATOM     21  S   UNL     1       7.281   5.305  17.082  0.00  0.00    +0.000 S 
ATOM     22  O   UNL     1       7.750   6.355  17.957  0.00  0.00    +0.000 OA
ATOM     23  O   UNL     1       7.886   3.992  17.084  0.00  0.00    +0.000 OA
BRANCH  21  24
ATOM     24  N   UNL     1       7.334   5.848  15.516  0.00  0.00    +0.000 N 
ATOM     25  C   UNL     1       7.084   5.148  14.342  0.00  0.00    +0.000 C 
ATOM     26  N   UNL     1       7.589   5.600  13.243  0.00  0.00    +0.000 NA
ATOM     27  C   UNL     1       7.153   4.649  12.198  0.00  0.00    +0.000 C 
ATOM     28  C   UNL     1       6.694   3.401  12.934  0.00  0.00    +0.000 C 
ATOM     29  C   UNL     1       6.201   3.950  14.253  0.00  0.00    +0.000 C 
ATOM     30  H   UNL     1       7.790   6.750  15.410  0.00  0.00    +0.000 HD
ENDBRANCH  21  24
ENDBRANCH   5  21
TORSDOF 4
ENDMDL
MODEL 6
REMARK VINA RESULT:      -9.2      3.716      9.128
REMARK  Name = 
REMARK  4 active torsions:
REMARK  status: ('A' for Active; 'I' for Inactive)
REMARK    1  A    between atoms: C_2  and  C_19
REMARK    2  A    between atoms: N_3  and  C_4
REMARK    3  A    between atoms: C_8  and  S_9
REMARK    4  A    between atoms: S_9  and  N_12
REMARK                            x       y       z     vdW  Elec       q    Type
REMARK                         _______ _______ _______ _____ _____    ______ ____
ROOT
ATOM      1  C   UNL     1       1.273   8.488  20.588  0.00  0.00    +0.000 A 
ATOM      2  C   UNL     1       0.894   8.312  21.919  0.00  0.00    +0.000 A 
ATOM      3  C   UNL     1       0.180   9.312  22.590  0.00  0.00    +0.000 A 
ATOM      4  C   UNL     1      -0.165  10.492  21.934  0.00  0.00    +0.000 A 
ATOM      5  C   UNL     1       0.161  10.651  20.590  0.00  0.00    +0.000 A 
ATOM      6  C   UNL     1       0.895   9.664  19.920  0.00  0.00    +0.000 A 
ENDROOT
BRANCH   1   9
ATOM      7  O   UNL     1       1.645   5.531  20.887  0.00  0.00    +0.000 OA
ATOM      8  C   UNL     1       2.244   6.209  20.057  0.00  0.00    +0.000 C 
ATOM      9  N   UNL     1       2.053   7.570  19.862  0.00  0.00    +0.000 N 
ATOM     10  H   UNL     1       2.610   7.965  19.113  0.00  0.00    +0.000 HD
BRANCH   8  11
ATOM     11  C   UNL     1       3.282   5.638  19.188  0.00  0.00    +0.000 A 
ATOM     12  C   UNL     1       4.650   5.593  19.391  0.00  0.00    +0.000 A 
ATOM     13  C   UNL     1       5.381   5.088  18.255  0.00  0.00    +0.000 A 
ATOM     14  C   UNL     1       6.766   4.947  18.012  0.00  0.00    +0.000 A 
ATOM     15  F   UNL     1       7.652   5.272  18.965  0.00  0.00    +0.000 F 
ATOM     16  C   UNL     1       7.247   4.500  16.778  0.00  0.00    +0.000 A 
ATOM     17  C   UNL     1       6.359   4.162  15.767  0.00  0.00    +0.000 A 
ATOM     18  C   UNL     1       4.983   4.248  15.983  0.00  0.00    +0.000 A 
ATOM     19  C   UNL     1       4.513   4.719  17.226  0.00  0.00    +0.000 A 
ATOM     20  S   UNL     1       2.875   4.925  17.681  0.00  0.00    +0.000 S 
ENDBRANCH   8  11
ENDBRANCH   1   9
BRANCH   5  21
ATOM     21  S   UNL     1      -0.275  12.153  19.735  0.00  0.00    +0.000 S 
ATOM     22  O   UNL     1      -0.210  13.245  20.680  0.00  0.00    +0.000 OA
ATOM     23  O   UNL     1       0.472  12.176  18.498  0.00  0.00    +0.000 OA
BRANCH  21  24
ATOM     24  N   UNL     1      -1.861  11.892  19.326  0.00  0.00    +0.000 N 
ATOM     25  C   UNL     1      -2.376  11.224  18.222  0.00  0.00    +0.000 C 
ATOM     26  N   UNL     1      -3.584  11.498  17.854  0.00  0.00    +0.000 NA
ATOM     27  C   UNL     1      -3.830  10.642  16.673  0.00  0.00    +0.000 C 
ATOM     28  C   UNL     1      -2.462  10.177  16.202  0.00  0.00    +0.000 C 
ATOM     29  C   UNL     1      -1.657  10.150  17.480  0.00  0.00    +0.000 C 
ATOM     30  H   UNL     1      -2.519  12.457  19.855  0.00  0.00    +0.000 HD
ENDBRANCH  21  24
ENDBRANCH   5  21
TORSDOF 4
ENDMDL
MODEL 7
REMARK VINA RESULT:      -9.2      4.261      9.233
REMARK  Name = 
REMARK  4 active torsions:
REMARK  status: ('A' for Active; 'I' for Inactive)
REMARK    1  A    between atoms: C_2  and  C_19
REMARK    2  A    between atoms: N_3  and  C_4
REMARK    3  A    between atoms: C_8  and  S_9
REMARK    4  A    between atoms: S_9  and  N_12
REMARK                            x       y       z     vdW  Elec       q    Type
REMARK                         _______ _______ _______ _____ _____    ______ ____
ROOT
ATOM      1  C   UNL     1       0.298   9.143  21.332  0.00  0.00    +0.000 A 
ATOM      2  C   UNL     1      -0.134   9.274  22.652  0.00  0.00    +0.000 A 
ATOM      3  C   UNL     1      -0.793  10.437  23.068  0.00  0.00    +0.000 A 
ATOM      4  C   UNL     1      -1.031  11.474  22.168  0.00  0.00    +0.000 A 
ATOM      5  C   UNL     1      -0.653  11.326  20.836  0.00  0.00    +0.000 A 
ATOM      6  C   UNL     1       0.027  10.175  20.419  0.00  0.00    +0.000 A 
ENDROOT
BRANCH   1   9
ATOM      7  O   UNL     1       2.078   8.846  18.941  0.00  0.00    +0.000 OA
ATOM      8  C   UNL     1       1.809   7.923  19.705  0.00  0.00    +0.000 C 
ATOM      9  N   UNL     1       1.031   8.044  20.848  0.00  0.00    +0.000 N 
ATOM     10  H   UNL     1       0.936   7.186  21.379  0.00  0.00    +0.000 HD
BRANCH   8  11
ATOM     11  C   UNL     1       2.267   6.549  19.457  0.00  0.00    +0.000 A 
ATOM     12  C   UNL     1       2.968   6.054  18.372  0.00  0.00    +0.000 A 
ATOM     13  C   UNL     1       3.118   4.620  18.393  0.00  0.00    +0.000 A 
ATOM     14  C   UNL     1       3.688   3.718  17.465  0.00  0.00    +0.000 A 
ATOM     15  F   UNL     1       4.264   4.180  16.346  0.00  0.00    +0.000 F 
ATOM     16  C   UNL     1       3.642   2.337  17.672  0.00  0.00    +0.000 A 
ATOM     17  C   UNL     1       3.048   1.823  18.816  0.00  0.00    +0.000 A 
ATOM     18  C   UNL     1       2.512   2.684  19.774  0.00  0.00    +0.000 A 
ATOM     19  C   UNL     1       2.548   4.074  19.544  0.00  0.00    +0.000 A 
ATOM     20  S   UNL     1       1.925   5.291  20.574  0.00  0.00    +0.000 S 
ENDBRANCH   8  11
ENDBRANCH   1   9
BRANCH   5  21
ATOM     21  S   UNL     1      -0.952  12.640  19.671  0.00  0.00    +0.000 S 
ATOM     22  O   UNL     1      -1.033  13.884  20.403  0.00  0.00    +0.000 OA
ATOM     23  O   UNL     1      -0.023  12.465  18.577  0.00  0.00    +0.000 OA
BRANCH  21  24
ATOM     24  N   UNL     1      -2.455  12.268  19.079  0.00  0.00    +0.000 N 
ATOM     25  C   UNL     1      -2.789  11.497  17.972  0.00  0.00    +0.000 C 
ATOM     26  N   UNL     1      -3.946  11.679  17.429  0.00  0.00    +0.000 NA
ATOM     27  C   UNL     1      -3.994  10.730  16.295  0.00  0.00    +0.000 C 
ATOM     28  C   UNL     1      -2.557  10.306  16.045  0.00  0.00    +0.000 C 
ATOM     29  C   UNL     1      -1.930  10.412  17.416  0.00  0.00    +0.000 C 
ATOM     30  H   UNL     1      -3.203  12.834  19.471  0.00  0.00    +0.000 HD
ENDBRANCH  21  24
ENDBRANCH   5  21
TORSDOF 4
ENDMDL
MODEL 8
REMARK VINA RESULT:      -9.1      1.810      2.137
REMARK  Name = 
REMARK  4 active torsions:
REMARK  status: ('A' for Active; 'I' for Inactive)
REMARK    1  A    between atoms: C_2  and  C_19
REMARK    2  A    between atoms: N_3  and  C_4
REMARK    3  A    between atoms: C_8  and  S_9
REMARK    4  A    between atoms: S_9  and  N_12
REMARK                            x       y       z     vdW  Elec       q    Type
REMARK                         _______ _______ _______ _____ _____    ______ ____
ROOT
ATOM      1  C   UNL     1       3.255   5.926  19.173  0.00  0.00    +0.000 A 
ATOM      2  C   UNL     1       3.345   4.657  19.747  0.00  0.00    +0.000 A 
ATOM      3  C   UNL     1       4.267   3.724  19.258  0.00  0.00    +0.000 A 
ATOM      4  C   UNL     1       5.109   4.053  18.198  0.00  0.00    +0.000 A 
ATOM      5  C   UNL     1       5.064   5.335  17.659  0.00  0.00    +0.000 A 
ATOM      6  C   UNL     1       4.128   6.266  18.127  0.00  0.00    +0.000 A 
ENDROOT
BRANCH   1   9
ATOM      7  O   UNL     1       2.581   8.599  18.000  0.00  0.00    +0.000 OA
ATOM      8  C   UNL     1       2.055   8.152  19.015  0.00  0.00    +0.000 C 
ATOM      9  N   UNL     1       2.310   6.897  19.551  0.00  0.00    +0.000 N 
ATOM     10  H   UNL     1       1.764   6.678  20.376  0.00  0.00    +0.000 HD
BRANCH   8  11
ATOM     11  C   UNL     1       1.104   8.940  19.811  0.00  0.00    +0.000 A 
ATOM     12  C   UNL     1       0.316  10.004  19.409  0.00  0.00    +0.000 A 
ATOM     13  C   UNL     1      -0.390  10.636  20.497  0.00  0.00    +0.000 A 
ATOM     14  C   UNL     1      -1.225  11.775  20.543  0.00  0.00    +0.000 A 
ATOM     15  F   UNL     1      -1.518  12.441  19.416  0.00  0.00    +0.000 F 
ATOM     16  C   UNL     1      -1.739  12.252  21.753  0.00  0.00    +0.000 A 
ATOM     17  C   UNL     1      -1.452  11.592  22.939  0.00  0.00    +0.000 A 
ATOM     18  C   UNL     1      -0.665  10.440  22.928  0.00  0.00    +0.000 A 
ATOM     19  C   UNL     1      -0.137   9.982  21.704  0.00  0.00    +0.000 A 
ATOM     20  S   UNL     1       0.867   8.614  21.478  0.00  0.00    +0.000 S 
ENDBRANCH   8  11
ENDBRANCH   1   9
BRANCH   5  21
ATOM     21  S   UNL     1       6.137   5.774  16.304  0.00  0.00    +0.000 S 
ATOM     22  O   UNL     1       5.558   6.908  15.620  0.00  0.00    +0.000 OA
ATOM     23  O   UNL     1       7.487   5.809  16.819  0.00  0.00    +0.000 OA
BRANCH  21  24
ATOM     24  N   UNL     1       6.040   4.445  15.318  0.00  0.00    +0.000 N 
ATOM     25  C   UNL     1       6.500   4.292  14.016  0.00  0.00    +0.000 C 
ATOM     26  N   UNL     1       5.961   3.375  13.283  0.00  0.00    +0.000 NA
ATOM     27  C   UNL     1       6.651   3.468  11.979  0.00  0.00    +0.000 C 
ATOM     28  C   UNL     1       7.343   4.821  11.968  0.00  0.00    +0.000 C 
ATOM     29  C   UNL     1       7.633   5.063  13.431  0.00  0.00    +0.000 C 
ATOM     30  H   UNL     1       5.398   3.731  15.652  0.00  0.00    +0.000 HD
ENDBRANCH  21  24
ENDBRANCH   5  21
TORSDOF 4
ENDMDL
MODEL 9
REMARK VINA RESULT:      -9.0      1.886      2.528
REMARK  Name = 
REMARK  4 active torsions:
REMARK  status: ('A' for Active; 'I' for Inactive)
REMARK    1  A    between atoms: C_2  and  C_19
REMARK    2  A    between atoms: N_3  and  C_4
REMARK    3  A    between atoms: C_8  and  S_9
REMARK    4  A    between atoms: S_9  and  N_12
REMARK                            x       y       z     vdW  Elec       q    Type
REMARK                         _______ _______ _______ _____ _____    ______ ____
ROOT
ATOM      1  C   UNL     1       2.978   5.256  18.478  0.00  0.00    +0.000 A 
ATOM      2  C   UNL     1       2.806   3.989  19.035  0.00  0.00    +0.000 A 
ATOM      3  C   UNL     1       3.454   2.879  18.479  0.00  0.00    +0.000 A 
ATOM      4  C   UNL     1       4.282   3.029  17.369  0.00  0.00    +0.000 A 
ATOM      5  C   UNL     1       4.502   4.299  16.844  0.00  0.00    +0.000 A 
ATOM      6  C   UNL     1       3.839   5.410  17.380  0.00  0.00    +0.000 A 
ENDROOT
BRANCH   1   9
ATOM      7  O   UNL     1       3.055   8.091  17.512  0.00  0.00    +0.000 OA
ATOM      8  C   UNL     1       2.404   7.724  18.487  0.00  0.00    +0.000 C 
ATOM      9  N   UNL     1       2.309   6.411  18.925  0.00  0.00    +0.000 N 
ATOM     10  H   UNL     1       1.704   6.283  19.728  0.00  0.00    +0.000 HD
BRANCH   8  11
ATOM     11  C   UNL     1       1.671   8.674  19.336  0.00  0.00    +0.000 A 
ATOM     12  C   UNL     1       1.414   8.599  20.693  0.00  0.00    +0.000 A 
ATOM     13  C   UNL     1       0.534   9.639  21.167  0.00  0.00    +0.000 A 
ATOM     14  C   UNL     1      -0.034   9.886  22.438  0.00  0.00    +0.000 A 
ATOM     15  F   UNL     1       0.271   9.095  23.476  0.00  0.00    +0.000 F 
ATOM     16  C   UNL     1      -0.941  10.931  22.638  0.00  0.00    +0.000 A 
ATOM     17  C   UNL     1      -1.285  11.766  21.584  0.00  0.00    +0.000 A 
ATOM     18  C   UNL     1      -0.714  11.578  20.325  0.00  0.00    +0.000 A 
ATOM     19  C   UNL     1       0.184  10.509  20.133  0.00  0.00    +0.000 A 
ATOM     20  S   UNL     1       0.970  10.092  18.670  0.00  0.00    +0.000 S 
ENDBRANCH   8  11
ENDBRANCH   1   9
BRANCH   5  21
ATOM     21  S   UNL     1       5.561   4.509  15.425  0.00  0.00    +0.000 S 
ATOM     22  O   UNL     1       6.434   3.360  15.340  0.00  0.00    +0.000 OA
ATOM     23  O   UNL     1       4.721   4.905  14.317  0.00  0.00    +0.000 OA
BRANCH  21  24
ATOM     24  N   UNL     1       6.462   5.839  15.837  0.00  0.00    +0.000 N 
ATOM     25  C   UNL     1       7.147   6.094  17.018  0.00  0.00    +0.000 C 
ATOM     26  N   UNL     1       7.410   7.323  17.316  0.00  0.00    +0.000 NA
ATOM     27  C   UNL     1       8.128   7.262  18.607  0.00  0.00    +0.000 C 
ATOM     28  C   UNL     1       7.857   5.876  19.171  0.00  0.00    +0.000 C 
ATOM     29  C   UNL     1       7.674   5.037  17.928  0.00  0.00    +0.000 C 
ATOM     30  H   UNL     1       6.329   6.632  15.216  0.00  0.00    +0.000 HD
ENDBRANCH  21  24
ENDBRANCH   5  21
TORSDOF 4
ENDMDL
