MODEL 1
REMARK VINA RESULT:      -9.1      0.000      0.000
REMARK  Name = 
REMARK  6 active torsions:
REMARK  status: ('A' for Active; 'I' for Inactive)
REMARK    1  A    between atoms: C_2  and  C_18
REMARK    2  A    between atoms: N_3  and  CA_4
REMARK    3  A    between atoms: CA_4  and  CB_5
REMARK    4  A    between atoms: CA_4  and  C_15
REMARK    5  A    between atoms: CB_5  and  CG_6
REMARK    6  A    between atoms: C_15  and  OXT_17
REMARK                            x       y       z     vdW  Elec       q    Type
REMARK                         _______ _______ _______ _____ _____    ______ ____
ROOT
ATOM      1  CA  TRP A   1       2.807   3.537  17.321  0.00  0.00    +0.000 C 
ENDROOT
BRANCH   1   4
ATOM      2  O   UNK A   0       3.332   4.259  19.905  0.00  0.00    +0.000 OA
ATOM      3  C   UNK A   0       2.863   5.143  19.182  0.00  0.00    +0.000 C 
ATOM      4  N   TRP A   1       2.546   4.875  17.878  0.00  0.00    +0.000 N 
ATOM      5  H   TRP A   1       2.366   5.624  17.217  0.00  0.00    +0.000 HD
BRANCH   3   6
ATOM      6  C   UNK A   0       2.634   6.572  19.679  0.00  0.00    +0.000 C 
ATOM      7  C   UNK A   0       1.440   6.540  20.646  0.00  0.00    +0.000 C 
ATOM      8  C   UNK A   0       1.177   7.894  21.279  0.00  0.00    +0.000 C 
ATOM      9  C   UNK A   0       1.124   9.002  20.267  0.00  0.00    +0.000 A 
ATOM     10  C   UNK A   0       0.500  10.207  20.631  0.00  0.00    +0.000 A 
ATOM     11  C   UNK A   0       0.440  11.274  19.741  0.00  0.00    +0.000 A 
ATOM     12  C   UNK A   0       1.016  11.149  18.480  0.00  0.00    +0.000 A 
ATOM     13  C   UNK A   0       1.646   9.957  18.109  0.00  0.00    +0.000 A 
ATOM     14  C   UNK A   0       1.717   8.871  18.997  0.00  0.00    +0.000 A 
ATOM     15  C   UNK A   0       2.351   7.566  18.542  0.00  0.00    +0.000 C 
ENDBRANCH   3   6
ENDBRANCH   1   4
BRANCH   1  16
ATOM     16  C   TRP A   1       2.030   2.469  18.094  0.00  0.00    +0.000 C 
ATOM     17  O   TRP A   1       0.809   2.512  18.263  0.00  0.00    +0.000 OA
BRANCH  16  18
ATOM     18  OXT TRP A   1       2.766   1.441  18.554  0.00  0.00    +0.000 OA
ATOM     19  HXT TRP A   1       2.262   0.665  18.876  0.00  0.00    +0.000 HD
ENDBRANCH  16  18
ENDBRANCH   1  16
BRANCH   1  20
ATOM     20  CB  TRP A   1       4.299   3.220  17.222  0.00  0.00    +0.000 C 
BRANCH  20  21
ATOM     21  CG  TRP A   1       5.181   4.339  16.749  0.00  0.00    +0.000 A 
ATOM     22  CD1 TRP A   1       5.194   4.898  15.485  0.00  0.00    +0.000 A 
ATOM     23  NE1 TRP A   1       5.913   6.059  15.542  0.00  0.00    +0.000 N 
ATOM     24  CE2 TRP A   1       6.540   6.163  16.759  0.00  0.00    +0.000 A 
ATOM     25  CZ2 TRP A   1       7.419   7.142  17.232  0.00  0.00    +0.000 A 
ATOM     26  CH2 TRP A   1       7.983   6.947  18.494  0.00  0.00    +0.000 A 
ATOM     27  CZ3 TRP A   1       7.645   5.837  19.265  0.00  0.00    +0.000 A 
ATOM     28  CE3 TRP A   1       6.703   4.907  18.807  0.00  0.00    +0.000 A 
ATOM     29  CD2 TRP A   1       6.144   5.064  17.521  0.00  0.00    +0.000 A 
ATOM     30  HE1 TRP A   1       6.003   6.727  14.789  0.00  0.00    +0.000 HD
ENDBRANCH  20  21
ENDBRANCH   1  20
TORSDOF 6
ENDMDL
MODEL 2
REMARK VINA RESULT:      -8.8      2.804      4.687
REMARK  Name = 
REMARK  6 active torsions:
REMARK  status: ('A' for Active; 'I' for Inactive)
REMARK    1  A    between atoms: C_2  and  C_18
REMARK    2  A    between atoms: N_3  and  CA_4
REMARK    3  A    between atoms: CA_4  and  CB_5
REMARK    4  A    between atoms: CA_4  and  C_15
REMARK    5  A    between atoms: CB_5  and  CG_6
REMARK    6  A    between atoms: C_15  and  OXT_17
REMARK                            x       y       z     vdW  Elec       q    Type
REMARK                         _______ _______ _______ _____ _____    ______ ____
ROOT
ATOM      1  CA  TRP A   1       4.183   6.644  17.561  0.00  0.00    +0.000 C 
ENDROOT
BRANCH   1   4
ATOM      2  O   UNK A   0       2.532   7.309  19.636  0.00  0.00    +0.000 OA
ATOM      3  C   UNK A   0       2.439   8.012  18.626  0.00  0.00    +0.000 C 
ATOM      4  N   TRP A   1       3.207   7.746  17.525  0.00  0.00    +0.000 N 
ATOM      5  H   TRP A   1       3.305   8.425  16.777  0.00  0.00    +0.000 HD
BRANCH   3   6
ATOM      6  C   UNK A   0       1.497   9.215  18.549  0.00  0.00    +0.000 C 
ATOM      7  C   UNK A   0       0.997   9.502  19.974  0.00  0.00    +0.000 C 
ATOM      8  C   UNK A   0       0.122  10.741  20.037  0.00  0.00    +0.000 C 
ATOM      9  C   UNK A   0      -0.956  10.738  18.991  0.00  0.00    +0.000 A 
ATOM     10  C   UNK A   0      -2.064  11.582  19.175  0.00  0.00    +0.000 A 
ATOM     11  C   UNK A   0      -3.082  11.636  18.228  0.00  0.00    +0.000 A 
ATOM     12  C   UNK A   0      -2.994  10.854  17.081  0.00  0.00    +0.000 A 
ATOM     13  C   UNK A   0      -1.892  10.014  16.884  0.00  0.00    +0.000 A 
ATOM     14  C   UNK A   0      -0.856   9.950  17.829  0.00  0.00    +0.000 A 
ATOM     15  C   UNK A   0       0.296   8.981  17.618  0.00  0.00    +0.000 C 
ENDBRANCH   3   6
ENDBRANCH   1   4
BRANCH   1  16
ATOM     16  C   TRP A   1       5.372   6.946  16.646  0.00  0.00    +0.000 C 
ATOM     17  O   TRP A   1       6.480   7.284  17.069  0.00  0.00    +0.000 OA
BRANCH  16  18
ATOM     18  OXT TRP A   1       5.144   6.780  15.330  0.00  0.00    +0.000 OA
ATOM     19  HXT TRP A   1       5.376   7.540  14.757  0.00  0.00    +0.000 HD
ENDBRANCH  16  18
ENDBRANCH   1  16
BRANCH   1  20
ATOM     20  CB  TRP A   1       3.548   5.285  17.268  0.00  0.00    +0.000 C 
BRANCH  20  21
ATOM     21  CG  TRP A   1       3.764   4.220  18.303  0.00  0.00    +0.000 A 
ATOM     22  CD1 TRP A   1       4.927   3.502  18.515  0.00  0.00    +0.000 A 
ATOM     23  NE1 TRP A   1       4.813   2.854  19.713  0.00  0.00    +0.000 N 
ATOM     24  CE2 TRP A   1       3.529   2.965  20.187  0.00  0.00    +0.000 A 
ATOM     25  CZ2 TRP A   1       2.946   2.414  21.332  0.00  0.00    +0.000 A 
ATOM     26  CH2 TRP A   1       1.579   2.622  21.523  0.00  0.00    +0.000 A 
ATOM     27  CZ3 TRP A   1       0.838   3.386  20.625  0.00  0.00    +0.000 A 
ATOM     28  CE3 TRP A   1       1.455   3.994  19.524  0.00  0.00    +0.000 A 
ATOM     29  CD2 TRP A   1       2.828   3.772  19.290  0.00  0.00    +0.000 A 
ATOM     30  HE1 TRP A   1       5.551   2.336  20.168  0.00  0.00    +0.000 HD
ENDBRANCH  20  21
ENDBRANCH   1  20
TORSDOF 6
ENDMDL
MODEL 3
REMARK VINA RESULT:      -8.7      4.584      7.475
REMARK  Name = 
REMARK  6 active torsions:
REMARK  status: ('A' for Active; 'I' for Inactive)
REMARK    1  A    between atoms: C_2  and  C_18
REMARK    2  A    between atoms: N_3  and  CA_4
REMARK    3  A    between atoms: CA_4  and  CB_5
REMARK    4  A    between atoms: CA_4  and  C_15
REMARK    5  A    between atoms: CB_5  and  CG_6
REMARK    6  A    between atoms: C_15  and  OXT_17
REMARK                            x       y       z     vdW  Elec       q    Type
REMARK                         _______ _______ _______ _____ _____    ______ ____
ROOT
ATOM      1  CA  TRP A   1       7.510   6.918  18.524  0.00  0.00    +0.000 C 
ENDROOT
BRANCH   1   4
ATOM      2  O   UNK A   0       7.504   9.548  17.778  0.00  0.00    +0.000 OA
ATOM      3  C   UNK A   0       8.503   9.163  18.392  0.00  0.00    +0.000 C 
ATOM      4  N   TRP A   1       8.611   7.858  18.790  0.00  0.00    +0.000 N 
ATOM      5  H   TRP A   1       9.308   7.574  19.470  0.00  0.00    +0.000 HD
BRANCH   3   6
ATOM      6  C   UNK A   0       9.649  10.106  18.762  0.00  0.00    +0.000 C 
ATOM      7  C   UNK A   0       9.279  10.786  20.090  0.00  0.00    +0.000 C 
ATOM      8  C   UNK A   0      10.391  11.680  20.608  0.00  0.00    +0.000 C 
ATOM      9  C   UNK A   0      10.911  12.618  19.556  0.00  0.00    +0.000 A 
ATOM     10  C   UNK A   0      11.627  13.753  19.973  0.00  0.00    +0.000 A 
ATOM     11  C   UNK A   0      12.150  14.645  19.042  0.00  0.00    +0.000 A 
ATOM     12  C   UNK A   0      11.972  14.402  17.684  0.00  0.00    +0.000 A 
ATOM     13  C   UNK A   0      11.267  13.271  17.257  0.00  0.00    +0.000 A 
ATOM     14  C   UNK A   0      10.734  12.361  18.184  0.00  0.00    +0.000 A 
ATOM     15  C   UNK A   0       9.918  11.177  17.692  0.00  0.00    +0.000 C 
ENDBRANCH   3   6
ENDBRANCH   1   4
BRANCH   1  16
ATOM     16  C   TRP A   1       7.664   5.653  19.372  0.00  0.00    +0.000 C 
ATOM     17  O   TRP A   1       8.723   5.029  19.467  0.00  0.00    +0.000 OA
BRANCH  16  18
ATOM     18  OXT TRP A   1       6.564   5.277  20.052  0.00  0.00    +0.000 OA
ATOM     19  HXT TRP A   1       6.216   5.930  20.694  0.00  0.00    +0.000 HD
ENDBRANCH  16  18
ENDBRANCH   1  16
BRANCH   1  20
ATOM     20  CB  TRP A   1       7.343   6.610  17.036  0.00  0.00    +0.000 C 
BRANCH  20  21
ATOM     21  CG  TRP A   1       6.405   5.489  16.696  0.00  0.00    +0.000 A 
ATOM     22  CD1 TRP A   1       6.715   4.346  15.982  0.00  0.00    +0.000 A 
ATOM     23  NE1 TRP A   1       5.687   3.457  16.139  0.00  0.00    +0.000 N 
ATOM     24  CE2 TRP A   1       4.628   4.070  16.763  0.00  0.00    +0.000 A 
ATOM     25  CZ2 TRP A   1       3.359   3.570  17.069  0.00  0.00    +0.000 A 
ATOM     26  CH2 TRP A   1       2.438   4.454  17.635  0.00  0.00    +0.000 A 
ATOM     27  CZ3 TRP A   1       2.790   5.771  17.918  0.00  0.00    +0.000 A 
ATOM     28  CE3 TRP A   1       4.091   6.233  17.675  0.00  0.00    +0.000 A 
ATOM     29  CD2 TRP A   1       5.030   5.369  17.074  0.00  0.00    +0.000 A 
ATOM     30  HE1 TRP A   1       5.688   2.502  15.812  0.00  0.00    +0.000 HD
ENDBRANCH  20  21
ENDBRANCH   1  20
TORSDOF 6
ENDMDL
MODEL 4
REMARK VINA RESULT:      -8.6      1.010      1.207
REMARK  Name = 
REMARK  6 active torsions:
REMARK  status: ('A' for Active; 'I' for Inactive)
REMARK    1  A    between atoms: C_2  and  C_18
REMARK    2  A    between atoms: N_3  and  CA_4
REMARK    3  A    between atoms: CA_4  and  CB_5
REMARK    4  A    between atoms: CA_4  and  C_15
REMARK    5  A    between atoms: CB_5  and  CG_6
REMARK    6  A    between atoms: C_15  and  OXT_17
REMARK                            x       y       z     vdW  Elec       q    Type
REMARK                         _______ _______ _______ _____ _____    ______ ____
ROOT
ATOM      1  CA  TRP A   1       3.732   3.357  18.164  0.00  0.00    +0.000 C 
ENDROOT
BRANCH   1   4
ATOM      2  O   UNK A   0       1.673   5.100  17.721  0.00  0.00    +0.000 OA
ATOM      3  C   UNK A   0       2.543   5.482  18.508  0.00  0.00    +0.000 C 
ATOM      4  N   TRP A   1       3.627   4.691  18.779  0.00  0.00    +0.000 N 
ATOM      5  H   TRP A   1       4.232   4.884  19.570  0.00  0.00    +0.000 HD
BRANCH   3   6
ATOM      6  C   UNK A   0       2.457   6.825  19.235  0.00  0.00    +0.000 C 
ATOM      7  C   UNK A   0       1.442   6.668  20.379  0.00  0.00    +0.000 C 
ATOM      8  C   UNK A   0       1.342   7.919  21.233  0.00  0.00    +0.000 C 
ATOM      9  C   UNK A   0       1.161   9.163  20.413  0.00  0.00    +0.000 A 
ATOM     10  C   UNK A   0       0.653  10.310  21.047  0.00  0.00    +0.000 A 
ATOM     11  C   UNK A   0       0.485  11.496  20.341  0.00  0.00    +0.000 A 
ATOM     12  C   UNK A   0       0.834  11.550  18.995  0.00  0.00    +0.000 A 
ATOM     13  C   UNK A   0       1.347  10.416  18.355  0.00  0.00    +0.000 A 
ATOM     14  C   UNK A   0       1.525   9.212  19.054  0.00  0.00    +0.000 A 
ATOM     15  C   UNK A   0       2.023   7.980  18.316  0.00  0.00    +0.000 C 
ENDBRANCH   3   6
ENDBRANCH   1   4
BRANCH   1  16
ATOM     16  C   TRP A   1       4.015   2.294  19.228  0.00  0.00    +0.000 C 
ATOM     17  O   TRP A   1       3.907   2.503  20.438  0.00  0.00    +0.000 OA
BRANCH  16  18
ATOM     18  OXT TRP A   1       4.357   1.081  18.753  0.00  0.00    +0.000 OA
ATOM     19  HXT TRP A   1       4.712   0.449  19.413  0.00  0.00    +0.000 HD
ENDBRANCH  16  18
ENDBRANCH   1  16
BRANCH   1  20
ATOM     20  CB  TRP A   1       4.737   3.317  17.013  0.00  0.00    +0.000 C 
BRANCH  20  21
ATOM     21  CG  TRP A   1       5.403   4.618  16.673  0.00  0.00    +0.000 A 
ATOM     22  CD1 TRP A   1       5.156   5.403  15.562  0.00  0.00    +0.000 A 
ATOM     23  NE1 TRP A   1       5.740   6.622  15.766  0.00  0.00    +0.000 N 
ATOM     24  CE2 TRP A   1       6.534   6.580  16.886  0.00  0.00    +0.000 A 
ATOM     25  CZ2 TRP A   1       7.361   7.566  17.434  0.00  0.00    +0.000 A 
ATOM     26  CH2 TRP A   1       8.132   7.216  18.544  0.00  0.00    +0.000 A 
ATOM     27  CZ3 TRP A   1       8.045   5.944  19.104  0.00  0.00    +0.000 A 
ATOM     28  CE3 TRP A   1       7.153   4.994  18.588  0.00  0.00    +0.000 A 
ATOM     29  CD2 TRP A   1       6.388   5.312  17.447  0.00  0.00    +0.000 A 
ATOM     30  HE1 TRP A   1       5.637   7.426  15.163  0.00  0.00    +0.000 HD
ENDBRANCH  20  21
ENDBRANCH   1  20
TORSDOF 6
ENDMDL
MODEL 5
REMARK VINA RESULT:      -8.6      4.001      6.631
REMARK  Name = 
REMARK  6 active torsions:
REMARK  status: ('A' for Active; 'I' for Inactive)
REMARK    1  A    between atoms: C_2  and  C_18
REMARK    2  A    between atoms: N_3  and  CA_4
REMARK    3  A    between atoms: CA_4  and  CB_5
REMARK    4  A    between atoms: CA_4  and  C_15
REMARK    5  A    between atoms: CB_5  and  CG_6
REMARK    6  A    between atoms: C_15  and  OXT_17
REMARK                            x       y       z     vdW  Elec       q    Type
REMARK                         _______ _______ _______ _____ _____    ______ ____
ROOT
ATOM      1  CA  TRP A   1       6.472   6.428  16.998  0.00  0.00    +0.000 C 
ENDROOT
BRANCH   1   4
ATOM      2  O   UNK A   0       8.311   7.199  18.868  0.00  0.00    +0.000 OA
ATOM      3  C   UNK A   0       8.036   8.037  18.004  0.00  0.00    +0.000 C 
ATOM      4  N   TRP A   1       7.110   7.754  17.036  0.00  0.00    +0.000 N 
ATOM      5  H   TRP A   1       7.027   8.331  16.206  0.00  0.00    +0.000 HD
BRANCH   3   6
ATOM      6  C   UNK A   0       8.715   9.406  17.945  0.00  0.00    +0.000 C 
ATOM      7  C   UNK A   0       9.270   9.708  19.347  0.00  0.00    +0.000 C 
ATOM      8  C   UNK A   0      10.052  11.009  19.387  0.00  0.00    +0.000 C 
ATOM      9  C   UNK A   0       9.304  12.149  18.758  0.00  0.00    +0.000 A 
ATOM     10  C   UNK A   0       9.701  13.459  19.075  0.00  0.00    +0.000 A 
ATOM     11  C   UNK A   0       9.059  14.554  18.505  0.00  0.00    +0.000 A 
ATOM     12  C   UNK A   0       8.020  14.347  17.603  0.00  0.00    +0.000 A 
ATOM     13  C   UNK A   0       7.621  13.046  17.274  0.00  0.00    +0.000 A 
ATOM     14  C   UNK A   0       8.261  11.931  17.839  0.00  0.00    +0.000 A 
ATOM     15  C   UNK A   0       7.762  10.533  17.513  0.00  0.00    +0.000 C 
ENDBRANCH   3   6
ENDBRANCH   1   4
BRANCH   1  16
ATOM     16  C   TRP A   1       7.369   5.418  16.278  0.00  0.00    +0.000 C 
ATOM     17  O   TRP A   1       7.909   4.468  16.848  0.00  0.00    +0.000 OA
BRANCH  16  18
ATOM     18  OXT TRP A   1       7.504   5.610  14.952  0.00  0.00    +0.000 OA
ATOM     19  HXT TRP A   1       7.508   4.800  14.402  0.00  0.00    +0.000 HD
ENDBRANCH  16  18
ENDBRANCH   1  16
BRANCH   1  20
ATOM     20  CB  TRP A   1       5.056   6.470  16.423  0.00  0.00    +0.000 C 
BRANCH  20  21
ATOM     21  CG  TRP A   1       3.950   6.103  17.367  0.00  0.00    +0.000 A 
ATOM     22  CD1 TRP A   1       3.214   6.972  18.151  0.00  0.00    +0.000 A 
ATOM     23  NE1 TRP A   1       2.130   6.294  18.635  0.00  0.00    +0.000 N 
ATOM     24  CE2 TRP A   1       2.253   4.954  18.357  0.00  0.00    +0.000 A 
ATOM     25  CZ2 TRP A   1       1.422   3.887  18.711  0.00  0.00    +0.000 A 
ATOM     26  CH2 TRP A   1       1.842   2.602  18.365  0.00  0.00    +0.000 A 
ATOM     27  CZ3 TRP A   1       3.024   2.401  17.657  0.00  0.00    +0.000 A 
ATOM     28  CE3 TRP A   1       3.804   3.488  17.243  0.00  0.00    +0.000 A 
ATOM     29  CD2 TRP A   1       3.419   4.795  17.609  0.00  0.00    +0.000 A 
ATOM     30  HE1 TRP A   1       1.369   6.707  19.154  0.00  0.00    +0.000 HD
ENDBRANCH  20  21
ENDBRANCH   1  20
TORSDOF 6
ENDMDL
MODEL 6
REMARK VINA RESULT:      -8.6      4.022      6.552
REMARK  Name = 
REMARK  6 active torsions:
REMARK  status: ('A' for Active; 'I' for Inactive)
REMARK    1  A    between atoms: C_2  and  C_18
REMARK    2  A    between atoms: N_3  and  CA_4
REMARK    3  A    between atoms: CA_4  and  CB_5
REMARK    4  A    between atoms: CA_4  and  C_15
REMARK    5  A    between atoms: CB_5  and  CG_6
REMARK    6  A    between atoms: C_15  and  OXT_17
REMARK                            x       y       z     vdW  Elec       q    Type
REMARK                         _______ _______ _______ _____ _____    ______ ____
ROOT
ATOM      1  CA  TRP A   1       6.480   6.456  17.134  0.00  0.00    +0.000 C 
ENDROOT
BRANCH   1   4
ATOM      2  O   UNK A   0       8.404   7.249  18.907  0.00  0.00    +0.000 OA
ATOM      3  C   UNK A   0       8.076   8.083  18.059  0.00  0.00    +0.000 C 
ATOM      4  N   TRP A   1       7.105   7.789  17.139  0.00  0.00    +0.000 N 
ATOM      5  H   TRP A   1       6.973   8.365  16.314  0.00  0.00    +0.000 HD
BRANCH   3   6
ATOM      6  C   UNK A   0       8.736   9.460  17.965  0.00  0.00    +0.000 C 
ATOM      7  C   UNK A   0       9.322   9.786  19.348  0.00  0.00    +0.000 C 
ATOM      8  C   UNK A   0      10.088  11.097  19.352  0.00  0.00    +0.000 C 
ATOM      9  C   UNK A   0       9.310  12.220  18.728  0.00  0.00    +0.000 A 
ATOM     10  C   UNK A   0       9.698  13.539  19.018  0.00  0.00    +0.000 A 
ATOM     11  C   UNK A   0       9.027  14.618  18.452  0.00  0.00    +0.000 A 
ATOM     12  C   UNK A   0       7.969  14.387  17.579  0.00  0.00    +0.000 A 
ATOM     13  C   UNK A   0       7.578  13.077  17.278  0.00  0.00    +0.000 A 
ATOM     14  C   UNK A   0       8.246  11.978  17.840  0.00  0.00    +0.000 A 
ATOM     15  C   UNK A   0       7.757  10.569  17.544  0.00  0.00    +0.000 C 
ENDBRANCH   3   6
ENDBRANCH   1   4
BRANCH   1  16
ATOM     16  C   TRP A   1       7.273   5.493  16.247  0.00  0.00    +0.000 C 
ATOM     17  O   TRP A   1       7.389   5.637  15.028  0.00  0.00    +0.000 OA
BRANCH  16  18
ATOM     18  OXT TRP A   1       7.882   4.482  16.896  0.00  0.00    +0.000 OA
ATOM     19  HXT TRP A   1       8.795   4.659  17.201  0.00  0.00    +0.000 HD
ENDBRANCH  16  18
ENDBRANCH   1  16
BRANCH   1  20
ATOM     20  CB  TRP A   1       4.996   6.501  16.770  0.00  0.00    +0.000 C 
BRANCH  20  21
ATOM     21  CG  TRP A   1       4.155   5.375  17.294  0.00  0.00    +0.000 A 
ATOM     22  CD1 TRP A   1       4.099   4.087  16.793  0.00  0.00    +0.000 A 
ATOM     23  NE1 TRP A   1       3.454   3.304  17.709  0.00  0.00    +0.000 N 
ATOM     24  CE2 TRP A   1       2.907   4.087  18.695  0.00  0.00    +0.000 A 
ATOM     25  CZ2 TRP A   1       2.116   3.726  19.791  0.00  0.00    +0.000 A 
ATOM     26  CH2 TRP A   1       1.619   4.754  20.593  0.00  0.00    +0.000 A 
ATOM     27  CZ3 TRP A   1       1.937   6.085  20.332  0.00  0.00    +0.000 A 
ATOM     28  CE3 TRP A   1       2.794   6.422  19.275  0.00  0.00    +0.000 A 
ATOM     29  CD2 TRP A   1       3.283   5.404  18.430  0.00  0.00    +0.000 A 
ATOM     30  HE1 TRP A   1       3.358   2.299  17.652  0.00  0.00    +0.000 HD
ENDBRANCH  20  21
ENDBRANCH   1  20
TORSDOF 6
ENDMDL
MODEL 7
REMARK VINA RESULT:      -8.5      2.272      3.631
REMARK  Name = 
REMARK  6 active torsions:
REMARK  status: ('A' for Active; 'I' for Inactive)
REMARK    1  A    between atoms: C_2  and  C_18
REMARK    2  A    between atoms: N_3  and  CA_4
REMARK    3  A    between atoms: CA_4  and  CB_5
REMARK    4  A    between atoms: CA_4  and  C_15
REMARK    5  A    between atoms: CB_5  and  CG_6
REMARK    6  A    between atoms: C_15  and  OXT_17
REMARK                            x       y       z     vdW  Elec       q    Type
REMARK                         _______ _______ _______ _____ _____    ______ ____
ROOT
ATOM      1  CA  TRP A   1       2.221   5.698  20.059  0.00  0.00    +0.000 C 
ENDROOT
BRANCH   1   4
ATOM      2  O   UNK A   0       1.967   8.217  19.028  0.00  0.00    +0.000 OA
ATOM      3  C   UNK A   0       1.644   8.083  20.211  0.00  0.00    +0.000 C 
ATOM      4  N   TRP A   1       1.755   6.865  20.826  0.00  0.00    +0.000 N 
ATOM      5  H   TRP A   1       1.301   6.683  21.715  0.00  0.00    +0.000 HD
BRANCH   3   6
ATOM      6  C   UNK A   0       1.085   9.239  21.043  0.00  0.00    +0.000 C 
ATOM      7  C   UNK A   0       0.285   8.629  22.205  0.00  0.00    +0.000 C 
ATOM      8  C   UNK A   0      -0.243   9.688  23.157  0.00  0.00    +0.000 C 
ATOM      9  C   UNK A   0      -0.945  10.806  22.442  0.00  0.00    +0.000 A 
ATOM     10  C   UNK A   0      -1.820  11.621  23.180  0.00  0.00    +0.000 A 
ATOM     11  C   UNK A   0      -2.481  12.685  22.574  0.00  0.00    +0.000 A 
ATOM     12  C   UNK A   0      -2.263  12.950  21.226  0.00  0.00    +0.000 A 
ATOM     13  C   UNK A   0      -1.389  12.149  20.483  0.00  0.00    +0.000 A 
ATOM     14  C   UNK A   0      -0.713  11.073  21.080  0.00  0.00    +0.000 A 
ATOM     15  C   UNK A   0       0.180  10.181  20.232  0.00  0.00    +0.000 C 
ENDBRANCH   3   6
ENDBRANCH   1   4
BRANCH   1  16
ATOM     16  C   TRP A   1       1.586   4.412  20.595  0.00  0.00    +0.000 C 
ATOM     17  O   TRP A   1       0.644   3.843  20.041  0.00  0.00    +0.000 OA
BRANCH  16  18
ATOM     18  OXT TRP A   1       2.154   3.909  21.708  0.00  0.00    +0.000 OA
ATOM     19  HXT TRP A   1       3.064   3.564  21.603  0.00  0.00    +0.000 HD
ENDBRANCH  16  18
ENDBRANCH   1  16
BRANCH   1  20
ATOM     20  CB  TRP A   1       3.745   5.612  19.984  0.00  0.00    +0.000 C 
BRANCH  20  21
ATOM     21  CG  TRP A   1       4.303   4.754  18.886  0.00  0.00    +0.000 A 
ATOM     22  CD1 TRP A   1       4.483   3.384  18.923  0.00  0.00    +0.000 A 
ATOM     23  NE1 TRP A   1       4.732   2.954  17.649  0.00  0.00    +0.000 N 
ATOM     24  CE2 TRP A   1       4.925   4.032  16.820  0.00  0.00    +0.000 A 
ATOM     25  CZ2 TRP A   1       5.263   4.068  15.464  0.00  0.00    +0.000 A 
ATOM     26  CH2 TRP A   1       5.484   5.320  14.888  0.00  0.00    +0.000 A 
ATOM     27  CZ3 TRP A   1       5.330   6.488  15.632  0.00  0.00    +0.000 A 
ATOM     28  CE3 TRP A   1       4.915   6.435  16.970  0.00  0.00    +0.000 A 
ATOM     29  CD2 TRP A   1       4.718   5.181  17.583  0.00  0.00    +0.000 A 
ATOM     30  HE1 TRP A   1       4.804   1.988  17.364  0.00  0.00    +0.000 HD
ENDBRANCH  20  21
ENDBRANCH   1  20
TORSDOF 6
ENDMDL
MODEL 8
REMARK VINA RESULT:      -8.5      3.979      6.697
REMARK  Name = 
REMARK  6 active torsions:
REMARK  status: ('A' for Active; 'I' for Inactive)
REMARK    1  A    between atoms: C_2  and  C_18
REMARK    2  A    between atoms: N_3  and  CA_4
REMARK    3  A    between atoms: CA_4  and  CB_5
REMARK    4  A    between atoms: CA_4  and  C_15
REMARK    5  A    between atoms: CB_5  and  CG_6
REMARK    6  A    between atoms: C_15  and  OXT_17
REMARK                            x       y       z     vdW  Elec       q    Type
REMARK                         _______ _______ _______ _____ _____    ______ ____
ROOT
ATOM      1  CA  TRP A   1       6.383   6.422  17.130  0.00  0.00    +0.000 C 
ENDROOT
BRANCH   1   4
ATOM      2  O   UNK A   0       8.382   7.175  18.837  0.00  0.00    +0.000 OA
ATOM      3  C   UNK A   0       8.022   8.026  18.018  0.00  0.00    +0.000 C 
ATOM      4  N   TRP A   1       7.013   7.753  17.135  0.00  0.00    +0.000 N 
ATOM      5  H   TRP A   1       6.849   8.345  16.327  0.00  0.00    +0.000 HD
BRANCH   3   6
ATOM      6  C   UNK A   0       8.684   9.402  17.924  0.00  0.00    +0.000 C 
ATOM      7  C   UNK A   0       9.286   9.721  19.301  0.00  0.00    +0.000 C 
ATOM      8  C   UNK A   0      10.055  11.031  19.302  0.00  0.00    +0.000 C 
ATOM      9  C   UNK A   0       9.272  12.158  18.693  0.00  0.00    +0.000 A 
ATOM     10  C   UNK A   0       9.666  13.475  18.984  0.00  0.00    +0.000 A 
ATOM     11  C   UNK A   0       8.990  14.557  18.430  0.00  0.00    +0.000 A 
ATOM     12  C   UNK A   0       7.921  14.332  17.569  0.00  0.00    +0.000 A 
ATOM     13  C   UNK A   0       7.525  13.025  17.266  0.00  0.00    +0.000 A 
ATOM     14  C   UNK A   0       8.198  11.921  17.815  0.00  0.00    +0.000 A 
ATOM     15  C   UNK A   0       7.703  10.515  17.519  0.00  0.00    +0.000 C 
ENDBRANCH   3   6
ENDBRANCH   1   4
BRANCH   1  16
ATOM     16  C   TRP A   1       7.166   5.459  16.235  0.00  0.00    +0.000 C 
ATOM     17  O   TRP A   1       7.160   5.526  15.004  0.00  0.00    +0.000 OA
BRANCH  16  18
ATOM     18  OXT TRP A   1       7.906   4.541  16.885  0.00  0.00    +0.000 OA
ATOM     19  HXT TRP A   1       7.405   3.877  17.401  0.00  0.00    +0.000 HD
ENDBRANCH  16  18
ENDBRANCH   1  16
BRANCH   1  20
ATOM     20  CB  TRP A   1       4.897   6.474  16.778  0.00  0.00    +0.000 C 
BRANCH  20  21
ATOM     21  CG  TRP A   1       3.943   6.451  17.936  0.00  0.00    +0.000 A 
ATOM     22  CD1 TRP A   1       3.851   5.470  18.906  0.00  0.00    +0.000 A 
ATOM     23  NE1 TRP A   1       3.080   5.953  19.926  0.00  0.00    +0.000 N 
ATOM     24  CE2 TRP A   1       2.499   7.140  19.554  0.00  0.00    +0.000 A 
ATOM     25  CZ2 TRP A   1       1.594   7.950  20.247  0.00  0.00    +0.000 A 
ATOM     26  CH2 TRP A   1       1.094   9.071  19.582  0.00  0.00    +0.000 A 
ATOM     27  CZ3 TRP A   1       1.516   9.388  18.294  0.00  0.00    +0.000 A 
ATOM     28  CE3 TRP A   1       2.482   8.607  17.645  0.00  0.00    +0.000 A 
ATOM     29  CD2 TRP A   1       2.979   7.451  18.281  0.00  0.00    +0.000 A 
ATOM     30  HE1 TRP A   1       2.927   5.490  20.811  0.00  0.00    +0.000 HD
ENDBRANCH  20  21
ENDBRANCH   1  20
TORSDOF 6
ENDMDL
MODEL 9
REMARK VINA RESULT:      -8.5      1.680      2.751
REMARK  Name = 
REMARK  6 active torsions:
REMARK  status: ('A' for Active; 'I' for Inactive)
REMARK    1  A    between atoms: C_2  and  C_18
REMARK    2  A    between atoms: N_3  and  CA_4
REMARK    3  A    between atoms: CA_4  and  CB_5
REMARK    4  A    between atoms: CA_4  and  C_15
REMARK    5  A    between atoms: CB_5  and  CG_6
REMARK    6  A    between atoms: C_15  and  OXT_17
REMARK                            x       y       z     vdW  Elec       q    Type
REMARK                         _______ _______ _______ _____ _____    ______ ____
ROOT
ATOM      1  CA  TRP A   1       2.497   4.735  19.016  0.00  0.00    +0.000 C 
ENDROOT
BRANCH   1   4
ATOM      2  O   UNK A   0       2.690   7.268  18.006  0.00  0.00    +0.000 OA
ATOM      3  C   UNK A   0       2.282   7.180  19.168  0.00  0.00    +0.000 C 
ATOM      4  N   TRP A   1       2.171   5.956  19.772  0.00  0.00    +0.000 N 
ATOM      5  H   TRP A   1       1.645   5.841  20.631  0.00  0.00    +0.000 HD
BRANCH   3   6
ATOM      6  C   UNK A   0       1.859   8.404  19.982  0.00  0.00    +0.000 C 
ATOM      7  C   UNK A   0       1.166   7.895  21.256  0.00  0.00    +0.000 C 
ATOM      8  C   UNK A   0       0.783   9.027  22.193  0.00  0.00    +0.000 C 
ATOM      9  C   UNK A   0       0.051  10.133  21.489  0.00  0.00    +0.000 A 
ATOM     10  C   UNK A   0      -0.708  11.026  22.265  0.00  0.00    +0.000 A 
ATOM     11  C   UNK A   0      -1.390  12.082  21.668  0.00  0.00    +0.000 A 
ATOM     12  C   UNK A   0      -1.308  12.262  20.291  0.00  0.00    +0.000 A 
ATOM     13  C   UNK A   0      -0.549  11.383  19.510  0.00  0.00    +0.000 A 
ATOM     14  C   UNK A   0       0.146  10.314  20.097  0.00  0.00    +0.000 A 
ATOM     15  C   UNK A   0       0.909   9.338  19.215  0.00  0.00    +0.000 C 
ENDBRANCH   3   6
ENDBRANCH   1   4
BRANCH   1  16
ATOM     16  C   TRP A   1       1.313   3.765  19.023  0.00  0.00    +0.000 C 
ATOM     17  O   TRP A   1       1.049   3.017  18.080  0.00  0.00    +0.000 OA
BRANCH  16  18
ATOM     18  OXT TRP A   1       0.588   3.749  20.157  0.00  0.00    +0.000 OA
ATOM     19  HXT TRP A   1       1.100   3.711  20.991  0.00  0.00    +0.000 HD
ENDBRANCH  16  18
ENDBRANCH   1  16
BRANCH   1  20
ATOM     20  CB  TRP A   1       3.796   4.079  19.487  0.00  0.00    +0.000 C 
BRANCH  20  21
ATOM     21  CG  TRP A   1       5.054   4.563  18.829  0.00  0.00    +0.000 A 
ATOM     22  CD1 TRP A   1       6.143   5.138  19.458  0.00  0.00    +0.000 A 
ATOM     23  NE1 TRP A   1       7.180   5.168  18.568  0.00  0.00    +0.000 N 
ATOM     24  CE2 TRP A   1       6.735   4.819  17.317  0.00  0.00    +0.000 A 
ATOM     25  CZ2 TRP A   1       7.426   4.773  16.102  0.00  0.00    +0.000 A 
ATOM     26  CH2 TRP A   1       6.692   4.464  14.956  0.00  0.00    +0.000 A 
ATOM     27  CZ3 TRP A   1       5.333   4.171  15.032  0.00  0.00    +0.000 A 
ATOM     28  CE3 TRP A   1       4.674   4.146  16.269  0.00  0.00    +0.000 A 
ATOM     29  CD2 TRP A   1       5.386   4.488  17.438  0.00  0.00    +0.000 A 
ATOM     30  HE1 TRP A   1       8.127   5.443  18.787  0.00  0.00    +0.000 HD
ENDBRANCH  20  21
ENDBRANCH   1  20
TORSDOF 6
ENDMDL
