MODEL 1
REMARK VINA RESULT:      -8.7      0.000      0.000
REMARK  Name = 
REMARK  4 active torsions:
REMARK  status: ('A' for Active; 'I' for Inactive)
REMARK    1  A    between atoms: C_1  and  C_2
REMARK    2  A    between atoms: C_6  and  N_7
REMARK    3  A    between atoms: C_8  and  C_10
REMARK    4  A    between atoms: C_12  and  C_13
REMARK                            x       y       z     vdW  Elec       q    Type
REMARK                         _______ _______ _______ _____ _____    ______ ____
ROOT
ATOM      1  N   UNL     1       3.155   7.111  17.954  0.00  0.00    +0.000 N 
ATOM      2  C   UNL     1       3.941   6.116  18.519  0.00  0.00    +0.000 C 
ATOM      3  O   UNL     1       3.924   5.799  19.704  0.00  0.00    +0.000 OA
ATOM      4  H   UNL     1       3.161   7.170  16.941  0.00  0.00    +0.000 HD
ENDROOT
BRANCH   1  10
ATOM      5  C   UNL     1      -0.923  10.342  23.058  0.00  0.00    +0.000 C 
ATOM      6  C   UNL     1      -0.146   9.784  21.939  0.00  0.00    +0.000 A 
ATOM      7  N   UNL     1       0.691   8.764  21.945  0.00  0.00    +0.000 NA
ATOM      8  C   UNL     1       1.115   8.691  20.644  0.00  0.00    +0.000 A 
ATOM      9  C   UNL     1       2.007   7.813  20.021  0.00  0.00    +0.000 A 
ATOM     10  C   UNL     1       2.271   7.966  18.650  0.00  0.00    +0.000 A 
ATOM     11  C   UNL     1       1.655   9.006  17.929  0.00  0.00    +0.000 A 
ATOM     12  C   UNL     1       0.744   9.890  18.535  0.00  0.00    +0.000 A 
ATOM     13  C   UNL     1       0.516   9.686  19.891  0.00  0.00    +0.000 A 
ATOM     14  O   UNL     1      -0.306  10.392  20.718  0.00  0.00    +0.000 OA
ENDBRANCH   1  10
BRANCH   2  15
ATOM     15  C   UNL     1       4.774   5.404  17.584  0.00  0.00    +0.000 A 
ATOM     16  C   UNL     1       4.735   5.358  16.212  0.00  0.00    +0.000 A 
ATOM     17  C   UNL     1       5.869   4.596  15.836  0.00  0.00    +0.000 A 
ATOM     18  N   UNL     1       6.511   4.151  16.929  0.00  0.00    +0.000 NA
ATOM     19  O   UNL     1       5.823   4.656  18.018  0.00  0.00    +0.000 OA
BRANCH  17  20
ATOM     20  C   UNL     1       6.375   4.386  14.481  0.00  0.00    +0.000 A 
ATOM     21  C   UNL     1       7.401   5.200  13.976  0.00  0.00    +0.000 A 
ATOM     22  C   UNL     1       7.774   5.125  12.632  0.00  0.00    +0.000 A 
ATOM     23  C   UNL     1       7.134   4.225  11.783  0.00  0.00    +0.000 A 
ATOM     24  C   UNL     1       6.152   3.386  12.293  0.00  0.00    +0.000 A 
ATOM     25  F   UNL     1       5.536   2.520  11.479  0.00  0.00    +0.000 F 
ATOM     26  C   UNL     1       5.771   3.450  13.630  0.00  0.00    +0.000 A 
ENDBRANCH  17  20
ENDBRANCH   2  15
TORSDOF 3
ENDMDL
MODEL 2
REMARK VINA RESULT:      -8.5      1.774      2.505
REMARK  Name = 
REMARK  4 active torsions:
REMARK  status: ('A' for Active; 'I' for Inactive)
REMARK    1  A    between atoms: C_1  and  C_2
REMARK    2  A    between atoms: C_6  and  N_7
REMARK    3  A    between atoms: C_8  and  C_10
REMARK    4  A    between atoms: C_12  and  C_13
REMARK                            x       y       z     vdW  Elec       q    Type
REMARK                         _______ _______ _______ _____ _____    ______ ____
ROOT
ATOM      1  N   UNL     1       3.888   6.385  17.244  0.00  0.00    +0.000 N 
ATOM      2  C   UNL     1       5.233   6.635  17.007  0.00  0.00    +0.000 C 
ATOM      3  O   UNL     1       5.924   7.419  17.650  0.00  0.00    +0.000 OA
ATOM      4  H   UNL     1       3.477   5.610  16.736  0.00  0.00    +0.000 HD
ENDROOT
BRANCH   1  10
ATOM      5  C   UNL     1      -0.337  11.145  20.796  0.00  0.00    +0.000 C 
ATOM      6  C   UNL     1       0.505  10.101  20.188  0.00  0.00    +0.000 A 
ATOM      7  N   UNL     1       1.065  10.087  18.993  0.00  0.00    +0.000 NA
ATOM      8  C   UNL     1       1.727   8.887  18.966  0.00  0.00    +0.000 A 
ATOM      9  C   UNL     1       2.511   8.299  17.968  0.00  0.00    +0.000 A 
ATOM     10  C   UNL     1       3.080   7.036  18.203  0.00  0.00    +0.000 A 
ATOM     11  C   UNL     1       2.840   6.374  19.421  0.00  0.00    +0.000 A 
ATOM     12  C   UNL     1       2.066   6.956  20.442  0.00  0.00    +0.000 A 
ATOM     13  C   UNL     1       1.535   8.210  20.156  0.00  0.00    +0.000 A 
ATOM     14  O   UNL     1       0.754   8.989  20.955  0.00  0.00    +0.000 OA
ENDBRANCH   1  10
BRANCH   2  15
ATOM     15  C   UNL     1       5.815   5.845  15.952  0.00  0.00    +0.000 A 
ATOM     16  C   UNL     1       5.232   4.964  15.074  0.00  0.00    +0.000 A 
ATOM     17  C   UNL     1       6.271   4.582  14.190  0.00  0.00    +0.000 A 
ATOM     18  N   UNL     1       7.430   5.150  14.565  0.00  0.00    +0.000 NA
ATOM     19  O   UNL     1       7.140   5.936  15.666  0.00  0.00    +0.000 OA
BRANCH  17  20
ATOM     20  C   UNL     1       6.139   3.782  12.974  0.00  0.00    +0.000 A 
ATOM     21  C   UNL     1       4.867   3.449  12.483  0.00  0.00    +0.000 A 
ATOM     22  C   UNL     1       4.725   2.546  11.426  0.00  0.00    +0.000 A 
ATOM     23  C   UNL     1       5.855   1.978  10.842  0.00  0.00    +0.000 A 
ATOM     24  C   UNL     1       7.116   2.345  11.296  0.00  0.00    +0.000 A 
ATOM     25  F   UNL     1       8.203   1.801  10.735  0.00  0.00    +0.000 F 
ATOM     26  C   UNL     1       7.270   3.243  12.347  0.00  0.00    +0.000 A 
ENDBRANCH  17  20
ENDBRANCH   2  15
TORSDOF 3
ENDMDL
MODEL 3
REMARK VINA RESULT:      -8.4      4.480     10.924
REMARK  Name = 
REMARK  4 active torsions:
REMARK  status: ('A' for Active; 'I' for Inactive)
REMARK    1  A    between atoms: C_1  and  C_2
REMARK    2  A    between atoms: C_6  and  N_7
REMARK    3  A    between atoms: C_8  and  C_10
REMARK    4  A    between atoms: C_12  and  C_13
REMARK                            x       y       z     vdW  Elec       q    Type
REMARK                         _______ _______ _______ _____ _____    ______ ____
ROOT
ATOM      1  N   UNL     1       1.562   7.679  20.756  0.00  0.00    +0.000 N 
ATOM      2  C   UNL     1       0.996   8.869  20.318  0.00  0.00    +0.000 C 
ATOM      3  O   UNL     1       0.903   9.209  19.142  0.00  0.00    +0.000 OA
ATOM      4  H   UNL     1       1.442   7.458  21.739  0.00  0.00    +0.000 HD
ENDROOT
BRANCH   1  10
ATOM      5  C   UNL     1       5.482   4.272  15.643  0.00  0.00    +0.000 C 
ATOM      6  C   UNL     1       4.655   4.836  16.723  0.00  0.00    +0.000 A 
ATOM      7  N   UNL     1       4.454   6.103  17.030  0.00  0.00    +0.000 NA
ATOM      8  C   UNL     1       3.606   6.040  18.105  0.00  0.00    +0.000 A 
ATOM      9  C   UNL     1       3.029   7.055  18.874  0.00  0.00    +0.000 A 
ATOM     10  C   UNL     1       2.185   6.707  19.941  0.00  0.00    +0.000 A 
ATOM     11  C   UNL     1       1.948   5.352  20.234  0.00  0.00    +0.000 A 
ATOM     12  C   UNL     1       2.508   4.317  19.464  0.00  0.00    +0.000 A 
ATOM     13  C   UNL     1       3.328   4.722  18.416  0.00  0.00    +0.000 A 
ATOM     14  O   UNL     1       3.995   3.936  17.524  0.00  0.00    +0.000 OA
ENDBRANCH   1  10
BRANCH   2  15
ATOM     15  C   UNL     1       0.447   9.695  21.363  0.00  0.00    +0.000 A 
ATOM     16  C   UNL     1      -0.248  10.878  21.290  0.00  0.00    +0.000 A 
ATOM     17  C   UNL     1      -0.635  11.160  22.623  0.00  0.00    +0.000 A 
ATOM     18  N   UNL     1      -0.137  10.232  23.457  0.00  0.00    +0.000 NA
ATOM     19  O   UNL     1       0.539   9.321  22.666  0.00  0.00    +0.000 OA
BRANCH  17  20
ATOM     20  C   UNL     1      -1.532  12.224  23.069  0.00  0.00    +0.000 A 
ATOM     21  C   UNL     1      -1.041  13.524  23.271  0.00  0.00    +0.000 A 
ATOM     22  C   UNL     1      -1.842  14.505  23.859  0.00  0.00    +0.000 A 
ATOM     23  C   UNL     1      -3.147  14.200  24.239  0.00  0.00    +0.000 A 
ATOM     24  C   UNL     1      -3.649  12.928  23.995  0.00  0.00    +0.000 A 
ATOM     25  F   UNL     1      -4.904  12.634  24.359  0.00  0.00    +0.000 F 
ATOM     26  C   UNL     1      -2.862  11.942  23.410  0.00  0.00    +0.000 A 
ENDBRANCH  17  20
ENDBRANCH   2  15
TORSDOF 3
ENDMDL
MODEL 4
REMARK VINA RESULT:      -8.3      1.137      1.541
REMARK  Name = 
REMARK  4 active torsions:
REMARK  status: ('A' for Active; 'I' for Inactive)
REMARK    1  A    between atoms: C_1  and  C_2
REMARK    2  A    between atoms: C_6  and  N_7
REMARK    3  A    between atoms: C_8  and  C_10
REMARK    4  A    between atoms: C_12  and  C_13
REMARK                            x       y       z     vdW  Elec       q    Type
REMARK                         _______ _______ _______ _____ _____    ______ ____
ROOT
ATOM      1  N   UNL     1       3.336   7.016  18.024  0.00  0.00    +0.000 N 
ATOM      2  C   UNL     1       4.135   6.006  18.543  0.00  0.00    +0.000 C 
ATOM      3  O   UNL     1       4.091   5.605  19.703  0.00  0.00    +0.000 OA
ATOM      4  H   UNL     1       3.373   7.146  17.018  0.00  0.00    +0.000 HD
ENDROOT
BRANCH   1  10
ATOM      5  C   UNL     1      -1.481  12.081  20.086  0.00  0.00    +0.000 C 
ATOM      6  C   UNL     1      -0.525  11.000  19.794  0.00  0.00    +0.000 A 
ATOM      7  N   UNL     1       0.143  10.771  18.679  0.00  0.00    +0.000 NA
ATOM      8  C   UNL     1       0.877   9.651  18.971  0.00  0.00    +0.000 A 
ATOM      9  C   UNL     1       1.784   8.925  18.194  0.00  0.00    +0.000 A 
ATOM     10  C   UNL     1       2.405   7.793  18.748  0.00  0.00    +0.000 A 
ATOM     11  C   UNL     1       2.095   7.395  20.061  0.00  0.00    +0.000 A 
ATOM     12  C   UNL     1       1.196   8.121  20.864  0.00  0.00    +0.000 A 
ATOM     13  C   UNL     1       0.618   9.236  20.265  0.00  0.00    +0.000 A 
ATOM     14  O   UNL     1      -0.280  10.106  20.807  0.00  0.00    +0.000 OA
ENDBRANCH   1  10
BRANCH   2  15
ATOM     15  C   UNL     1       5.019   5.386  17.589  0.00  0.00    +0.000 A 
ATOM     16  C   UNL     1       4.876   5.193  16.237  0.00  0.00    +0.000 A 
ATOM     17  C   UNL     1       6.110   4.644  15.810  0.00  0.00    +0.000 A 
ATOM     18  N   UNL     1       6.921   4.452  16.864  0.00  0.00    +0.000 NA
ATOM     19  O   UNL     1       6.235   4.916  17.973  0.00  0.00    +0.000 OA
BRANCH  17  20
ATOM     20  C   UNL     1       6.533   4.403  14.432  0.00  0.00    +0.000 A 
ATOM     21  C   UNL     1       7.515   5.215  13.844  0.00  0.00    +0.000 A 
ATOM     22  C   UNL     1       7.805   5.109  12.481  0.00  0.00    +0.000 A 
ATOM     23  C   UNL     1       7.125   4.179  11.698  0.00  0.00    +0.000 A 
ATOM     24  C   UNL     1       6.188   3.343  12.289  0.00  0.00    +0.000 A 
ATOM     25  F   UNL     1       5.535   2.448  11.537  0.00  0.00    +0.000 F 
ATOM     26  C   UNL     1       5.891   3.438  13.645  0.00  0.00    +0.000 A 
ENDBRANCH  17  20
ENDBRANCH   2  15
TORSDOF 3
ENDMDL
MODEL 5
REMARK VINA RESULT:      -8.3      4.183     10.421
REMARK  Name = 
REMARK  4 active torsions:
REMARK  status: ('A' for Active; 'I' for Inactive)
REMARK    1  A    between atoms: C_1  and  C_2
REMARK    2  A    between atoms: C_6  and  N_7
REMARK    3  A    between atoms: C_8  and  C_10
REMARK    4  A    between atoms: C_12  and  C_13
REMARK                            x       y       z     vdW  Elec       q    Type
REMARK                         _______ _______ _______ _____ _____    ______ ____
ROOT
ATOM      1  N   UNL     1       2.447   7.513  19.412  0.00  0.00    +0.000 N 
ATOM      2  C   UNL     1       1.690   8.626  19.076  0.00  0.00    +0.000 C 
ATOM      3  O   UNL     1       1.398   8.955  17.930  0.00  0.00    +0.000 OA
ATOM      4  H   UNL     1       2.489   7.277  20.398  0.00  0.00    +0.000 HD
ENDROOT
BRANCH   1  10
ATOM      5  C   UNL     1       6.622   4.565  14.216  0.00  0.00    +0.000 C 
ATOM      6  C   UNL     1       5.725   5.035  15.284  0.00  0.00    +0.000 A 
ATOM      7  N   UNL     1       5.620   6.246  15.799  0.00  0.00    +0.000 NA
ATOM      8  C   UNL     1       4.637   6.107  16.743  0.00  0.00    +0.000 A 
ATOM      9  C   UNL     1       4.075   7.040  17.620  0.00  0.00    +0.000 A 
ATOM     10  C   UNL     1       3.065   6.624  18.504  0.00  0.00    +0.000 A 
ATOM     11  C   UNL     1       2.649   5.280  18.510  0.00  0.00    +0.000 A 
ATOM     12  C   UNL     1       3.192   4.331  17.626  0.00  0.00    +0.000 A 
ATOM     13  C   UNL     1       4.182   4.802  16.769  0.00  0.00    +0.000 A 
ATOM     14  O   UNL     1       4.873   4.103  15.825  0.00  0.00    +0.000 OA
ENDBRANCH   1  10
BRANCH   2  15
ATOM     15  C   UNL     1       1.193   9.379  20.200  0.00  0.00    +0.000 A 
ATOM     16  C   UNL     1       0.493  10.560  20.241  0.00  0.00    +0.000 A 
ATOM     17  C   UNL     1       0.174  10.752  21.608  0.00  0.00    +0.000 A 
ATOM     18  N   UNL     1       0.716   9.773  22.352  0.00  0.00    +0.000 NA
ATOM     19  O   UNL     1       1.353   8.919  21.468  0.00  0.00    +0.000 OA
BRANCH  17  20
ATOM     20  C   UNL     1      -0.701  11.779  22.169  0.00  0.00    +0.000 A 
ATOM     21  C   UNL     1      -0.340  13.134  22.089  0.00  0.00    +0.000 A 
ATOM     22  C   UNL     1      -1.076  14.108  22.768  0.00  0.00    +0.000 A 
ATOM     23  C   UNL     1      -2.188  13.738  23.522  0.00  0.00    +0.000 A 
ATOM     24  C   UNL     1      -2.573  12.405  23.561  0.00  0.00    +0.000 A 
ATOM     25  F   UNL     1      -3.642  12.048  24.285  0.00  0.00    +0.000 F 
ATOM     26  C   UNL     1      -1.849  11.425  22.889  0.00  0.00    +0.000 A 
ENDBRANCH  17  20
ENDBRANCH   2  15
TORSDOF 3
ENDMDL
MODEL 6
REMARK VINA RESULT:      -8.3      1.564      2.041
REMARK  Name = 
REMARK  4 active torsions:
REMARK  status: ('A' for Active; 'I' for Inactive)
REMARK    1  A    between atoms: C_1  and  C_2
REMARK    2  A    between atoms: C_6  and  N_7
REMARK    3  A    between atoms: C_8  and  C_10
REMARK    4  A    between atoms: C_12  and  C_13
REMARK                            x       y       z     vdW  Elec       q    Type
REMARK                         _______ _______ _______ _____ _____    ______ ____
ROOT
ATOM      1  N   UNL     1       3.767   6.815  17.060  0.00  0.00    +0.000 N 
ATOM      2  C   UNL     1       5.154   6.802  17.033  0.00  0.00    +0.000 C 
ATOM      3  O   UNL     1       5.876   7.403  17.824  0.00  0.00    +0.000 OA
ATOM      4  H   UNL     1       3.298   6.160  16.443  0.00  0.00    +0.000 HD
ENDROOT
BRANCH   1  10
ATOM      5  C   UNL     1      -0.126   9.134  22.768  0.00  0.00    +0.000 C 
ATOM      6  C   UNL     1       0.630   8.785  21.554  0.00  0.00    +0.000 A 
ATOM      7  N   UNL     1       1.337   7.699  21.308  0.00  0.00    +0.000 NA
ATOM      8  C   UNL     1       1.809   7.906  20.038  0.00  0.00    +0.000 A 
ATOM      9  C   UNL     1       2.617   7.108  19.222  0.00  0.00    +0.000 A 
ATOM     10  C   UNL     1       2.960   7.570  17.941  0.00  0.00    +0.000 A 
ATOM     11  C   UNL     1       2.509   8.829  17.505  0.00  0.00    +0.000 A 
ATOM     12  C   UNL     1       1.684   9.640  18.306  0.00  0.00    +0.000 A 
ATOM     13  C   UNL     1       1.370   9.127  19.560  0.00  0.00    +0.000 A 
ATOM     14  O   UNL     1       0.601   9.699  20.529  0.00  0.00    +0.000 OA
ENDBRANCH   1  10
BRANCH   2  15
ATOM     15  C   UNL     1       5.729   5.960  16.015  0.00  0.00    +0.000 A 
ATOM     16  C   UNL     1       5.128   5.119  15.110  0.00  0.00    +0.000 A 
ATOM     17  C   UNL     1       6.180   4.650  14.287  0.00  0.00    +0.000 A 
ATOM     18  N   UNL     1       7.358   5.129  14.722  0.00  0.00    +0.000 NA
ATOM     19  O   UNL     1       7.071   5.945  15.802  0.00  0.00    +0.000 OA
BRANCH  17  20
ATOM     20  C   UNL     1       6.053   3.852  13.069  0.00  0.00    +0.000 A 
ATOM     21  C   UNL     1       4.782   3.528  12.568  0.00  0.00    +0.000 A 
ATOM     22  C   UNL     1       4.643   2.627  11.509  0.00  0.00    +0.000 A 
ATOM     23  C   UNL     1       5.773   2.053  10.933  0.00  0.00    +0.000 A 
ATOM     24  C   UNL     1       7.033   2.410  11.397  0.00  0.00    +0.000 A 
ATOM     25  F   UNL     1       8.120   1.860  10.843  0.00  0.00    +0.000 F 
ATOM     26  C   UNL     1       7.185   3.306  12.450  0.00  0.00    +0.000 A 
ENDBRANCH  17  20
ENDBRANCH   2  15
TORSDOF 3
ENDMDL
MODEL 7
REMARK VINA RESULT:      -8.3      3.914     10.247
REMARK  Name = 
REMARK  4 active torsions:
REMARK  status: ('A' for Active; 'I' for Inactive)
REMARK    1  A    between atoms: C_1  and  C_2
REMARK    2  A    between atoms: C_6  and  N_7
REMARK    3  A    between atoms: C_8  and  C_10
REMARK    4  A    between atoms: C_12  and  C_13
REMARK                            x       y       z     vdW  Elec       q    Type
REMARK                         _______ _______ _______ _____ _____    ______ ____
ROOT
ATOM      1  N   UNL     1       2.456   7.334  19.108  0.00  0.00    +0.000 N 
ATOM      2  C   UNL     1       1.831   8.521  18.752  0.00  0.00    +0.000 C 
ATOM      3  O   UNL     1       1.766   8.964  17.609  0.00  0.00    +0.000 OA
ATOM      4  H   UNL     1       2.308   7.014  20.059  0.00  0.00    +0.000 HD
ENDROOT
BRANCH   1  10
ATOM      5  C   UNL     1       7.020   4.667  14.090  0.00  0.00    +0.000 C 
ATOM      6  C   UNL     1       6.057   5.076  15.126  0.00  0.00    +0.000 A 
ATOM      7  N   UNL     1       5.821   6.285  15.599  0.00  0.00    +0.000 NA
ATOM      8  C   UNL     1       4.835   6.077  16.529  0.00  0.00    +0.000 A 
ATOM      9  C   UNL     1       4.163   6.974  17.364  0.00  0.00    +0.000 A 
ATOM     10  C   UNL     1       3.180   6.485  18.240  0.00  0.00    +0.000 A 
ATOM     11  C   UNL     1       2.899   5.107  18.281  0.00  0.00    +0.000 A 
ATOM     12  C   UNL     1       3.555   4.191  17.438  0.00  0.00    +0.000 A 
ATOM     13  C   UNL     1       4.512   4.733  16.587  0.00  0.00    +0.000 A 
ATOM     14  O   UNL     1       5.290   4.080  15.679  0.00  0.00    +0.000 OA
ENDBRANCH   1  10
BRANCH   2  15
ATOM     15  C   UNL     1       1.180   9.208  19.839  0.00  0.00    +0.000 A 
ATOM     16  C   UNL     1       0.331  10.288  19.829  0.00  0.00    +0.000 A 
ATOM     17  C   UNL     1      -0.084  10.443  21.174  0.00  0.00    +0.000 A 
ATOM     18  N   UNL     1       0.540   9.547  21.958  0.00  0.00    +0.000 NA
ATOM     19  O   UNL     1       1.329   8.779  21.120  0.00  0.00    +0.000 OA
BRANCH  17  20
ATOM     20  C   UNL     1      -1.114  11.350  21.675  0.00  0.00    +0.000 A 
ATOM     21  C   UNL     1      -1.491  11.312  23.027  0.00  0.00    +0.000 A 
ATOM     22  C   UNL     1      -2.589  12.048  23.482  0.00  0.00    +0.000 A 
ATOM     23  C   UNL     1      -3.311  12.839  22.591  0.00  0.00    +0.000 A 
ATOM     24  C   UNL     1      -2.909  12.914  21.264  0.00  0.00    +0.000 A 
ATOM     25  F   UNL     1      -3.601  13.675  20.408  0.00  0.00    +0.000 F 
ATOM     26  C   UNL     1      -1.818  12.187  20.799  0.00  0.00    +0.000 A 
ENDBRANCH  17  20
ENDBRANCH   2  15
TORSDOF 3
ENDMDL
MODEL 8
REMARK VINA RESULT:      -8.3      1.750      2.533
REMARK  Name = 
REMARK  4 active torsions:
REMARK  status: ('A' for Active; 'I' for Inactive)
REMARK    1  A    between atoms: C_1  and  C_2
REMARK    2  A    between atoms: C_6  and  N_7
REMARK    3  A    between atoms: C_8  and  C_10
REMARK    4  A    between atoms: C_12  and  C_13
REMARK                            x       y       z     vdW  Elec       q    Type
REMARK                         _______ _______ _______ _____ _____    ______ ____
ROOT
ATOM      1  N   UNL     1       1.856   8.287  19.328  0.00  0.00    +0.000 N 
ATOM      2  C   UNL     1       2.039   7.042  19.915  0.00  0.00    +0.000 C 
ATOM      3  O   UNL     1       1.414   6.627  20.887  0.00  0.00    +0.000 OA
ATOM      4  H   UNL     1       2.332   8.444  18.446  0.00  0.00    +0.000 HD
ENDROOT
BRANCH   1  10
ATOM      5  C   UNL     1      -1.886  12.985  23.456  0.00  0.00    +0.000 C 
ATOM      6  C   UNL     1      -1.194  12.091  22.514  0.00  0.00    +0.000 A 
ATOM      7  N   UNL     1      -0.281  11.173  22.768  0.00  0.00    +0.000 NA
ATOM      8  C   UNL     1       0.002  10.652  21.532  0.00  0.00    +0.000 A 
ATOM      9  C   UNL     1       0.889   9.642  21.148  0.00  0.00    +0.000 A 
ATOM     10  C   UNL     1       0.987   9.302  19.789  0.00  0.00    +0.000 A 
ATOM     11  C   UNL     1       0.213   9.989  18.835  0.00  0.00    +0.000 A 
ATOM     12  C   UNL     1      -0.694  10.998  19.205  0.00  0.00    +0.000 A 
ATOM     13  C   UNL     1      -0.755  11.287  20.564  0.00  0.00    +0.000 A 
ATOM     14  O   UNL     1      -1.536  12.212  21.189  0.00  0.00    +0.000 OA
ENDBRANCH   1  10
BRANCH   2  15
ATOM     15  C   UNL     1       3.006   6.202  19.256  0.00  0.00    +0.000 A 
ATOM     16  C   UNL     1       3.390   6.150  17.938  0.00  0.00    +0.000 A 
ATOM     17  C   UNL     1       4.457   5.220  17.901  0.00  0.00    +0.000 A 
ATOM     18  N   UNL     1       4.653   4.691  19.120  0.00  0.00    +0.000 NA
ATOM     19  O   UNL     1       3.744   5.306  19.962  0.00  0.00    +0.000 OA
BRANCH  17  20
ATOM     20  C   UNL     1       5.323   4.922  16.761  0.00  0.00    +0.000 A 
ATOM     21  C   UNL     1       6.693   5.222  16.818  0.00  0.00    +0.000 A 
ATOM     22  C   UNL     1       7.496   5.104  15.681  0.00  0.00    +0.000 A 
ATOM     23  C   UNL     1       6.939   4.672  14.480  0.00  0.00    +0.000 A 
ATOM     24  C   UNL     1       5.594   4.329  14.435  0.00  0.00    +0.000 A 
ATOM     25  F   UNL     1       5.057   3.912  13.281  0.00  0.00    +0.000 F 
ATOM     26  C   UNL     1       4.783   4.441  15.560  0.00  0.00    +0.000 A 
ENDBRANCH  17  20
ENDBRANCH   2  15
TORSDOF 3
ENDMDL
MODEL 9
REMARK VINA RESULT:      -8.2      3.979      4.931
REMARK  Name = 
REMARK  4 active torsions:
REMARK  status: ('A' for Active; 'I' for Inactive)
REMARK    1  A    between atoms: C_1  and  C_2
REMARK    2  A    between atoms: C_6  and  N_7
REMARK    3  A    between atoms: C_8  and  C_10
REMARK    4  A    between atoms: C_12  and  C_13
REMARK                            x       y       z     vdW  Elec       q    Type
REMARK                         _______ _______ _______ _____ _____    ______ ____
ROOT
ATOM      1  N   UNL     1       1.262   9.156  19.448  0.00  0.00    +0.000 N 
ATOM      2  C   UNL     1       1.990   9.037  18.272  0.00  0.00    +0.000 C 
ATOM      3  O   UNL     1       2.089   9.913  17.418  0.00  0.00    +0.000 OA
ATOM      4  H   UNL     1       1.385   8.416  20.131  0.00  0.00    +0.000 HD
ENDROOT
BRANCH   1  10
ATOM      5  C   UNL     1      -1.358  15.175  22.614  0.00  0.00    +0.000 C 
ATOM      6  C   UNL     1      -0.943  13.958  21.897  0.00  0.00    +0.000 A 
ATOM      7  N   UNL     1       0.172  13.265  22.028  0.00  0.00    +0.000 NA
ATOM      8  C   UNL     1       0.022  12.244  21.127  0.00  0.00    +0.000 A 
ATOM      9  C   UNL     1       0.868  11.179  20.803  0.00  0.00    +0.000 A 
ATOM     10  C   UNL     1       0.463  10.260  19.821  0.00  0.00    +0.000 A 
ATOM     11  C   UNL     1      -0.770  10.432  19.165  0.00  0.00    +0.000 A 
ATOM     12  C   UNL     1      -1.641  11.488  19.488  0.00  0.00    +0.000 A 
ATOM     13  C   UNL     1      -1.191  12.362  20.472  0.00  0.00    +0.000 A 
ATOM     14  O   UNL     1      -1.825  13.462  20.968  0.00  0.00    +0.000 OA
ENDBRANCH   1  10
BRANCH   2  15
ATOM     15  C   UNL     1       2.703   7.793  18.129  0.00  0.00    +0.000 A 
ATOM     16  C   UNL     1       2.457   6.557  18.676  0.00  0.00    +0.000 A 
ATOM     17  C   UNL     1       3.414   5.696  18.086  0.00  0.00    +0.000 A 
ATOM     18  N   UNL     1       4.234   6.395  17.283  0.00  0.00    +0.000 NA
ATOM     19  O   UNL     1       3.787   7.704  17.314  0.00  0.00    +0.000 OA
BRANCH  17  20
ATOM     20  C   UNL     1       3.479   4.241  18.209  0.00  0.00    +0.000 A 
ATOM     21  C   UNL     1       2.668   3.428  17.402  0.00  0.00    +0.000 A 
ATOM     22  C   UNL     1       2.593   2.050  17.627  0.00  0.00    +0.000 A 
ATOM     23  C   UNL     1       3.339   1.473  18.652  0.00  0.00    +0.000 A 
ATOM     24  C   UNL     1       4.178   2.270  19.418  0.00  0.00    +0.000 A 
ATOM     25  F   UNL     1       4.896   1.716  20.403  0.00  0.00    +0.000 F 
ATOM     26  C   UNL     1       4.263   3.642  19.204  0.00  0.00    +0.000 A 
ENDBRANCH  17  20
ENDBRANCH   2  15
TORSDOF 3
ENDMDL
