MODEL 1
REMARK VINA RESULT:      -8.6      0.000      0.000
REMARK  Name = 
REMARK  7 active torsions:
REMARK  status: ('A' for Active; 'I' for Inactive)
REMARK    1  A    between atoms: C_1  and  N_2
REMARK    2  A    between atoms: C_6  and  C_7
REMARK    3  A    between atoms: C_7  and  C_8
REMARK    4  A    between atoms: C_8  and  C_9
REMARK    5  A    between atoms: C_9  and  C_10
REMARK    6  A    between atoms: C_14  and  N_15
REMARK    7  A    between atoms: C_16  and  C_18
REMARK                            x       y       z     vdW  Elec       q    Type
REMARK                         _______ _______ _______ _____ _____    ______ ____
ROOT
ATOM      1  C   UNL     1       3.902   3.720  17.663  0.00  0.00    +0.000 A 
ATOM      2  C   UNL     1       3.695   2.569  18.432  0.00  0.00    +0.000 A 
ATOM      3  C   UNL     1       2.933   2.635  19.588  0.00  0.00    +0.000 A 
ATOM      4  C   UNL     1       2.377   3.849  19.990  0.00  0.00    +0.000 A 
ATOM      5  C   UNL     1       2.578   5.025  19.256  0.00  0.00    +0.000 A 
ATOM      6  C   UNL     1       3.337   4.945  18.079  0.00  0.00    +0.000 A 
ENDROOT
BRANCH   5   7
ATOM      7  N   UNL     1       2.068   6.285  19.668  0.00  0.00    +0.000 N 
ATOM      8  C   UNL     1       2.262   7.489  19.005  0.00  0.00    +0.000 C 
ATOM      9  O   UNL     1       2.947   7.656  17.995  0.00  0.00    +0.000 OA
ATOM     10  H   UNL     1       1.463   6.323  20.483  0.00  0.00    +0.000 HD
BRANCH   8  11
ATOM     11  C   UNL     1       1.573   8.691  19.567  0.00  0.00    +0.000 A 
ATOM     12  C   UNL     1       0.968   8.554  20.816  0.00  0.00    +0.000 A 
ATOM     13  C   UNL     1       0.271   9.628  21.368  0.00  0.00    +0.000 A 
ATOM     14  C   UNL     1       0.201  10.819  20.646  0.00  0.00    +0.000 A 
ATOM     15  C   UNL     1       0.859  10.869  19.409  0.00  0.00    +0.000 A 
ATOM     16  N   UNL     1       1.546   9.839  18.839  0.00  0.00    +0.000 NA
ATOM     17  C   UNL     1      -0.552  11.955  21.178  0.00  0.00    +0.000 C 
ATOM     18  C   UNL     1      -1.168  11.879  22.367  0.00  0.00    +0.000 C 
ATOM     19  C   UNL     1      -1.141  10.672  23.256  0.00  0.00    +0.000 C 
ATOM     20  C   UNL     1      -0.392   9.450  22.709  0.00  0.00    +0.000 C 
ENDBRANCH   8  11
ENDBRANCH   5   7
BRANCH   1  21
ATOM     21  C   UNL     1       4.735   3.615  16.409  0.00  0.00    +0.000 C 
BRANCH  21  22
ATOM     22  C   UNL     1       5.230   4.972  15.886  0.00  0.00    +0.000 C 
BRANCH  22  23
ATOM     23  C   UNL     1       6.753   5.145  15.902  0.00  0.00    +0.000 C 
BRANCH  23  29
ATOM     24  C   UNL     1       7.369   7.883  17.269  0.00  0.00    +0.000 C 
ATOM     25  N   UNL     1       7.537   6.579  17.852  0.00  0.00    +0.000 N 
ATOM     26  C   UNL     1       7.987   6.321  19.109  0.00  0.00    +0.000 A 
ATOM     27  N   UNL     1       8.025   5.025  19.305  0.00  0.00    +0.000 NA
ATOM     28  N   UNL     1       7.597   4.420  18.150  0.00  0.00    +0.000 NA
ATOM     29  C   UNL     1       7.288   5.360  17.277  0.00  0.00    +0.000 A 
ENDBRANCH  23  29
ENDBRANCH  22  23
ENDBRANCH  21  22
ENDBRANCH   1  21
TORSDOF 6
ENDMDL
MODEL 2
REMARK VINA RESULT:      -8.5      1.394      1.981
REMARK  Name = 
REMARK  7 active torsions:
REMARK  status: ('A' for Active; 'I' for Inactive)
REMARK    1  A    between atoms: C_1  and  N_2
REMARK    2  A    between atoms: C_6  and  C_7
REMARK    3  A    between atoms: C_7  and  C_8
REMARK    4  A    between atoms: C_8  and  C_9
REMARK    5  A    between atoms: C_9  and  C_10
REMARK    6  A    between atoms: C_14  and  N_15
REMARK    7  A    between atoms: C_16  and  C_18
REMARK                            x       y       z     vdW  Elec       q    Type
REMARK                         _______ _______ _______ _____ _____    ______ ____
ROOT
ATOM      1  C   UNL     1       2.720   3.715  18.669  0.00  0.00    +0.000 A 
ATOM      2  C   UNL     1       3.065   2.664  19.527  0.00  0.00    +0.000 A 
ATOM      3  C   UNL     1       2.804   2.761  20.885  0.00  0.00    +0.000 A 
ATOM      4  C   UNL     1       2.202   3.909  21.399  0.00  0.00    +0.000 A 
ATOM      5  C   UNL     1       1.858   4.988  20.575  0.00  0.00    +0.000 A 
ATOM      6  C   UNL     1       2.112   4.874  19.200  0.00  0.00    +0.000 A 
ENDROOT
BRANCH   5   7
ATOM      7  N   UNL     1       1.292   6.190  21.077  0.00  0.00    +0.000 N 
ATOM      8  C   UNL     1       1.551   7.465  20.596  0.00  0.00    +0.000 C 
ATOM      9  O   UNL     1       2.348   7.753  19.702  0.00  0.00    +0.000 OA
ATOM     10  H   UNL     1       0.595   6.130  21.814  0.00  0.00    +0.000 HD
BRANCH   8  11
ATOM     11  C   UNL     1       0.789   8.593  21.218  0.00  0.00    +0.000 A 
ATOM     12  C   UNL     1       0.197   9.514  20.355  0.00  0.00    +0.000 A 
ATOM     13  C   UNL     1      -0.487  10.611  20.879  0.00  0.00    +0.000 A 
ATOM     14  C   UNL     1      -0.559  10.752  22.264  0.00  0.00    +0.000 A 
ATOM     15  C   UNL     1       0.049   9.763  23.050  0.00  0.00    +0.000 A 
ATOM     16  N   UNL     1       0.726   8.681  22.572  0.00  0.00    +0.000 NA
ATOM     17  C   UNL     1      -1.237  11.909  22.848  0.00  0.00    +0.000 C 
ATOM     18  C   UNL     1      -1.813  12.837  22.070  0.00  0.00    +0.000 C 
ATOM     19  C   UNL     1      -1.838  12.786  20.573  0.00  0.00    +0.000 C 
ATOM     20  C   UNL     1      -1.101  11.604  19.928  0.00  0.00    +0.000 C 
ENDBRANCH   8  11
ENDBRANCH   5   7
BRANCH   1  21
ATOM     21  C   UNL     1       3.016   3.578  17.196  0.00  0.00    +0.000 C 
BRANCH  21  22
ATOM     22  C   UNL     1       4.516   3.519  16.874  0.00  0.00    +0.000 C 
BRANCH  22  23
ATOM     23  C   UNL     1       5.197   4.887  16.748  0.00  0.00    +0.000 C 
BRANCH  23  29
ATOM     24  C   UNL     1       7.385   7.109  16.878  0.00  0.00    +0.000 C 
ATOM     25  N   UNL     1       7.064   6.165  17.913  0.00  0.00    +0.000 N 
ATOM     26  C   UNL     1       7.658   6.088  19.133  0.00  0.00    +0.000 A 
ATOM     27  N   UNL     1       7.127   5.106  19.821  0.00  0.00    +0.000 NA
ATOM     28  N   UNL     1       6.168   4.521  19.032  0.00  0.00    +0.000 NA
ATOM     29  C   UNL     1       6.120   5.171  17.885  0.00  0.00    +0.000 A 
ENDBRANCH  23  29
ENDBRANCH  22  23
ENDBRANCH  21  22
ENDBRANCH   1  21
TORSDOF 6
ENDMDL
MODEL 3
REMARK VINA RESULT:      -8.5      1.427      2.174
REMARK  Name = 
REMARK  7 active torsions:
REMARK  status: ('A' for Active; 'I' for Inactive)
REMARK    1  A    between atoms: C_1  and  N_2
REMARK    2  A    between atoms: C_6  and  C_7
REMARK    3  A    between atoms: C_7  and  C_8
REMARK    4  A    between atoms: C_8  and  C_9
REMARK    5  A    between atoms: C_9  and  C_10
REMARK    6  A    between atoms: C_14  and  N_15
REMARK    7  A    between atoms: C_16  and  C_18
REMARK                            x       y       z     vdW  Elec       q    Type
REMARK                         _______ _______ _______ _____ _____    ______ ____
ROOT
ATOM      1  C   UNL     1       2.842   3.519  18.766  0.00  0.00    +0.000 A 
ATOM      2  C   UNL     1       3.128   2.517  19.700  0.00  0.00    +0.000 A 
ATOM      3  C   UNL     1       2.850   2.719  21.043  0.00  0.00    +0.000 A 
ATOM      4  C   UNL     1       2.290   3.924  21.466  0.00  0.00    +0.000 A 
ATOM      5  C   UNL     1       2.007   4.957  20.563  0.00  0.00    +0.000 A 
ATOM      6  C   UNL     1       2.278   4.737  19.205  0.00  0.00    +0.000 A 
ENDROOT
BRANCH   5   7
ATOM      7  N   UNL     1       1.486   6.214  20.971  0.00  0.00    +0.000 N 
ATOM      8  C   UNL     1       1.733   7.429  20.348  0.00  0.00    +0.000 C 
ATOM      9  O   UNL     1       2.479   7.610  19.385  0.00  0.00    +0.000 OA
ATOM     10  H   UNL     1       0.833   6.242  21.749  0.00  0.00    +0.000 HD
BRANCH   8  11
ATOM     11  C   UNL     1       1.022   8.627  20.893  0.00  0.00    +0.000 A 
ATOM     12  C   UNL     1       0.532   9.552  19.972  0.00  0.00    +0.000 A 
ATOM     13  C   UNL     1      -0.098  10.711  20.425  0.00  0.00    +0.000 A 
ATOM     14  C   UNL     1      -0.221  10.910  21.799  0.00  0.00    +0.000 A 
ATOM     15  C   UNL     1       0.283   9.914  22.647  0.00  0.00    +0.000 A 
ATOM     16  N   UNL     1       0.906   8.772  22.239  0.00  0.00    +0.000 NA
ATOM     17  C   UNL     1      -0.843  12.131  22.310  0.00  0.00    +0.000 C 
ATOM     18  C   UNL     1      -1.321  13.064  21.474  0.00  0.00    +0.000 C 
ATOM     19  C   UNL     1      -1.283  12.957  19.980  0.00  0.00    +0.000 C 
ATOM     20  C   UNL     1      -0.601  11.706  19.412  0.00  0.00    +0.000 C 
ENDBRANCH   8  11
ENDBRANCH   5   7
BRANCH   1  21
ATOM     21  C   UNL     1       3.155   3.268  17.311  0.00  0.00    +0.000 C 
BRANCH  21  22
ATOM     22  C   UNL     1       3.999   4.375  16.665  0.00  0.00    +0.000 C 
BRANCH  22  23
ATOM     23  C   UNL     1       5.492   4.049  16.536  0.00  0.00    +0.000 C 
BRANCH  23  29
ATOM     24  C   UNL     1       6.079   5.311  19.330  0.00  0.00    +0.000 C 
ATOM     25  N   UNL     1       6.605   5.750  18.066  0.00  0.00    +0.000 N 
ATOM     26  C   UNL     1       7.459   6.792  17.877  0.00  0.00    +0.000 A 
ATOM     27  N   UNL     1       7.725   6.917  16.599  0.00  0.00    +0.000 NA
ATOM     28  N   UNL     1       7.024   5.942  15.934  0.00  0.00    +0.000 NA
ATOM     29  C   UNL     1       6.359   5.228  16.822  0.00  0.00    +0.000 A 
ENDBRANCH  23  29
ENDBRANCH  22  23
ENDBRANCH  21  22
ENDBRANCH   1  21
TORSDOF 6
ENDMDL
MODEL 4
REMARK VINA RESULT:      -8.4      1.032      1.351
REMARK  Name = 
REMARK  7 active torsions:
REMARK  status: ('A' for Active; 'I' for Inactive)
REMARK    1  A    between atoms: C_1  and  N_2
REMARK    2  A    between atoms: C_6  and  C_7
REMARK    3  A    between atoms: C_7  and  C_8
REMARK    4  A    between atoms: C_8  and  C_9
REMARK    5  A    between atoms: C_9  and  C_10
REMARK    6  A    between atoms: C_14  and  N_15
REMARK    7  A    between atoms: C_16  and  C_18
REMARK                            x       y       z     vdW  Elec       q    Type
REMARK                         _______ _______ _______ _____ _____    ______ ____
ROOT
ATOM      1  C   UNL     1       2.778   3.334  18.987  0.00  0.00    +0.000 A 
ATOM      2  C   UNL     1       2.948   2.474  20.079  0.00  0.00    +0.000 A 
ATOM      3  C   UNL     1       2.613   2.897  21.355  0.00  0.00    +0.000 A 
ATOM      4  C   UNL     1       2.111   4.183  21.554  0.00  0.00    +0.000 A 
ATOM      5  C   UNL     1       1.944   5.078  20.490  0.00  0.00    +0.000 A 
ATOM      6  C   UNL     1       2.272   4.635  19.200  0.00  0.00    +0.000 A 
ENDROOT
BRANCH   5   7
ATOM      7  N   UNL     1       1.485   6.410  20.670  0.00  0.00    +0.000 N 
ATOM      8  C   UNL     1       1.898   7.511  19.932  0.00  0.00    +0.000 C 
ATOM      9  O   UNL     1       2.759   7.510  19.052  0.00  0.00    +0.000 OA
ATOM     10  H   UNL     1       0.754   6.586  21.352  0.00  0.00    +0.000 HD
BRANCH   8  11
ATOM     11  C   UNL     1       1.231   8.816  20.231  0.00  0.00    +0.000 A 
ATOM     12  C   UNL     1       0.554   8.922  21.446  0.00  0.00    +0.000 A 
ATOM     13  C   UNL     1      -0.125  10.100  21.758  0.00  0.00    +0.000 A 
ATOM     14  C   UNL     1      -0.104  11.146  20.836  0.00  0.00    +0.000 A 
ATOM     15  C   UNL     1       0.620  10.953  19.651  0.00  0.00    +0.000 A 
ATOM     16  N   UNL     1       1.293   9.816  19.314  0.00  0.00    +0.000 NA
ATOM     17  C   UNL     1      -0.836  12.382  21.113  0.00  0.00    +0.000 C 
ATOM     18  C   UNL     1      -1.517  12.538  22.258  0.00  0.00    +0.000 C 
ATOM     19  C   UNL     1      -1.590  11.508  23.344  0.00  0.00    +0.000 C 
ATOM     20  C   UNL     1      -0.866  10.185  23.066  0.00  0.00    +0.000 C 
ENDBRANCH   8  11
ENDBRANCH   5   7
BRANCH   1  21
ATOM     21  C   UNL     1       3.151   2.843  17.610  0.00  0.00    +0.000 C 
BRANCH  21  22
ATOM     22  C   UNL     1       3.925   3.876  16.779  0.00  0.00    +0.000 C 
BRANCH  22  23
ATOM     23  C   UNL     1       5.445   3.673  16.761  0.00  0.00    +0.000 C 
BRANCH  23  29
ATOM     24  C   UNL     1       7.191   6.223  16.320  0.00  0.00    +0.000 C 
ATOM     25  N   UNL     1       6.890   5.600  17.581  0.00  0.00    +0.000 N 
ATOM     26  C   UNL     1       7.313   6.027  18.801  0.00  0.00    +0.000 A 
ATOM     27  N   UNL     1       6.863   5.219  19.730  0.00  0.00    +0.000 NA
ATOM     28  N   UNL     1       6.135   4.237  19.106  0.00  0.00    +0.000 NA
ATOM     29  C   UNL     1       6.139   4.476  17.809  0.00  0.00    +0.000 A 
ENDBRANCH  23  29
ENDBRANCH  22  23
ENDBRANCH  21  22
ENDBRANCH   1  21
TORSDOF 6
ENDMDL
MODEL 5
REMARK VINA RESULT:      -8.3      1.386      2.040
REMARK  Name = 
REMARK  7 active torsions:
REMARK  status: ('A' for Active; 'I' for Inactive)
REMARK    1  A    between atoms: C_1  and  N_2
REMARK    2  A    between atoms: C_6  and  C_7
REMARK    3  A    between atoms: C_7  and  C_8
REMARK    4  A    between atoms: C_8  and  C_9
REMARK    5  A    between atoms: C_9  and  C_10
REMARK    6  A    between atoms: C_14  and  N_15
REMARK    7  A    between atoms: C_16  and  C_18
REMARK                            x       y       z     vdW  Elec       q    Type
REMARK                         _______ _______ _______ _____ _____    ______ ____
ROOT
ATOM      1  C   UNL     1       4.653   4.556  18.718  0.00  0.00    +0.000 A 
ATOM      2  C   UNL     1       3.918   3.474  18.220  0.00  0.00    +0.000 A 
ATOM      3  C   UNL     1       2.541   3.570  18.091  0.00  0.00    +0.000 A 
ATOM      4  C   UNL     1       1.886   4.744  18.462  0.00  0.00    +0.000 A 
ATOM      5  C   UNL     1       2.586   5.841  18.981  0.00  0.00    +0.000 A 
ATOM      6  C   UNL     1       3.980   5.739  19.094  0.00  0.00    +0.000 A 
ENDROOT
BRANCH   5   7
ATOM      7  N   UNL     1       1.941   7.029  19.416  0.00  0.00    +0.000 N 
ATOM      8  C   UNL     1       1.977   8.252  18.762  0.00  0.00    +0.000 C 
ATOM      9  O   UNL     1       2.616   8.507  17.740  0.00  0.00    +0.000 OA
ATOM     10  H   UNL     1       1.353   6.989  20.244  0.00  0.00    +0.000 HD
BRANCH   8  11
ATOM     11  C   UNL     1       1.163   9.361  19.350  0.00  0.00    +0.000 A 
ATOM     12  C   UNL     1       0.727   9.203  20.665  0.00  0.00    +0.000 A 
ATOM     13  C   UNL     1      -0.074  10.183  21.250  0.00  0.00    +0.000 A 
ATOM     14  C   UNL     1      -0.417  11.303  20.493  0.00  0.00    +0.000 A 
ATOM     15  C   UNL     1       0.086  11.383  19.187  0.00  0.00    +0.000 A 
ATOM     16  N   UNL     1       0.869  10.444  18.584  0.00  0.00    +0.000 NA
ATOM     17  C   UNL     1      -1.286  12.333  21.062  0.00  0.00    +0.000 C 
ATOM     18  C   UNL     1      -1.749  12.231  22.316  0.00  0.00    +0.000 C 
ATOM     19  C   UNL     1      -1.427  11.099  23.244  0.00  0.00    +0.000 C 
ATOM     20  C   UNL     1      -0.550   9.982  22.665  0.00  0.00    +0.000 C 
ENDBRANCH   8  11
ENDBRANCH   5   7
BRANCH   1  21
ATOM     21  C   UNL     1       6.151   4.420  18.845  0.00  0.00    +0.000 C 
BRANCH  21  22
ATOM     22  C   UNL     1       6.878   5.763  19.002  0.00  0.00    +0.000 C 
BRANCH  22  23
ATOM     23  C   UNL     1       7.443   6.340  17.698  0.00  0.00    +0.000 C 
BRANCH  23  29
ATOM     24  C   UNL     1       4.936   6.862  15.912  0.00  0.00    +0.000 C 
ATOM     25  N   UNL     1       5.915   5.825  15.729  0.00  0.00    +0.000 N 
ATOM     26  C   UNL     1       5.916   4.897  14.735  0.00  0.00    +0.000 A 
ATOM     27  N   UNL     1       6.947   4.100  14.877  0.00  0.00    +0.000 NA
ATOM     28  N   UNL     1       7.634   4.509  15.993  0.00  0.00    +0.000 NA
ATOM     29  C   UNL     1       7.018   5.560  16.499  0.00  0.00    +0.000 A 
ENDBRANCH  23  29
ENDBRANCH  22  23
ENDBRANCH  21  22
ENDBRANCH   1  21
TORSDOF 6
ENDMDL
MODEL 6
REMARK VINA RESULT:      -8.2      2.223      3.098
REMARK  Name = 
REMARK  7 active torsions:
REMARK  status: ('A' for Active; 'I' for Inactive)
REMARK    1  A    between atoms: C_1  and  N_2
REMARK    2  A    between atoms: C_6  and  C_7
REMARK    3  A    between atoms: C_7  and  C_8
REMARK    4  A    between atoms: C_8  and  C_9
REMARK    5  A    between atoms: C_9  and  C_10
REMARK    6  A    between atoms: C_14  and  N_15
REMARK    7  A    between atoms: C_16  and  C_18
REMARK                            x       y       z     vdW  Elec       q    Type
REMARK                         _______ _______ _______ _____ _____    ______ ____
ROOT
ATOM      1  C   UNL     1       5.145   4.789  18.267  0.00  0.00    +0.000 A 
ATOM      2  C   UNL     1       4.469   3.751  17.615  0.00  0.00    +0.000 A 
ATOM      3  C   UNL     1       3.087   3.671  17.685  0.00  0.00    +0.000 A 
ATOM      4  C   UNL     1       2.369   4.620  18.412  0.00  0.00    +0.000 A 
ATOM      5  C   UNL     1       3.012   5.662  19.093  0.00  0.00    +0.000 A 
ATOM      6  C   UNL     1       4.409   5.743  19.003  0.00  0.00    +0.000 A 
ENDROOT
BRANCH   5   7
ATOM      7  N   UNL     1       2.312   6.611  19.884  0.00  0.00    +0.000 N 
ATOM      8  C   UNL     1       1.977   7.899  19.488  0.00  0.00    +0.000 C 
ATOM      9  O   UNL     1       2.282   8.429  18.420  0.00  0.00    +0.000 OA
ATOM     10  H   UNL     1       1.970   6.328  20.797  0.00  0.00    +0.000 HD
BRANCH   8  11
ATOM     11  C   UNL     1       1.168   8.714  20.447  0.00  0.00    +0.000 A 
ATOM     12  C   UNL     1       0.338   9.696  19.907  0.00  0.00    +0.000 A 
ATOM     13  C   UNL     1      -0.404  10.516  20.756  0.00  0.00    +0.000 A 
ATOM     14  C   UNL     1      -0.293  10.326  22.133  0.00  0.00    +0.000 A 
ATOM     15  C   UNL     1       0.550   9.300  22.581  0.00  0.00    +0.000 A 
ATOM     16  N   UNL     1       1.291   8.482  21.780  0.00  0.00    +0.000 NA
ATOM     17  C   UNL     1      -1.029  11.193  23.054  0.00  0.00    +0.000 C 
ATOM     18  C   UNL     1      -1.831  12.164  22.595  0.00  0.00    +0.000 C 
ATOM     19  C   UNL     1      -2.066  12.449  21.143  0.00  0.00    +0.000 C 
ATOM     20  C   UNL     1      -1.278  11.583  20.151  0.00  0.00    +0.000 C 
ENDBRANCH   8  11
ENDBRANCH   5   7
BRANCH   1  21
ATOM     21  C   UNL     1       6.650   4.850  18.170  0.00  0.00    +0.000 C 
BRANCH  21  22
ATOM     22  C   UNL     1       7.191   4.476  16.783  0.00  0.00    +0.000 C 
BRANCH  22  23
ATOM     23  C   UNL     1       6.746   5.409  15.650  0.00  0.00    +0.000 C 
BRANCH  23  29
ATOM     24  C   UNL     1       8.454   5.775  13.063  0.00  0.00    +0.000 C 
ATOM     25  N   UNL     1       7.353   4.868  13.239  0.00  0.00    +0.000 N 
ATOM     26  C   UNL     1       6.874   4.006  12.303  0.00  0.00    +0.000 A 
ATOM     27  N   UNL     1       5.859   3.339  12.797  0.00  0.00    +0.000 NA
ATOM     28  N   UNL     1       5.663   3.777  14.082  0.00  0.00    +0.000 NA
ATOM     29  C   UNL     1       6.575   4.691  14.354  0.00  0.00    +0.000 A 
ENDBRANCH  23  29
ENDBRANCH  22  23
ENDBRANCH  21  22
ENDBRANCH   1  21
TORSDOF 6
ENDMDL
MODEL 7
REMARK VINA RESULT:      -8.2      4.570      8.233
REMARK  Name = 
REMARK  7 active torsions:
REMARK  status: ('A' for Active; 'I' for Inactive)
REMARK    1  A    between atoms: C_1  and  N_2
REMARK    2  A    between atoms: C_6  and  C_7
REMARK    3  A    between atoms: C_7  and  C_8
REMARK    4  A    between atoms: C_8  and  C_9
REMARK    5  A    between atoms: C_9  and  C_10
REMARK    6  A    between atoms: C_14  and  N_15
REMARK    7  A    between atoms: C_16  and  C_18
REMARK                            x       y       z     vdW  Elec       q    Type
REMARK                         _______ _______ _______ _____ _____    ______ ____
ROOT
ATOM      1  C   UNL     1       5.865   6.595  17.546  0.00  0.00    +0.000 A 
ATOM      2  C   UNL     1       6.522   5.590  18.266  0.00  0.00    +0.000 A 
ATOM      3  C   UNL     1       7.763   5.839  18.830  0.00  0.00    +0.000 A 
ATOM      4  C   UNL     1       8.362   7.089  18.676  0.00  0.00    +0.000 A 
ATOM      5  C   UNL     1       7.743   8.113  17.948  0.00  0.00    +0.000 A 
ATOM      6  C   UNL     1       6.481   7.856  17.394  0.00  0.00    +0.000 A 
ENDROOT
BRANCH   5   7
ATOM      7  N   UNL     1       8.351   9.378  17.730  0.00  0.00    +0.000 N 
ATOM      8  C   UNL     1       8.964  10.156  18.703  0.00  0.00    +0.000 C 
ATOM      9  O   UNL     1       9.024   9.895  19.905  0.00  0.00    +0.000 OA
ATOM     10  H   UNL     1       8.403   9.738  16.782  0.00  0.00    +0.000 HD
BRANCH   8  11
ATOM     11  C   UNL     1       9.613  11.424  18.247  0.00  0.00    +0.000 A 
ATOM     12  C   UNL     1       8.904  12.609  18.442  0.00  0.00    +0.000 A 
ATOM     13  C   UNL     1       9.440  13.816  17.995  0.00  0.00    +0.000 A 
ATOM     14  C   UNL     1      10.682  13.801  17.363  0.00  0.00    +0.000 A 
ATOM     15  C   UNL     1      11.329  12.564  17.231  0.00  0.00    +0.000 A 
ATOM     16  N   UNL     1      10.834  11.366  17.654  0.00  0.00    +0.000 NA
ATOM     17  C   UNL     1      11.258  15.043  16.848  0.00  0.00    +0.000 C 
ATOM     18  C   UNL     1      10.617  16.213  16.992  0.00  0.00    +0.000 C 
ATOM     19  C   UNL     1       9.296  16.371  17.682  0.00  0.00    +0.000 C 
ATOM     20  C   UNL     1       8.647  15.081  18.198  0.00  0.00    +0.000 C 
ENDBRANCH   8  11
ENDBRANCH   5   7
BRANCH   1  21
ATOM     21  C   UNL     1       4.514   6.293  16.945  0.00  0.00    +0.000 C 
BRANCH  21  22
ATOM     22  C   UNL     1       3.420   6.039  17.991  0.00  0.00    +0.000 C 
BRANCH  22  23
ATOM     23  C   UNL     1       2.534   4.819  17.707  0.00  0.00    +0.000 C 
BRANCH  23  29
ATOM     24  C   UNL     1       3.152   1.850  18.443  0.00  0.00    +0.000 C 
ATOM     25  N   UNL     1       2.433   2.799  19.249  0.00  0.00    +0.000 N 
ATOM     26  C   UNL     1       1.906   2.560  20.480  0.00  0.00    +0.000 A 
ATOM     27  N   UNL     1       1.310   3.642  20.921  0.00  0.00    +0.000 NA
ATOM     28  N   UNL     1       1.443   4.609  19.956  0.00  0.00    +0.000 NA
ATOM     29  C   UNL     1       2.134   4.103  18.952  0.00  0.00    +0.000 A 
ENDBRANCH  23  29
ENDBRANCH  22  23
ENDBRANCH  21  22
ENDBRANCH   1  21
TORSDOF 6
ENDMDL
MODEL 8
REMARK VINA RESULT:      -8.2      1.949      2.913
REMARK  Name = 
REMARK  7 active torsions:
REMARK  status: ('A' for Active; 'I' for Inactive)
REMARK    1  A    between atoms: C_1  and  N_2
REMARK    2  A    between atoms: C_6  and  C_7
REMARK    3  A    between atoms: C_7  and  C_8
REMARK    4  A    between atoms: C_8  and  C_9
REMARK    5  A    between atoms: C_9  and  C_10
REMARK    6  A    between atoms: C_14  and  N_15
REMARK    7  A    between atoms: C_16  and  C_18
REMARK                            x       y       z     vdW  Elec       q    Type
REMARK                         _______ _______ _______ _____ _____    ______ ____
ROOT
ATOM      1  C   UNL     1       3.916   3.897  19.372  0.00  0.00    +0.000 A 
ATOM      2  C   UNL     1       3.341   2.663  19.693  0.00  0.00    +0.000 A 
ATOM      3  C   UNL     1       2.171   2.614  20.434  0.00  0.00    +0.000 A 
ATOM      4  C   UNL     1       1.569   3.795  20.867  0.00  0.00    +0.000 A 
ATOM      5  C   UNL     1       2.125   5.048  20.581  0.00  0.00    +0.000 A 
ATOM      6  C   UNL     1       3.301   5.088  19.817  0.00  0.00    +0.000 A 
ENDROOT
BRANCH   5   7
ATOM      7  N   UNL     1       1.564   6.264  21.053  0.00  0.00    +0.000 N 
ATOM      8  C   UNL     1       1.634   7.489  20.404  0.00  0.00    +0.000 C 
ATOM      9  O   UNL     1       2.237   7.719  19.355  0.00  0.00    +0.000 OA
ATOM     10  H   UNL     1       1.015   6.249  21.907  0.00  0.00    +0.000 HD
BRANCH   8  11
ATOM     11  C   UNL     1       0.907   8.634  21.037  0.00  0.00    +0.000 A 
ATOM     12  C   UNL     1       0.364   9.594  20.183  0.00  0.00    +0.000 A 
ATOM     13  C   UNL     1      -0.284  10.707  20.718  0.00  0.00    +0.000 A 
ATOM     14  C   UNL     1      -0.371  10.825  22.104  0.00  0.00    +0.000 A 
ATOM     15  C   UNL     1       0.186   9.799  22.880  0.00  0.00    +0.000 A 
ATOM     16  N   UNL     1       0.828   8.700  22.391  0.00  0.00    +0.000 NA
ATOM     17  C   UNL     1      -1.012  11.997  22.701  0.00  0.00    +0.000 C 
ATOM     18  C   UNL     1      -1.540  12.961  21.932  0.00  0.00    +0.000 C 
ATOM     19  C   UNL     1      -1.545  12.938  20.434  0.00  0.00    +0.000 C 
ATOM     20  C   UNL     1      -0.845  11.740  19.777  0.00  0.00    +0.000 C 
ENDBRANCH   8  11
ENDBRANCH   5   7
BRANCH   1  21
ATOM     21  C   UNL     1       5.190   3.917  18.562  0.00  0.00    +0.000 C 
BRANCH  21  22
ATOM     22  C   UNL     1       5.175   4.945  17.421  0.00  0.00    +0.000 C 
BRANCH  22  23
ATOM     23  C   UNL     1       5.025   4.342  16.019  0.00  0.00    +0.000 C 
BRANCH  23  29
ATOM     24  C   UNL     1       5.403   3.484  13.042  0.00  0.00    +0.000 C 
ATOM     25  N   UNL     1       6.293   4.308  13.814  0.00  0.00    +0.000 N 
ATOM     26  C   UNL     1       7.453   4.862  13.369  0.00  0.00    +0.000 A 
ATOM     27  N   UNL     1       8.016   5.543  14.338  0.00  0.00    +0.000 NA
ATOM     28  N   UNL     1       7.212   5.427  15.445  0.00  0.00    +0.000 NA
ATOM     29  C   UNL     1       6.164   4.693  15.123  0.00  0.00    +0.000 A 
ENDBRANCH  23  29
ENDBRANCH  22  23
ENDBRANCH  21  22
ENDBRANCH   1  21
TORSDOF 6
ENDMDL
MODEL 9
REMARK VINA RESULT:      -8.2      2.360      3.514
REMARK  Name = 
REMARK  7 active torsions:
REMARK  status: ('A' for Active; 'I' for Inactive)
REMARK    1  A    between atoms: C_1  and  N_2
REMARK    2  A    between atoms: C_6  and  C_7
REMARK    3  A    between atoms: C_7  and  C_8
REMARK    4  A    between atoms: C_8  and  C_9
REMARK    5  A    between atoms: C_9  and  C_10
REMARK    6  A    between atoms: C_14  and  N_15
REMARK    7  A    between atoms: C_16  and  C_18
REMARK                            x       y       z     vdW  Elec       q    Type
REMARK                         _______ _______ _______ _____ _____    ______ ____
ROOT
ATOM      1  C   UNL     1       4.570   4.492  18.131  0.00  0.00    +0.000 A 
ATOM      2  C   UNL     1       3.675   3.482  17.756  0.00  0.00    +0.000 A 
ATOM      3  C   UNL     1       2.312   3.730  17.749  0.00  0.00    +0.000 A 
ATOM      4  C   UNL     1       1.829   4.984  18.122  0.00  0.00    +0.000 A 
ATOM      5  C   UNL     1       2.691   6.013  18.521  0.00  0.00    +0.000 A 
ATOM      6  C   UNL     1       4.070   5.757  18.509  0.00  0.00    +0.000 A 
ENDROOT
BRANCH   5   7
ATOM      7  N   UNL     1       2.225   7.282  18.956  0.00  0.00    +0.000 N 
ATOM      8  C   UNL     1       2.194   8.436  18.186  0.00  0.00    +0.000 C 
ATOM      9  O   UNL     1       2.614   8.549  17.034  0.00  0.00    +0.000 OA
ATOM     10  H   UNL     1       1.826   7.362  19.887  0.00  0.00    +0.000 HD
BRANCH   8  11
ATOM     11  C   UNL     1       1.591   9.653  18.813  0.00  0.00    +0.000 A 
ATOM     12  C   UNL     1       1.914  10.887  18.250  0.00  0.00    +0.000 A 
ATOM     13  C   UNL     1       1.418  12.059  18.821  0.00  0.00    +0.000 A 
ATOM     14  C   UNL     1       0.604  11.958  19.949  0.00  0.00    +0.000 A 
ATOM     15  C   UNL     1       0.317  10.673  20.430  0.00  0.00    +0.000 A 
ATOM     16  N   UNL     1       0.786   9.509  19.899  0.00  0.00    +0.000 NA
ATOM     17  C   UNL     1       0.096  13.168  20.596  0.00  0.00    +0.000 C 
ATOM     18  C   UNL     1       0.384  14.384  20.110  0.00  0.00    +0.000 C 
ATOM     19  C   UNL     1       1.216  14.628  18.887  0.00  0.00    +0.000 C 
ATOM     20  C   UNL     1       1.797  13.381  18.208  0.00  0.00    +0.000 C 
ENDBRANCH   8  11
ENDBRANCH   5   7
BRANCH   1  21
ATOM     21  C   UNL     1       6.049   4.192  18.126  0.00  0.00    +0.000 C 
BRANCH  21  22
ATOM     22  C   UNL     1       6.775   4.704  16.874  0.00  0.00    +0.000 C 
BRANCH  22  23
ATOM     23  C   UNL     1       6.085   4.358  15.549  0.00  0.00    +0.000 C 
BRANCH  23  29
ATOM     24  C   UNL     1       5.706   3.390  12.605  0.00  0.00    +0.000 C 
ATOM     25  N   UNL     1       6.698   4.318  13.080  0.00  0.00    +0.000 N 
ATOM     26  C   UNL     1       7.636   4.939  12.317  0.00  0.00    +0.000 A 
ATOM     27  N   UNL     1       8.381   5.708  13.074  0.00  0.00    +0.000 NA
ATOM     28  N   UNL     1       7.926   5.583  14.363  0.00  0.00    +0.000 NA
ATOM     29  C   UNL     1       6.899   4.754  14.364  0.00  0.00    +0.000 A 
ENDBRANCH  23  29
ENDBRANCH  22  23
ENDBRANCH  21  22
ENDBRANCH   1  21
TORSDOF 6
ENDMDL
