MODEL 1
REMARK VINA RESULT:      -8.9      0.000      0.000
REMARK  Name = 
REMARK  4 active torsions:
REMARK  status: ('A' for Active; 'I' for Inactive)
REMARK    1  A    between atoms: C_2  and  C_3
REMARK    2  A    between atoms: C_3  and  C_4
REMARK    3  A    between atoms: C_4  and  N_5
REMARK    4  A    between atoms: N_19  and  C_20
REMARK                            x       y       z     vdW  Elec       q    Type
REMARK                         _______ _______ _______ _____ _____    ______ ____
ROOT
ATOM      1  N   UNL     1       6.066   5.898  17.537  0.00  0.00    +0.000 N 
ATOM      2  C   UNL     1       4.799   6.226  17.057  0.00  0.00    +0.000 A 
ATOM      3  N   UNL     1       3.651   5.782  17.479  0.00  0.00    +0.000 NA
ATOM      4  C   UNL     1       3.772   4.867  18.529  0.00  0.00    +0.000 A 
ATOM      5  C   UNL     1       4.976   4.503  19.058  0.00  0.00    +0.000 A 
ATOM      6  O   UNL     1       4.812   3.606  20.065  0.00  0.00    +0.000 OA
ATOM      7  C   UNL     1       3.460   3.407  20.172  0.00  0.00    +0.000 A 
ATOM      8  C   UNL     1       2.840   2.557  21.086  0.00  0.00    +0.000 A 
ATOM      9  C   UNL     1       1.445   2.503  21.050  0.00  0.00    +0.000 A 
ATOM     10  C   UNL     1       0.714   3.270  20.134  0.00  0.00    +0.000 A 
ATOM     11  C   UNL     1       1.362   4.114  19.218  0.00  0.00    +0.000 A 
ATOM     12  C   UNL     1       2.766   4.182  19.238  0.00  0.00    +0.000 A 
ATOM     13  C   UNL     1       6.232   5.018  18.615  0.00  0.00    +0.000 A 
ATOM     14  O   UNL     1       7.324   4.760  19.115  0.00  0.00    +0.000 OA
ENDROOT
BRANCH   1  15
ATOM     15  C   UNL     1       7.250   6.539  16.961  0.00  0.00    +0.000 C 
BRANCH  15  16
ATOM     16  C   UNL     1       7.198   8.060  17.116  0.00  0.00    +0.000 C 
BRANCH  16  18
ATOM     17  O   UNL     1       8.756   7.789  18.913  0.00  0.00    +0.000 OA
ATOM     18  C   UNL     1       8.222   8.558  18.122  0.00  0.00    +0.000 C 
ATOM     19  N   UNL     1       8.481   9.913  17.987  0.00  0.00    +0.000 N 
ATOM     20  H   UNL     1       7.829  10.455  17.433  0.00  0.00    +0.000 HD
BRANCH  19  21
ATOM     21  C   UNL     1       9.446  10.663  18.698  0.00  0.00    +0.000 A 
ATOM     22  C   UNL     1       9.396  10.872  20.077  0.00  0.00    +0.000 A 
ATOM     23  C   UNL     1      10.361  11.664  20.711  0.00  0.00    +0.000 A 
ATOM     24  C   UNL     1      11.384  12.252  19.970  0.00  0.00    +0.000 A 
ATOM     25  C   UNL     1      11.463  12.020  18.600  0.00  0.00    +0.000 A 
ATOM     26  C   UNL     1      10.507  11.217  17.969  0.00  0.00    +0.000 A 
ENDBRANCH  19  21
ENDBRANCH  16  18
ENDBRANCH  15  16
ENDBRANCH   1  15
TORSDOF 4
ENDMDL
MODEL 2
REMARK VINA RESULT:      -8.8      1.306      2.048
REMARK  Name = 
REMARK  4 active torsions:
REMARK  status: ('A' for Active; 'I' for Inactive)
REMARK    1  A    between atoms: C_2  and  C_3
REMARK    2  A    between atoms: C_3  and  C_4
REMARK    3  A    between atoms: C_4  and  N_5
REMARK    4  A    between atoms: N_19  and  C_20
REMARK                            x       y       z     vdW  Elec       q    Type
REMARK                         _______ _______ _______ _____ _____    ______ ____
ROOT
ATOM      1  N   UNL     1       6.325   6.033  17.779  0.00  0.00    +0.000 N 
ATOM      2  C   UNL     1       6.524   5.470  19.039  0.00  0.00    +0.000 A 
ATOM      3  N   UNL     1       5.686   4.754  19.730  0.00  0.00    +0.000 NA
ATOM      4  C   UNL     1       4.461   4.572  19.082  0.00  0.00    +0.000 A 
ATOM      5  C   UNL     1       4.193   5.082  17.845  0.00  0.00    +0.000 A 
ATOM      6  O   UNL     1       2.936   4.758  17.447  0.00  0.00    +0.000 OA
ATOM      7  C   UNL     1       2.401   4.015  18.467  0.00  0.00    +0.000 A 
ATOM      8  C   UNL     1       1.119   3.469  18.480  0.00  0.00    +0.000 A 
ATOM      9  C   UNL     1       0.762   2.726  19.608  0.00  0.00    +0.000 A 
ATOM     10  C   UNL     1       1.658   2.544  20.669  0.00  0.00    +0.000 A 
ATOM     11  C   UNL     1       2.943   3.109  20.635  0.00  0.00    +0.000 A 
ATOM     12  C   UNL     1       3.321   3.862  19.509  0.00  0.00    +0.000 A 
ATOM     13  C   UNL     1       5.127   5.840  17.076  0.00  0.00    +0.000 A 
ATOM     14  O   UNL     1       4.940   6.255  15.935  0.00  0.00    +0.000 OA
ENDROOT
BRANCH   1  15
ATOM     15  C   UNL     1       7.409   6.776  17.135  0.00  0.00    +0.000 C 
BRANCH  15  16
ATOM     16  C   UNL     1       7.272   8.283  17.365  0.00  0.00    +0.000 C 
BRANCH  16  18
ATOM     17  O   UNL     1       8.921   8.082  19.089  0.00  0.00    +0.000 OA
ATOM     18  C   UNL     1       8.364   8.813  18.278  0.00  0.00    +0.000 C 
ATOM     19  N   UNL     1       8.653  10.148  18.039  0.00  0.00    +0.000 N 
ATOM     20  H   UNL     1       7.985  10.672  17.486  0.00  0.00    +0.000 HD
BRANCH  19  21
ATOM     21  C   UNL     1       9.677  10.913  18.644  0.00  0.00    +0.000 A 
ATOM     22  C   UNL     1      10.791  11.393  17.953  0.00  0.00    +0.000 A 
ATOM     23  C   UNL     1      11.790  12.107  18.625  0.00  0.00    +0.000 A 
ATOM     24  C   UNL     1      11.682  12.346  19.993  0.00  0.00    +0.000 A 
ATOM     25  C   UNL     1      10.558  11.903  20.684  0.00  0.00    +0.000 A 
ATOM     26  C   UNL     1       9.553  11.201  20.010  0.00  0.00    +0.000 A 
ENDBRANCH  19  21
ENDBRANCH  16  18
ENDBRANCH  15  16
ENDBRANCH   1  15
TORSDOF 4
ENDMDL
MODEL 3
REMARK VINA RESULT:      -8.8      1.497      1.726
REMARK  Name = 
REMARK  4 active torsions:
REMARK  status: ('A' for Active; 'I' for Inactive)
REMARK    1  A    between atoms: C_2  and  C_3
REMARK    2  A    between atoms: C_3  and  C_4
REMARK    3  A    between atoms: C_4  and  N_5
REMARK    4  A    between atoms: N_19  and  C_20
REMARK                            x       y       z     vdW  Elec       q    Type
REMARK                         _______ _______ _______ _____ _____    ______ ____
ROOT
ATOM      1  N   UNL     1       7.011   6.679  18.142  0.00  0.00    +0.000 N 
ATOM      2  C   UNL     1       5.933   7.022  17.327  0.00  0.00    +0.000 A 
ATOM      3  N   UNL     1       4.796   6.402  17.212  0.00  0.00    +0.000 NA
ATOM      4  C   UNL     1       4.711   5.264  18.020  0.00  0.00    +0.000 A 
ATOM      5  C   UNL     1       5.719   4.869  18.851  0.00  0.00    +0.000 A 
ATOM      6  O   UNL     1       5.379   3.737  19.522  0.00  0.00    +0.000 OA
ATOM      7  C   UNL     1       4.115   3.418  19.100  0.00  0.00    +0.000 A 
ATOM      8  C   UNL     1       3.373   2.322  19.536  0.00  0.00    +0.000 A 
ATOM      9  C   UNL     1       2.092   2.174  18.999  0.00  0.00    +0.000 A 
ATOM     10  C   UNL     1       1.588   3.090  18.066  0.00  0.00    +0.000 A 
ATOM     11  C   UNL     1       2.357   4.183  17.638  0.00  0.00    +0.000 A 
ATOM     12  C   UNL     1       3.650   4.349  18.167  0.00  0.00    +0.000 A 
ATOM     13  C   UNL     1       6.953   5.571  18.999  0.00  0.00    +0.000 A 
ATOM     14  O   UNL     1       7.849   5.278  19.786  0.00  0.00    +0.000 OA
ENDROOT
BRANCH   1  15
ATOM     15  C   UNL     1       8.201   7.531  18.171  0.00  0.00    +0.000 C 
BRANCH  15  16
ATOM     16  C   UNL     1       7.870   8.975  17.789  0.00  0.00    +0.000 C 
BRANCH  16  18
ATOM     17  O   UNL     1       9.300   9.693  19.570  0.00  0.00    +0.000 OA
ATOM     18  C   UNL     1       8.782   9.965  18.492  0.00  0.00    +0.000 C 
ATOM     19  N   UNL     1       8.969  11.127  17.759  0.00  0.00    +0.000 N 
ATOM     20  H   UNL     1       8.329  11.295  16.992  0.00  0.00    +0.000 HD
BRANCH  19  21
ATOM     21  C   UNL     1       9.829  12.201  18.082  0.00  0.00    +0.000 A 
ATOM     22  C   UNL     1       9.400  13.370  18.713  0.00  0.00    +0.000 A 
ATOM     23  C   UNL     1      10.299  14.414  18.962  0.00  0.00    +0.000 A 
ATOM     24  C   UNL     1      11.634  14.296  18.584  0.00  0.00    +0.000 A 
ATOM     25  C   UNL     1      12.080  13.120  17.988  0.00  0.00    +0.000 A 
ATOM     26  C   UNL     1      11.185  12.071  17.750  0.00  0.00    +0.000 A 
ENDBRANCH  19  21
ENDBRANCH  16  18
ENDBRANCH  15  16
ENDBRANCH   1  15
TORSDOF 4
ENDMDL
MODEL 4
REMARK VINA RESULT:      -8.7      1.351      1.688
REMARK  Name = 
REMARK  4 active torsions:
REMARK  status: ('A' for Active; 'I' for Inactive)
REMARK    1  A    between atoms: C_2  and  C_3
REMARK    2  A    between atoms: C_3  and  C_4
REMARK    3  A    between atoms: C_4  and  N_5
REMARK    4  A    between atoms: N_19  and  C_20
REMARK                            x       y       z     vdW  Elec       q    Type
REMARK                         _______ _______ _______ _____ _____    ______ ____
ROOT
ATOM      1  N   UNL     1       6.812   6.599  17.954  0.00  0.00    +0.000 N 
ATOM      2  C   UNL     1       5.714   6.926  17.159  0.00  0.00    +0.000 A 
ATOM      3  N   UNL     1       4.558   6.331  17.119  0.00  0.00    +0.000 NA
ATOM      4  C   UNL     1       4.475   5.240  17.990  0.00  0.00    +0.000 A 
ATOM      5  C   UNL     1       5.502   4.864  18.806  0.00  0.00    +0.000 A 
ATOM      6  O   UNL     1       5.160   3.780  19.549  0.00  0.00    +0.000 OA
ATOM      7  C   UNL     1       3.873   3.472  19.190  0.00  0.00    +0.000 A 
ATOM      8  C   UNL     1       3.121   2.421  19.711  0.00  0.00    +0.000 A 
ATOM      9  C   UNL     1       1.818   2.279  19.228  0.00  0.00    +0.000 A 
ATOM     10  C   UNL     1       1.303   3.157  18.266  0.00  0.00    +0.000 A 
ATOM     11  C   UNL     1       2.083   4.204  17.752  0.00  0.00    +0.000 A 
ATOM     12  C   UNL     1       3.397   4.364  18.224  0.00  0.00    +0.000 A 
ATOM     13  C   UNL     1       6.758   5.540  18.871  0.00  0.00    +0.000 A 
ATOM     14  O   UNL     1       7.675   5.266  19.641  0.00  0.00    +0.000 OA
ENDROOT
BRANCH   1  15
ATOM     15  C   UNL     1       8.023   7.418  17.893  0.00  0.00    +0.000 C 
BRANCH  15  16
ATOM     16  C   UNL     1       7.692   8.900  17.701  0.00  0.00    +0.000 C 
BRANCH  16  18
ATOM     17  O   UNL     1       9.226   9.417  19.464  0.00  0.00    +0.000 OA
ATOM     18  C   UNL     1       8.672   9.796  18.438  0.00  0.00    +0.000 C 
ATOM     19  N   UNL     1       8.873  11.006  17.793  0.00  0.00    +0.000 N 
ATOM     20  H   UNL     1       8.207  11.260  17.072  0.00  0.00    +0.000 HD
BRANCH  19  21
ATOM     21  C   UNL     1       9.788  12.019  18.161  0.00  0.00    +0.000 A 
ATOM     22  C   UNL     1      11.095  12.089  17.676  0.00  0.00    +0.000 A 
ATOM     23  C   UNL     1      11.964  13.094  18.118  0.00  0.00    +0.000 A 
ATOM     24  C   UNL     1      11.531  14.037  19.047  0.00  0.00    +0.000 A 
ATOM     25  C   UNL     1      10.219  13.998  19.508  0.00  0.00    +0.000 A 
ATOM     26  C   UNL     1       9.346  13.002  19.057  0.00  0.00    +0.000 A 
ENDBRANCH  19  21
ENDBRANCH  16  18
ENDBRANCH  15  16
ENDBRANCH   1  15
TORSDOF 4
ENDMDL
MODEL 5
REMARK VINA RESULT:      -8.4      1.288      1.639
REMARK  Name = 
REMARK  4 active torsions:
REMARK  status: ('A' for Active; 'I' for Inactive)
REMARK    1  A    between atoms: C_2  and  C_3
REMARK    2  A    between atoms: C_3  and  C_4
REMARK    3  A    between atoms: C_4  and  N_5
REMARK    4  A    between atoms: N_19  and  C_20
REMARK                            x       y       z     vdW  Elec       q    Type
REMARK                         _______ _______ _______ _____ _____    ______ ____
ROOT
ATOM      1  N   UNL     1       6.385   6.295  17.412  0.00  0.00    +0.000 N 
ATOM      2  C   UNL     1       5.153   6.897  17.159  0.00  0.00    +0.000 A 
ATOM      3  N   UNL     1       3.970   6.387  17.334  0.00  0.00    +0.000 NA
ATOM      4  C   UNL     1       4.006   5.080  17.826  0.00  0.00    +0.000 A 
ATOM      5  C   UNL     1       5.171   4.426  18.108  0.00  0.00    +0.000 A 
ATOM      6  O   UNL     1       4.925   3.174  18.574  0.00  0.00    +0.000 OA
ATOM      7  C   UNL     1       3.561   3.043  18.590  0.00  0.00    +0.000 A 
ATOM      8  C   UNL     1       2.865   1.907  19.001  0.00  0.00    +0.000 A 
ATOM      9  C   UNL     1       1.471   1.973  18.959  0.00  0.00    +0.000 A 
ATOM     10  C   UNL     1       0.813   3.130  18.522  0.00  0.00    +0.000 A 
ATOM     11  C   UNL     1       1.536   4.259  18.106  0.00  0.00    +0.000 A 
ATOM     12  C   UNL     1       2.941   4.212  18.140  0.00  0.00    +0.000 A 
ATOM     13  C   UNL     1       6.468   5.001  17.946  0.00  0.00    +0.000 A 
ATOM     14  O   UNL     1       7.528   4.464  18.253  0.00  0.00    +0.000 OA
ENDROOT
BRANCH   1  15
ATOM     15  C   UNL     1       7.621   7.048  17.194  0.00  0.00    +0.000 C 
BRANCH  15  16
ATOM     16  C   UNL     1       8.153   7.647  18.498  0.00  0.00    +0.000 C 
BRANCH  16  18
ATOM     17  O   UNL     1       7.874   9.811  17.513  0.00  0.00    +0.000 OA
ATOM     18  C   UNL     1       8.449   9.130  18.355  0.00  0.00    +0.000 C 
ATOM     19  N   UNL     1       9.368   9.580  19.291  0.00  0.00    +0.000 N 
ATOM     20  H   UNL     1       9.902   8.876  19.787  0.00  0.00    +0.000 HD
BRANCH  19  21
ATOM     21  C   UNL     1       9.785  10.915  19.491  0.00  0.00    +0.000 A 
ATOM     22  C   UNL     1      10.295  11.725  18.474  0.00  0.00    +0.000 A 
ATOM     23  C   UNL     1      10.731  13.025  18.753  0.00  0.00    +0.000 A 
ATOM     24  C   UNL     1      10.660  13.527  20.050  0.00  0.00    +0.000 A 
ATOM     25  C   UNL     1      10.119  12.741  21.064  0.00  0.00    +0.000 A 
ATOM     26  C   UNL     1       9.671  11.446  20.783  0.00  0.00    +0.000 A 
ENDBRANCH  19  21
ENDBRANCH  16  18
ENDBRANCH  15  16
ENDBRANCH   1  15
TORSDOF 4
ENDMDL
MODEL 6
REMARK VINA RESULT:      -8.4      4.326      7.284
REMARK  Name = 
REMARK  4 active torsions:
REMARK  status: ('A' for Active; 'I' for Inactive)
REMARK    1  A    between atoms: C_2  and  C_3
REMARK    2  A    between atoms: C_3  and  C_4
REMARK    3  A    between atoms: C_4  and  N_5
REMARK    4  A    between atoms: N_19  and  C_20
REMARK                            x       y       z     vdW  Elec       q    Type
REMARK                         _______ _______ _______ _____ _____    ______ ____
ROOT
ATOM      1  N   UNL     1       5.164   4.861  18.164  0.00  0.00    +0.000 N 
ATOM      2  C   UNL     1       4.419   3.935  17.436  0.00  0.00    +0.000 A 
ATOM      3  N   UNL     1       4.579   3.590  16.192  0.00  0.00    +0.000 NA
ATOM      4  C   UNL     1       5.629   4.269  15.568  0.00  0.00    +0.000 A 
ATOM      5  C   UNL     1       6.409   5.183  16.216  0.00  0.00    +0.000 A 
ATOM      6  O   UNL     1       7.355   5.691  15.384  0.00  0.00    +0.000 OA
ATOM      7  C   UNL     1       7.163   5.070  14.177  0.00  0.00    +0.000 A 
ATOM      8  C   UNL     1       7.919   5.293  13.027  0.00  0.00    +0.000 A 
ATOM      9  C   UNL     1       7.578   4.548  11.896  0.00  0.00    +0.000 A 
ATOM     10  C   UNL     1       6.525   3.625  11.926  0.00  0.00    +0.000 A 
ATOM     11  C   UNL     1       5.774   3.424  13.095  0.00  0.00    +0.000 A 
ATOM     12  C   UNL     1       6.101   4.164  14.245  0.00  0.00    +0.000 A 
ATOM     13  C   UNL     1       6.252   5.534  17.591  0.00  0.00    +0.000 A 
ATOM     14  O   UNL     1       6.978   6.301  18.217  0.00  0.00    +0.000 OA
ENDROOT
BRANCH   1  15
ATOM     15  C   UNL     1       4.862   5.087  19.579  0.00  0.00    +0.000 C 
BRANCH  15  16
ATOM     16  C   UNL     1       3.573   4.377  19.999  0.00  0.00    +0.000 C 
BRANCH  16  18
ATOM     17  O   UNL     1       1.363   5.004  20.675  0.00  0.00    +0.000 OA
ATOM     18  C   UNL     1       2.422   5.355  20.166  0.00  0.00    +0.000 C 
ATOM     19  N   UNL     1       2.744   6.632  19.732  0.00  0.00    +0.000 N 
ATOM     20  H   UNL     1       3.573   6.728  19.159  0.00  0.00    +0.000 HD
BRANCH  19  21
ATOM     21  C   UNL     1       1.937   7.788  19.837  0.00  0.00    +0.000 A 
ATOM     22  C   UNL     1       1.254   8.149  20.999  0.00  0.00    +0.000 A 
ATOM     23  C   UNL     1       0.436   9.285  21.019  0.00  0.00    +0.000 A 
ATOM     24  C   UNL     1       0.296  10.069  19.877  0.00  0.00    +0.000 A 
ATOM     25  C   UNL     1       1.002   9.738  18.724  0.00  0.00    +0.000 A 
ATOM     26  C   UNL     1       1.830   8.611  18.707  0.00  0.00    +0.000 A 
ENDBRANCH  19  21
ENDBRANCH  16  18
ENDBRANCH  15  16
ENDBRANCH   1  15
TORSDOF 4
ENDMDL
MODEL 7
REMARK VINA RESULT:      -8.3      1.593      2.044
REMARK  Name = 
REMARK  4 active torsions:
REMARK  status: ('A' for Active; 'I' for Inactive)
REMARK    1  A    between atoms: C_2  and  C_3
REMARK    2  A    between atoms: C_3  and  C_4
REMARK    3  A    between atoms: C_4  and  N_5
REMARK    4  A    between atoms: N_19  and  C_20
REMARK                            x       y       z     vdW  Elec       q    Type
REMARK                         _______ _______ _______ _____ _____    ______ ____
ROOT
ATOM      1  N   UNL     1       5.832   6.423  17.984  0.00  0.00    +0.000 N 
ATOM      2  C   UNL     1       6.384   5.348  18.680  0.00  0.00    +0.000 A 
ATOM      3  N   UNL     1       5.755   4.441  19.368  0.00  0.00    +0.000 NA
ATOM      4  C   UNL     1       4.370   4.628  19.379  0.00  0.00    +0.000 A 
ATOM      5  C   UNL     1       3.754   5.649  18.715  0.00  0.00    +0.000 A 
ATOM      6  O   UNL     1       2.408   5.598  18.887  0.00  0.00    +0.000 OA
ATOM      7  C   UNL     1       2.173   4.505  19.680  0.00  0.00    +0.000 A 
ATOM      8  C   UNL     1       0.919   4.075  20.108  0.00  0.00    +0.000 A 
ATOM      9  C   UNL     1       0.884   2.926  20.901  0.00  0.00    +0.000 A 
ATOM     10  C   UNL     1       2.060   2.246  21.243  0.00  0.00    +0.000 A 
ATOM     11  C   UNL     1       3.312   2.703  20.804  0.00  0.00    +0.000 A 
ATOM     12  C   UNL     1       3.369   3.859  20.006  0.00  0.00    +0.000 A 
ATOM     13  C   UNL     1       4.445   6.624  17.934  0.00  0.00    +0.000 A 
ATOM     14  O   UNL     1       3.915   7.512  17.272  0.00  0.00    +0.000 OA
ENDROOT
BRANCH   1  15
ATOM     15  C   UNL     1       6.703   7.321  17.225  0.00  0.00    +0.000 C 
BRANCH  15  16
ATOM     16  C   UNL     1       8.025   7.572  17.952  0.00  0.00    +0.000 C 
BRANCH  16  18
ATOM     17  O   UNL     1       7.656   9.900  17.531  0.00  0.00    +0.000 OA
ATOM     18  C   UNL     1       8.275   9.055  18.168  0.00  0.00    +0.000 C 
ATOM     19  N   UNL     1       9.211   9.296  19.162  0.00  0.00    +0.000 N 
ATOM     20  H   UNL     1       9.780   8.512  19.459  0.00  0.00    +0.000 HD
BRANCH  19  21
ATOM     21  C   UNL     1       9.597  10.557  19.671  0.00  0.00    +0.000 A 
ATOM     22  C   UNL     1       9.221  11.029  20.930  0.00  0.00    +0.000 A 
ATOM     23  C   UNL     1       9.602  12.307  21.353  0.00  0.00    +0.000 A 
ATOM     24  C   UNL     1      10.364  13.124  20.521  0.00  0.00    +0.000 A 
ATOM     25  C   UNL     1      10.775  12.649  19.279  0.00  0.00    +0.000 A 
ATOM     26  C   UNL     1      10.406  11.366  18.861  0.00  0.00    +0.000 A 
ENDBRANCH  19  21
ENDBRANCH  16  18
ENDBRANCH  15  16
ENDBRANCH   1  15
TORSDOF 4
ENDMDL
MODEL 8
REMARK VINA RESULT:      -8.2      1.836      2.436
REMARK  Name = 
REMARK  4 active torsions:
REMARK  status: ('A' for Active; 'I' for Inactive)
REMARK    1  A    between atoms: C_2  and  C_3
REMARK    2  A    between atoms: C_3  and  C_4
REMARK    3  A    between atoms: C_4  and  N_5
REMARK    4  A    between atoms: N_19  and  C_20
REMARK                            x       y       z     vdW  Elec       q    Type
REMARK                         _______ _______ _______ _____ _____    ______ ____
ROOT
ATOM      1  N   UNL     1       7.032   6.603  17.958  0.00  0.00    +0.000 N 
ATOM      2  C   UNL     1       7.167   5.865  19.133  0.00  0.00    +0.000 A 
ATOM      3  N   UNL     1       6.348   4.974  19.609  0.00  0.00    +0.000 NA
ATOM      4  C   UNL     1       5.217   4.788  18.807  0.00  0.00    +0.000 A 
ATOM      5  C   UNL     1       5.018   5.466  17.639  0.00  0.00    +0.000 A 
ATOM      6  O   UNL     1       3.847   5.097  17.058  0.00  0.00    +0.000 OA
ATOM      7  C   UNL     1       3.299   4.153  17.887  0.00  0.00    +0.000 A 
ATOM      8  C   UNL     1       2.087   3.499  17.674  0.00  0.00    +0.000 A 
ATOM      9  C   UNL     1       1.705   2.554  18.629  0.00  0.00    +0.000 A 
ATOM     10  C   UNL     1       2.508   2.286  19.745  0.00  0.00    +0.000 A 
ATOM     11  C   UNL     1       3.721   2.963  19.941  0.00  0.00    +0.000 A 
ATOM     12  C   UNL     1       4.124   3.919  18.991  0.00  0.00    +0.000 A 
ATOM     13  C   UNL     1       5.935   6.419  17.103  0.00  0.00    +0.000 A 
ATOM     14  O   UNL     1       5.816   6.993  16.024  0.00  0.00    +0.000 OA
ENDROOT
BRANCH   1  15
ATOM     15  C   UNL     1       8.087   7.536  17.559  0.00  0.00    +0.000 C 
BRANCH  15  16
ATOM     16  C   UNL     1       7.640   8.991  17.717  0.00  0.00    +0.000 C 
BRANCH  16  18
ATOM     17  O   UNL     1       9.201   9.395  19.487  0.00  0.00    +0.000 OA
ATOM     18  C   UNL     1       8.672   9.818  18.465  0.00  0.00    +0.000 C 
ATOM     19  N   UNL     1       8.946  11.022  17.834  0.00  0.00    +0.000 N 
ATOM     20  H   UNL     1       8.297  11.324  17.117  0.00  0.00    +0.000 HD
BRANCH  19  21
ATOM     21  C   UNL     1       9.920  11.973  18.214  0.00  0.00    +0.000 A 
ATOM     22  C   UNL     1      11.252  11.920  17.800  0.00  0.00    +0.000 A 
ATOM     23  C   UNL     1      12.175  12.870  18.251  0.00  0.00    +0.000 A 
ATOM     24  C   UNL     1      11.773  13.881  19.120  0.00  0.00    +0.000 A 
ATOM     25  C   UNL     1      10.440  13.965  19.511  0.00  0.00    +0.000 A 
ATOM     26  C   UNL     1       9.514  13.023  19.049  0.00  0.00    +0.000 A 
ENDBRANCH  19  21
ENDBRANCH  16  18
ENDBRANCH  15  16
ENDBRANCH   1  15
TORSDOF 4
ENDMDL
MODEL 9
REMARK VINA RESULT:      -8.2      4.668      6.604
REMARK  Name = 
REMARK  4 active torsions:
REMARK  status: ('A' for Active; 'I' for Inactive)
REMARK    1  A    between atoms: C_2  and  C_3
REMARK    2  A    between atoms: C_3  and  C_4
REMARK    3  A    between atoms: C_4  and  N_5
REMARK    4  A    between atoms: N_19  and  C_20
REMARK                            x       y       z     vdW  Elec       q    Type
REMARK                         _______ _______ _______ _____ _____    ______ ____
ROOT
ATOM      1  N   UNL     1       3.668   5.697  18.421  0.00  0.00    +0.000 N 
ATOM      2  C   UNL     1       3.606   6.825  17.603  0.00  0.00    +0.000 A 
ATOM      3  N   UNL     1       2.945   7.924  17.818  0.00  0.00    +0.000 NA
ATOM      4  C   UNL     1       2.229   7.906  19.018  0.00  0.00    +0.000 A 
ATOM      5  C   UNL     1       2.246   6.844  19.875  0.00  0.00    +0.000 A 
ATOM      6  O   UNL     1       1.470   7.085  20.963  0.00  0.00    +0.000 OA
ATOM      7  C   UNL     1       0.955   8.342  20.783  0.00  0.00    +0.000 A 
ATOM      8  C   UNL     1       0.098   8.996  21.667  0.00  0.00    +0.000 A 
ATOM      9  C   UNL     1      -0.308  10.285  21.313  0.00  0.00    +0.000 A 
ATOM     10  C   UNL     1       0.131  10.882  20.124  0.00  0.00    +0.000 A 
ATOM     11  C   UNL     1       0.989  10.200  19.247  0.00  0.00    +0.000 A 
ATOM     12  C   UNL     1       1.408   8.901  19.584  0.00  0.00    +0.000 A 
ATOM     13  C   UNL     1       2.999   5.651  19.652  0.00  0.00    +0.000 A 
ATOM     14  O   UNL     1       3.088   4.709  20.435  0.00  0.00    +0.000 OA
ENDROOT
BRANCH   1  15
ATOM     15  C   UNL     1       4.507   4.562  18.032  0.00  0.00    +0.000 C 
BRANCH  15  16
ATOM     16  C   UNL     1       5.991   4.855  18.261  0.00  0.00    +0.000 C 
BRANCH  16  18
ATOM     17  O   UNL     1       7.985   4.329  17.044  0.00  0.00    +0.000 OA
ATOM     18  C   UNL     1       6.805   4.657  16.993  0.00  0.00    +0.000 C 
ATOM     19  N   UNL     1       6.051   4.843  15.845  0.00  0.00    +0.000 N 
ATOM     20  H   UNL     1       5.154   5.301  15.952  0.00  0.00    +0.000 HD
BRANCH  19  21
ATOM     21  C   UNL     1       6.478   4.642  14.512  0.00  0.00    +0.000 A 
ATOM     22  C   UNL     1       7.508   5.369  13.915  0.00  0.00    +0.000 A 
ATOM     23  C   UNL     1       7.850   5.149  12.575  0.00  0.00    +0.000 A 
ATOM     24  C   UNL     1       7.164   4.198  11.823  0.00  0.00    +0.000 A 
ATOM     25  C   UNL     1       6.159   3.442  12.420  0.00  0.00    +0.000 A 
ATOM     26  C   UNL     1       5.827   3.653  13.762  0.00  0.00    +0.000 A 
ENDBRANCH  19  21
ENDBRANCH  16  18
ENDBRANCH  15  16
ENDBRANCH   1  15
TORSDOF 4
ENDMDL
