MODEL 1
REMARK VINA RESULT:      -8.6      0.000      0.000
REMARK  Name = 
REMARK  8 active torsions:
REMARK  status: ('A' for Active; 'I' for Inactive)
REMARK    1  A    between atoms: C_1  and  C_2
REMARK    2  A    between atoms: N_4  and  C_5
REMARK    3  A    between atoms: C_9  and  N_10
REMARK    4  A    between atoms: C_11  and  C_13
REMARK    5  A    between atoms: N_16  and  C_17
REMARK    6  A    between atoms: C_24  and  C_25
REMARK    7  A    between atoms: C_25  and  C_26
REMARK    8  A    between atoms: C_25  and  C_27
REMARK                            x       y       z     vdW  Elec       q    Type
REMARK                         _______ _______ _______ _____ _____    ______ ____
ROOT
ATOM      1  N   UNL     1       1.868   7.702  20.277  0.00  0.00    +0.000 N 
ATOM      2  C   UNL     1       1.331   8.920  19.897  0.00  0.00    +0.000 C 
ATOM      3  O   UNL     1       1.491   9.429  18.794  0.00  0.00    +0.000 OA
ATOM      4  H   UNL     1       1.763   7.434  21.243  0.00  0.00    +0.000 HD
ENDROOT
BRANCH   1  13
ATOM      5  C   UNL     1       2.174   2.015  19.160  0.00  0.00    +0.000 C 
ATOM      6  C   UNL     1       2.937   3.084  18.470  0.00  0.00    +0.000 A 
ATOM      7  N   UNL     1       3.790   2.750  17.489  0.00  0.00    +0.000 NA
ATOM      8  N   UNL     1       4.299   3.935  17.088  0.00  0.00    +0.000 N 
ATOM      9  C   UNL     1       5.294   3.988  16.045  0.00  0.00    +0.000 C 
ATOM     10  C   UNL     1       3.790   5.008  17.769  0.00  0.00    +0.000 A 
ATOM     11  N   UNL     1       4.100   6.301  17.568  0.00  0.00    +0.000 NA
ATOM     12  C   UNL     1       3.439   7.139  18.412  0.00  0.00    +0.000 A 
ATOM     13  C   UNL     1       2.533   6.776  19.414  0.00  0.00    +0.000 A 
ATOM     14  C   UNL     1       2.252   5.406  19.559  0.00  0.00    +0.000 A 
ATOM     15  C   UNL     1       2.905   4.490  18.700  0.00  0.00    +0.000 A 
ENDBRANCH   1  13
BRANCH   2  16
ATOM     16  C   UNL     1       0.588   9.669  20.915  0.00  0.00    +0.000 A 
ATOM     17  C   UNL     1       0.828   9.454  22.288  0.00  0.00    +0.000 A 
ATOM     18  N   UNL     1       0.038  10.167  23.072  0.00  0.00    +0.000 NA
ATOM     19  N   UNL     1      -0.606  11.028  22.245  0.00  0.00    +0.000 N 
ATOM     20  C   UNL     1      -0.358  10.707  20.881  0.00  0.00    +0.000 A 
BRANCH  19  21
ATOM     21  C   UNL     1      -1.390  12.053  22.881  0.00  0.00    +0.000 A 
ATOM     22  C   UNL     1      -0.856  13.359  22.959  0.00  0.00    +0.000 A 
ATOM     23  C   UNL     1      -1.576  14.403  23.555  0.00  0.00    +0.000 A 
ATOM     24  C   UNL     1      -2.838  14.162  24.086  0.00  0.00    +0.000 A 
ATOM     25  C   UNL     1      -3.385  12.888  23.983  0.00  0.00    +0.000 A 
ATOM     26 CL   UNL     1      -4.962  12.584  24.609  0.00  0.00    +0.000 Cl
ATOM     27  C   UNL     1      -2.683  11.848  23.363  0.00  0.00    +0.000 A 
ENDBRANCH  19  21
BRANCH  20  28
ATOM     28  C   UNL     1      -1.060  11.399  19.731  0.00  0.00    +0.000 C 
ATOM     29  C   UNL     1      -0.237  12.446  18.988  0.00  0.00    +0.000 C 
ATOM     30  C   UNL     1      -1.700  10.394  18.774  0.00  0.00    +0.000 C 
ENDBRANCH  20  28
ENDBRANCH   2  16
TORSDOF 4
ENDMDL
MODEL 2
REMARK VINA RESULT:      -8.5      0.994      1.830
REMARK  Name = 
REMARK  8 active torsions:
REMARK  status: ('A' for Active; 'I' for Inactive)
REMARK    1  A    between atoms: C_1  and  C_2
REMARK    2  A    between atoms: N_4  and  C_5
REMARK    3  A    between atoms: C_9  and  N_10
REMARK    4  A    between atoms: C_11  and  C_13
REMARK    5  A    between atoms: N_16  and  C_17
REMARK    6  A    between atoms: C_24  and  C_25
REMARK    7  A    between atoms: C_25  and  C_26
REMARK    8  A    between atoms: C_25  and  C_27
REMARK                            x       y       z     vdW  Elec       q    Type
REMARK                         _______ _______ _______ _____ _____    ______ ____
ROOT
ATOM      1  N   UNL     1       1.474   7.212  20.950  0.00  0.00    +0.000 N 
ATOM      2  C   UNL     1       1.240   8.464  20.406  0.00  0.00    +0.000 C 
ATOM      3  O   UNL     1       1.632   8.819  19.302  0.00  0.00    +0.000 OA
ATOM      4  H   UNL     1       1.199   7.069  21.909  0.00  0.00    +0.000 HD
ENDROOT
BRANCH   1  13
ATOM      5  C   UNL     1       4.945   5.981  16.464  0.00  0.00    +0.000 C 
ATOM      6  C   UNL     1       4.293   4.996  17.361  0.00  0.00    +0.000 A 
ATOM      7  N   UNL     1       4.496   3.686  17.152  0.00  0.00    +0.000 NA
ATOM      8  N   UNL     1       3.776   3.090  18.126  0.00  0.00    +0.000 N 
ATOM      9  C   UNL     1       3.720   1.651  18.217  0.00  0.00    +0.000 C 
ATOM     10  C   UNL     1       3.135   3.973  18.953  0.00  0.00    +0.000 A 
ATOM     11  N   UNL     1       2.368   3.662  20.012  0.00  0.00    +0.000 NA
ATOM     12  C   UNL     1       1.854   4.759  20.632  0.00  0.00    +0.000 A 
ATOM     13  C   UNL     1       2.042   6.095  20.262  0.00  0.00    +0.000 A 
ATOM     14  C   UNL     1       2.865   6.343  19.149  0.00  0.00    +0.000 A 
ATOM     15  C   UNL     1       3.433   5.237  18.473  0.00  0.00    +0.000 A 
ENDBRANCH   1  13
BRANCH   2  16
ATOM     16  C   UNL     1       0.541   9.438  21.250  0.00  0.00    +0.000 A 
ATOM     17  C   UNL     1       0.598   9.347  22.656  0.00  0.00    +0.000 A 
ATOM     18  N   UNL     1      -0.129  10.267  23.266  0.00  0.00    +0.000 NA
ATOM     19  N   UNL     1      -0.524  11.121  22.289  0.00  0.00    +0.000 N 
ATOM     20  C   UNL     1      -0.198  10.607  21.002  0.00  0.00    +0.000 A 
BRANCH  19  21
ATOM     21  C   UNL     1      -1.174  12.327  22.723  0.00  0.00    +0.000 A 
ATOM     22  C   UNL     1      -0.468  13.547  22.625  0.00  0.00    +0.000 A 
ATOM     23  C   UNL     1      -1.052  14.758  23.020  0.00  0.00    +0.000 A 
ATOM     24  C   UNL     1      -2.349  14.772  23.522  0.00  0.00    +0.000 A 
ATOM     25  C   UNL     1      -3.063  13.582  23.590  0.00  0.00    +0.000 A 
ATOM     26 CL   UNL     1      -4.682  13.592  24.180  0.00  0.00    +0.000 Cl
ATOM     27  C   UNL     1      -2.496  12.373  23.169  0.00  0.00    +0.000 A 
ENDBRANCH  19  21
BRANCH  20  28
ATOM     28  C   UNL     1      -0.646  11.266  19.714  0.00  0.00    +0.000 C 
ATOM     29  C   UNL     1       0.434  12.025  18.949  0.00  0.00    +0.000 C 
ATOM     30  C   UNL     1      -1.402  10.290  18.813  0.00  0.00    +0.000 C 
ENDBRANCH  20  28
ENDBRANCH   2  16
TORSDOF 4
ENDMDL
MODEL 3
REMARK VINA RESULT:      -8.5      1.448      2.290
REMARK  Name = 
REMARK  8 active torsions:
REMARK  status: ('A' for Active; 'I' for Inactive)
REMARK    1  A    between atoms: C_1  and  C_2
REMARK    2  A    between atoms: N_4  and  C_5
REMARK    3  A    between atoms: C_9  and  N_10
REMARK    4  A    between atoms: C_11  and  C_13
REMARK    5  A    between atoms: N_16  and  C_17
REMARK    6  A    between atoms: C_24  and  C_25
REMARK    7  A    between atoms: C_25  and  C_26
REMARK    8  A    between atoms: C_25  and  C_27
REMARK                            x       y       z     vdW  Elec       q    Type
REMARK                         _______ _______ _______ _____ _____    ______ ____
ROOT
ATOM      1  N   UNL     1       1.436   7.220  20.961  0.00  0.00    +0.000 N 
ATOM      2  C   UNL     1       1.211   8.480  20.433  0.00  0.00    +0.000 C 
ATOM      3  O   UNL     1       1.612   8.848  19.336  0.00  0.00    +0.000 OA
ATOM      4  H   UNL     1       1.154   7.064  21.917  0.00  0.00    +0.000 HD
ENDROOT
BRANCH   1  13
ATOM      5  C   UNL     1       4.935   6.038  16.484  0.00  0.00    +0.000 C 
ATOM      6  C   UNL     1       4.274   5.043  17.363  0.00  0.00    +0.000 A 
ATOM      7  N   UNL     1       4.475   3.736  17.139  0.00  0.00    +0.000 NA
ATOM      8  N   UNL     1       3.747   3.128  18.101  0.00  0.00    +0.000 N 
ATOM      9  C   UNL     1       3.688   1.689  18.172  0.00  0.00    +0.000 C 
ATOM     10  C   UNL     1       3.103   4.002  18.934  0.00  0.00    +0.000 A 
ATOM     11  N   UNL     1       2.328   3.680  19.984  0.00  0.00    +0.000 NA
ATOM     12  C   UNL     1       1.813   4.770  20.614  0.00  0.00    +0.000 A 
ATOM     13  C   UNL     1       2.007   6.110  20.263  0.00  0.00    +0.000 A 
ATOM     14  C   UNL     1       2.837   6.370  19.159  0.00  0.00    +0.000 A 
ATOM     15  C   UNL     1       3.408   5.271  18.472  0.00  0.00    +0.000 A 
ENDBRANCH   1  13
BRANCH   2  16
ATOM     16  C   UNL     1       0.508   9.444  21.284  0.00  0.00    +0.000 A 
ATOM     17  C   UNL     1       0.565   9.343  22.689  0.00  0.00    +0.000 A 
ATOM     18  N   UNL     1      -0.166  10.255  23.307  0.00  0.00    +0.000 NA
ATOM     19  N   UNL     1      -0.563  11.115  22.336  0.00  0.00    +0.000 N 
ATOM     20  C   UNL     1      -0.236  10.612  21.045  0.00  0.00    +0.000 A 
BRANCH  19  21
ATOM     21  C   UNL     1      -1.219  12.315  22.779  0.00  0.00    +0.000 A 
ATOM     22  C   UNL     1      -2.524  12.215  23.312  0.00  0.00    +0.000 A 
ATOM     23  C   UNL     1      -3.210  13.347  23.772  0.00  0.00    +0.000 A 
ATOM     24  C   UNL     1      -2.607  14.599  23.706  0.00  0.00    +0.000 A 
ATOM     25  C   UNL     1      -1.310  14.702  23.215  0.00  0.00    +0.000 A 
ATOM     26 CL   UNL     1      -0.541  16.243  23.158  0.00  0.00    +0.000 Cl
ATOM     27  C   UNL     1      -0.609  13.571  22.781  0.00  0.00    +0.000 A 
ENDBRANCH  19  21
BRANCH  20  28
ATOM     28  C   UNL     1      -0.686  11.280  19.762  0.00  0.00    +0.000 C 
ATOM     29  C   UNL     1       0.388  12.056  19.008  0.00  0.00    +0.000 C 
ATOM     30  C   UNL     1      -1.431  10.305  18.850  0.00  0.00    +0.000 C 
ENDBRANCH  20  28
ENDBRANCH   2  16
TORSDOF 4
ENDMDL
MODEL 4
REMARK VINA RESULT:      -8.4      0.992      1.333
REMARK  Name = 
REMARK  8 active torsions:
REMARK  status: ('A' for Active; 'I' for Inactive)
REMARK    1  A    between atoms: C_1  and  C_2
REMARK    2  A    between atoms: N_4  and  C_5
REMARK    3  A    between atoms: C_9  and  N_10
REMARK    4  A    between atoms: C_11  and  C_13
REMARK    5  A    between atoms: N_16  and  C_17
REMARK    6  A    between atoms: C_24  and  C_25
REMARK    7  A    between atoms: C_25  and  C_26
REMARK    8  A    between atoms: C_25  and  C_27
REMARK                            x       y       z     vdW  Elec       q    Type
REMARK                         _______ _______ _______ _____ _____    ______ ____
ROOT
ATOM      1  N   UNL     1       1.824   7.725  20.338  0.00  0.00    +0.000 N 
ATOM      2  C   UNL     1       1.283   8.932  19.926  0.00  0.00    +0.000 C 
ATOM      3  O   UNL     1       1.433   9.408  18.808  0.00  0.00    +0.000 OA
ATOM      4  H   UNL     1       1.727   7.486  21.312  0.00  0.00    +0.000 HD
ENDROOT
BRANCH   1  13
ATOM      5  C   UNL     1       1.949   2.029  19.228  0.00  0.00    +0.000 C 
ATOM      6  C   UNL     1       2.774   3.068  18.564  0.00  0.00    +0.000 A 
ATOM      7  N   UNL     1       3.645   2.702  17.612  0.00  0.00    +0.000 NA
ATOM      8  N   UNL     1       4.212   3.866  17.228  0.00  0.00    +0.000 N 
ATOM      9  C   UNL     1       5.242   3.880  16.219  0.00  0.00    +0.000 C 
ATOM     10  C   UNL     1       3.723   4.958  17.893  0.00  0.00    +0.000 A 
ATOM     11  N   UNL     1       4.087   6.238  17.703  0.00  0.00    +0.000 NA
ATOM     12  C   UNL     1       3.432   7.101  18.525  0.00  0.00    +0.000 A 
ATOM     13  C   UNL     1       2.481   6.774  19.497  0.00  0.00    +0.000 A 
ATOM     14  C   UNL     1       2.142   5.416  19.631  0.00  0.00    +0.000 A 
ATOM     15  C   UNL     1       2.788   4.475  18.794  0.00  0.00    +0.000 A 
ENDBRANCH   1  13
BRANCH   2  16
ATOM     16  C   UNL     1       0.550   9.711  20.928  0.00  0.00    +0.000 A 
ATOM     17  C   UNL     1       0.744   9.481  22.306  0.00  0.00    +0.000 A 
ATOM     18  N   UNL     1      -0.032  10.227  23.073  0.00  0.00    +0.000 NA
ATOM     19  N   UNL     1      -0.615  11.119  22.234  0.00  0.00    +0.000 N 
ATOM     20  C   UNL     1      -0.347  10.791  20.875  0.00  0.00    +0.000 A 
BRANCH  19  21
ATOM     21  C   UNL     1      -1.367  12.176  22.854  0.00  0.00    +0.000 A 
ATOM     22  C   UNL     1      -2.681  11.902  23.294  0.00  0.00    +0.000 A 
ATOM     23  C   UNL     1      -3.460  12.887  23.916  0.00  0.00    +0.000 A 
ATOM     24  C   UNL     1      -2.941  14.163  24.107  0.00  0.00    +0.000 A 
ATOM     25  C   UNL     1      -1.637  14.432  23.708  0.00  0.00    +0.000 A 
ATOM     26 CL   UNL     1      -0.973  16.001  23.968  0.00  0.00    +0.000 Cl
ATOM     27  C   UNL     1      -0.845  13.444  23.113  0.00  0.00    +0.000 A 
ENDBRANCH  19  21
BRANCH  20  28
ATOM     28  C   UNL     1      -0.988  11.517  19.710  0.00  0.00    +0.000 C 
ATOM     29  C   UNL     1      -0.094  12.515  18.981  0.00  0.00    +0.000 C 
ATOM     30  C   UNL     1      -1.665  10.547  18.744  0.00  0.00    +0.000 C 
ENDBRANCH  20  28
ENDBRANCH   2  16
TORSDOF 4
ENDMDL
MODEL 5
REMARK VINA RESULT:      -7.9      1.163      2.009
REMARK  Name = 
REMARK  8 active torsions:
REMARK  status: ('A' for Active; 'I' for Inactive)
REMARK    1  A    between atoms: C_1  and  C_2
REMARK    2  A    between atoms: N_4  and  C_5
REMARK    3  A    between atoms: C_9  and  N_10
REMARK    4  A    between atoms: C_11  and  C_13
REMARK    5  A    between atoms: N_16  and  C_17
REMARK    6  A    between atoms: C_24  and  C_25
REMARK    7  A    between atoms: C_25  and  C_26
REMARK    8  A    between atoms: C_25  and  C_27
REMARK                            x       y       z     vdW  Elec       q    Type
REMARK                         _______ _______ _______ _____ _____    ______ ____
ROOT
ATOM      1  N   UNL     1       2.084   8.607  19.175  0.00  0.00    +0.000 N 
ATOM      2  C   UNL     1       1.098   9.410  18.626  0.00  0.00    +0.000 C 
ATOM      3  O   UNL     1       0.686   9.305  17.477  0.00  0.00    +0.000 OA
ATOM      4  H   UNL     1       2.421   8.856  20.092  0.00  0.00    +0.000 HD
ENDROOT
BRANCH   1  13
ATOM      5  C   UNL     1       1.247   2.875  18.822  0.00  0.00    +0.000 C 
ATOM      6  C   UNL     1       2.333   3.642  18.165  0.00  0.00    +0.000 A 
ATOM      7  N   UNL     1       3.230   2.990  17.409  0.00  0.00    +0.000 NA
ATOM      8  N   UNL     1       4.054   3.967  16.973  0.00  0.00    +0.000 N 
ATOM      9  C   UNL     1       5.185   3.649  16.137  0.00  0.00    +0.000 C 
ATOM     10  C   UNL     1       3.705   5.215  17.413  0.00  0.00    +0.000 A 
ATOM     11  N   UNL     1       4.331   6.369  17.121  0.00  0.00    +0.000 NA
ATOM     12  C   UNL     1       3.756   7.447  17.719  0.00  0.00    +0.000 A 
ATOM     13  C   UNL     1       2.645   7.440  18.570  0.00  0.00    +0.000 A 
ATOM     14  C   UNL     1       2.038   6.198  18.821  0.00  0.00    +0.000 A 
ATOM     15  C   UNL     1       2.590   5.044  18.215  0.00  0.00    +0.000 A 
ENDBRANCH   1  13
BRANCH   2  16
ATOM     16  C   UNL     1       0.579  10.496  19.462  0.00  0.00    +0.000 A 
ATOM     17  C   UNL     1       0.367  11.783  18.926  0.00  0.00    +0.000 A 
ATOM     18  N   UNL     1      -0.052  12.658  19.823  0.00  0.00    +0.000 NA
ATOM     19  N   UNL     1      -0.328  11.930  20.934  0.00  0.00    +0.000 N 
ATOM     20  C   UNL     1       0.122  10.587  20.788  0.00  0.00    +0.000 A 
BRANCH  19  21
ATOM     21  C   UNL     1      -0.988  12.628  22.004  0.00  0.00    +0.000 A 
ATOM     22  C   UNL     1      -0.463  13.872  22.423  0.00  0.00    +0.000 A 
ATOM     23  C   UNL     1      -1.069  14.605  23.453  0.00  0.00    +0.000 A 
ATOM     24  C   UNL     1      -2.205  14.110  24.082  0.00  0.00    +0.000 A 
ATOM     25  C   UNL     1      -2.748  12.904  23.653  0.00  0.00    +0.000 A 
ATOM     26 CL   UNL     1      -4.174  12.296  24.405  0.00  0.00    +0.000 Cl
ATOM     27  C   UNL     1      -2.165  12.181  22.606  0.00  0.00    +0.000 A 
ENDBRANCH  19  21
BRANCH  20  28
ATOM     28  C   UNL     1       0.086   9.579  21.917  0.00  0.00    +0.000 C 
ATOM     29  C   UNL     1      -0.603   8.256  21.602  0.00  0.00    +0.000 C 
ATOM     30  C   UNL     1       1.471   9.368  22.529  0.00  0.00    +0.000 C 
ENDBRANCH  20  28
ENDBRANCH   2  16
TORSDOF 4
ENDMDL
MODEL 6
REMARK VINA RESULT:      -7.8      1.434      2.672
REMARK  Name = 
REMARK  8 active torsions:
REMARK  status: ('A' for Active; 'I' for Inactive)
REMARK    1  A    between atoms: C_1  and  C_2
REMARK    2  A    between atoms: N_4  and  C_5
REMARK    3  A    between atoms: C_9  and  N_10
REMARK    4  A    between atoms: C_11  and  C_13
REMARK    5  A    between atoms: N_16  and  C_17
REMARK    6  A    between atoms: C_24  and  C_25
REMARK    7  A    between atoms: C_25  and  C_26
REMARK    8  A    between atoms: C_25  and  C_27
REMARK                            x       y       z     vdW  Elec       q    Type
REMARK                         _______ _______ _______ _____ _____    ______ ____
ROOT
ATOM      1  N   UNL     1       2.140   8.128  19.568  0.00  0.00    +0.000 N 
ATOM      2  C   UNL     1       1.396   9.049  18.849  0.00  0.00    +0.000 C 
ATOM      3  O   UNL     1       1.121   8.933  17.661  0.00  0.00    +0.000 OA
ATOM      4  H   UNL     1       2.397   8.381  20.510  0.00  0.00    +0.000 HD
ENDROOT
BRANCH   1  13
ATOM      5  C   UNL     1       5.602   5.660  15.618  0.00  0.00    +0.000 C 
ATOM      6  C   UNL     1       4.744   4.948  16.595  0.00  0.00    +0.000 A 
ATOM      7  N   UNL     1       4.735   3.606  16.603  0.00  0.00    +0.000 NA
ATOM      8  N   UNL     1       3.872   3.295  17.594  0.00  0.00    +0.000 N 
ATOM      9  C   UNL     1       3.570   1.917  17.894  0.00  0.00    +0.000 C 
ATOM     10  C   UNL     1       3.343   4.389  18.223  0.00  0.00    +0.000 A 
ATOM     11  N   UNL     1       2.476   4.378  19.250  0.00  0.00    +0.000 NA
ATOM     12  C   UNL     1       2.120   5.628  19.654  0.00  0.00    +0.000 A 
ATOM     13  C   UNL     1       2.551   6.840  19.105  0.00  0.00    +0.000 A 
ATOM     14  C   UNL     1       3.464   6.773  18.039  0.00  0.00    +0.000 A 
ATOM     15  C   UNL     1       3.876   5.496  17.585  0.00  0.00    +0.000 A 
ENDBRANCH   1  13
BRANCH   2  16
ATOM     16  C   UNL     1       0.982  10.267  19.551  0.00  0.00    +0.000 A 
ATOM     17  C   UNL     1       0.986  11.515  18.895  0.00  0.00    +0.000 A 
ATOM     18  N   UNL     1       0.638  12.518  19.682  0.00  0.00    +0.000 NA
ATOM     19  N   UNL     1       0.194  11.940  20.826  0.00  0.00    +0.000 N 
ATOM     20  C   UNL     1       0.460  10.541  20.826  0.00  0.00    +0.000 A 
BRANCH  19  21
ATOM     21  C   UNL     1      -0.428  12.816  21.781  0.00  0.00    +0.000 A 
ATOM     22  C   UNL     1       0.163  14.077  22.025  0.00  0.00    +0.000 A 
ATOM     23  C   UNL     1      -0.403  14.979  22.936  0.00  0.00    +0.000 A 
ATOM     24  C   UNL     1      -1.564  14.639  23.621  0.00  0.00    +0.000 A 
ATOM     25  C   UNL     1      -2.170  13.415  23.362  0.00  0.00    +0.000 A 
ATOM     26 CL   UNL     1      -3.627  12.996  24.181  0.00  0.00    +0.000 Cl
ATOM     27  C   UNL     1      -1.627  12.521  22.432  0.00  0.00    +0.000 A 
ENDBRANCH  19  21
BRANCH  20  28
ATOM     28  C   UNL     1       0.214   9.656  22.030  0.00  0.00    +0.000 C 
ATOM     29  C   UNL     1      -0.621   8.406  21.772  0.00  0.00    +0.000 C 
ATOM     30  C   UNL     1       1.513   9.332  22.767  0.00  0.00    +0.000 C 
ENDBRANCH  20  28
ENDBRANCH   2  16
TORSDOF 4
ENDMDL
MODEL 7
REMARK VINA RESULT:      -7.7      1.492      1.840
REMARK  Name = 
REMARK  8 active torsions:
REMARK  status: ('A' for Active; 'I' for Inactive)
REMARK    1  A    between atoms: C_1  and  C_2
REMARK    2  A    between atoms: N_4  and  C_5
REMARK    3  A    between atoms: C_9  and  N_10
REMARK    4  A    between atoms: C_11  and  C_13
REMARK    5  A    between atoms: N_16  and  C_17
REMARK    6  A    between atoms: C_24  and  C_25
REMARK    7  A    between atoms: C_25  and  C_26
REMARK    8  A    between atoms: C_25  and  C_27
REMARK                            x       y       z     vdW  Elec       q    Type
REMARK                         _______ _______ _______ _____ _____    ______ ____
ROOT
ATOM      1  N   UNL     1       1.397   8.502  20.797  0.00  0.00    +0.000 N 
ATOM      2  C   UNL     1       0.565   9.457  20.238  0.00  0.00    +0.000 C 
ATOM      3  O   UNL     1       0.259   9.494  19.053  0.00  0.00    +0.000 OA
ATOM      4  H   UNL     1       1.668   8.635  21.760  0.00  0.00    +0.000 HD
ENDROOT
BRANCH   1  13
ATOM      5  C   UNL     1       1.474   2.727  21.374  0.00  0.00    +0.000 C 
ATOM      6  C   UNL     1       2.093   3.505  20.272  0.00  0.00    +0.000 A 
ATOM      7  N   UNL     1       2.742   2.852  19.295  0.00  0.00    +0.000 NA
ATOM      8  N   UNL     1       3.166   3.839  18.476  0.00  0.00    +0.000 N 
ATOM      9  C   UNL     1       3.943   3.529  17.302  0.00  0.00    +0.000 C 
ATOM     10  C   UNL     1       2.799   5.090  18.891  0.00  0.00    +0.000 A 
ATOM     11  N   UNL     1       3.067   6.250  18.264  0.00  0.00    +0.000 NA
ATOM     12  C   UNL     1       2.581   7.333  18.928  0.00  0.00    +0.000 A 
ATOM     13  C   UNL     1       1.883   7.329  20.141  0.00  0.00    +0.000 A 
ATOM     14  C   UNL     1       1.632   6.079  20.732  0.00  0.00    +0.000 A 
ATOM     15  C   UNL     1       2.108   4.917  20.078  0.00  0.00    +0.000 A 
ENDBRANCH   1  13
BRANCH   2  16
ATOM     16  C   UNL     1       0.089  10.526  21.120  0.00  0.00    +0.000 A 
ATOM     17  C   UNL     1      -0.206  10.267  22.475  0.00  0.00    +0.000 A 
ATOM     18  N   UNL     1      -0.675  11.323  23.116  0.00  0.00    +0.000 NA
ATOM     19  N   UNL     1      -0.511  12.365  22.263  0.00  0.00    +0.000 N 
ATOM     20  C   UNL     1      -0.111  11.910  20.975  0.00  0.00    +0.000 A 
BRANCH  19  21
ATOM     21  C   UNL     1      -0.769  13.674  22.800  0.00  0.00    +0.000 A 
ATOM     22  C   UNL     1       0.101  14.730  22.448  0.00  0.00    +0.000 A 
ATOM     23  C   UNL     1      -0.105  16.031  22.930  0.00  0.00    +0.000 A 
ATOM     24  C   UNL     1      -1.180  16.298  23.771  0.00  0.00    +0.000 A 
ATOM     25  C   UNL     1      -2.060  15.271  24.094  0.00  0.00    +0.000 A 
ATOM     26 CL   UNL     1      -3.413  15.597  25.110  0.00  0.00    +0.000 Cl
ATOM     27  C   UNL     1      -1.876  13.977  23.593  0.00  0.00    +0.000 A 
ENDBRANCH  19  21
BRANCH  20  28
ATOM     28  C   UNL     1       0.006  12.828  19.776  0.00  0.00    +0.000 C 
ATOM     29  C   UNL     1       1.363  12.840  19.081  0.00  0.00    +0.000 C 
ATOM     30  C   UNL     1      -1.139  12.612  18.786  0.00  0.00    +0.000 C 
ENDBRANCH  20  28
ENDBRANCH   2  16
TORSDOF 4
ENDMDL
MODEL 8
REMARK VINA RESULT:      -7.7      2.294      2.589
REMARK  Name = 
REMARK  8 active torsions:
REMARK  status: ('A' for Active; 'I' for Inactive)
REMARK    1  A    between atoms: C_1  and  C_2
REMARK    2  A    between atoms: N_4  and  C_5
REMARK    3  A    between atoms: C_9  and  N_10
REMARK    4  A    between atoms: C_11  and  C_13
REMARK    5  A    between atoms: N_16  and  C_17
REMARK    6  A    between atoms: C_24  and  C_25
REMARK    7  A    between atoms: C_25  and  C_26
REMARK    8  A    between atoms: C_25  and  C_27
REMARK                            x       y       z     vdW  Elec       q    Type
REMARK                         _______ _______ _______ _____ _____    ______ ____
ROOT
ATOM      1  N   UNL     1       0.594   8.211  20.769  0.00  0.00    +0.000 N 
ATOM      2  C   UNL     1       0.827   9.200  21.710  0.00  0.00    +0.000 C 
ATOM      3  O   UNL     1       1.806   9.234  22.445  0.00  0.00    +0.000 OA
ATOM      4  H   UNL     1      -0.297   8.225  20.298  0.00  0.00    +0.000 HD
ENDROOT
BRANCH   1  13
ATOM      5  C   UNL     1       1.752   2.603  21.719  0.00  0.00    +0.000 C 
ATOM      6  C   UNL     1       2.513   3.515  20.830  0.00  0.00    +0.000 A 
ATOM      7  N   UNL     1       3.577   3.041  20.162  0.00  0.00    +0.000 NA
ATOM      8  N   UNL     1       4.019   4.109  19.463  0.00  0.00    +0.000 N 
ATOM      9  C   UNL     1       5.190   4.000  18.628  0.00  0.00    +0.000 C 
ATOM     10  C   UNL     1       3.268   5.237  19.652  0.00  0.00    +0.000 A 
ATOM     11  N   UNL     1       3.464   6.434  19.071  0.00  0.00    +0.000 NA
ATOM     12  C   UNL     1       2.559   7.368  19.468  0.00  0.00    +0.000 A 
ATOM     13  C   UNL     1       1.518   7.189  20.385  0.00  0.00    +0.000 A 
ATOM     14  C   UNL     1       1.368   5.908  20.944  0.00  0.00    +0.000 A 
ATOM     15  C   UNL     1       2.279   4.895  20.558  0.00  0.00    +0.000 A 
ENDBRANCH   1  13
BRANCH   2  16
ATOM     16  C   UNL     1      -0.211  10.223  21.874  0.00  0.00    +0.000 A 
ATOM     17  C   UNL     1      -0.785  10.474  23.137  0.00  0.00    +0.000 A 
ATOM     18  N   UNL     1      -1.741  11.385  23.102  0.00  0.00    +0.000 NA
ATOM     19  N   UNL     1      -1.688  11.914  21.854  0.00  0.00    +0.000 N 
ATOM     20  C   UNL     1      -0.804  11.171  21.023  0.00  0.00    +0.000 A 
BRANCH  19  21
ATOM     21  C   UNL     1      -2.508  13.072  21.619  0.00  0.00    +0.000 A 
ATOM     22  C   UNL     1      -3.895  12.980  21.874  0.00  0.00    +0.000 A 
ATOM     23  C   UNL     1      -4.744  14.077  21.676  0.00  0.00    +0.000 A 
ATOM     24  C   UNL     1      -4.225  15.283  21.218  0.00  0.00    +0.000 A 
ATOM     25  C   UNL     1      -2.857  15.392  20.998  0.00  0.00    +0.000 A 
ATOM     26 CL   UNL     1      -2.198  16.891  20.461  0.00  0.00    +0.000 Cl
ATOM     27  C   UNL     1      -1.999  14.309  21.222  0.00  0.00    +0.000 A 
ENDBRANCH  19  21
BRANCH  20  28
ATOM     28  C   UNL     1      -0.653  11.432  19.538  0.00  0.00    +0.000 C 
ATOM     29  C   UNL     1       0.771  11.676  19.051  0.00  0.00    +0.000 C 
ATOM     30  C   UNL     1      -1.367  10.370  18.703  0.00  0.00    +0.000 C 
ENDBRANCH  20  28
ENDBRANCH   2  16
TORSDOF 4
ENDMDL
MODEL 9
REMARK VINA RESULT:      -7.6      1.438      2.350
REMARK  Name = 
REMARK  8 active torsions:
REMARK  status: ('A' for Active; 'I' for Inactive)
REMARK    1  A    between atoms: C_1  and  C_2
REMARK    2  A    between atoms: N_4  and  C_5
REMARK    3  A    between atoms: C_9  and  N_10
REMARK    4  A    between atoms: C_11  and  C_13
REMARK    5  A    between atoms: N_16  and  C_17
REMARK    6  A    between atoms: C_24  and  C_25
REMARK    7  A    between atoms: C_25  and  C_26
REMARK    8  A    between atoms: C_25  and  C_27
REMARK                            x       y       z     vdW  Elec       q    Type
REMARK                         _______ _______ _______ _____ _____    ______ ____
ROOT
ATOM      1  N   UNL     1       2.015   8.543  19.300  0.00  0.00    +0.000 N 
ATOM      2  C   UNL     1       1.167   9.442  18.675  0.00  0.00    +0.000 C 
ATOM      3  O   UNL     1       0.932   9.445  17.473  0.00  0.00    +0.000 OA
ATOM      4  H   UNL     1       2.218   8.703  20.274  0.00  0.00    +0.000 HD
ENDROOT
BRANCH   1  13
ATOM      5  C   UNL     1       1.586   2.755  19.270  0.00  0.00    +0.000 C 
ATOM      6  C   UNL     1       2.547   3.565  18.481  0.00  0.00    +0.000 A 
ATOM      7  N   UNL     1       3.417   2.943  17.671  0.00  0.00    +0.000 NA
ATOM      8  N   UNL     1       4.121   3.953  17.117  0.00  0.00    +0.000 N 
ATOM      9  C   UNL     1       5.192   3.677  16.191  0.00  0.00    +0.000 C 
ATOM     10  C   UNL     1       3.720   5.193  17.535  0.00  0.00    +0.000 A 
ATOM     11  N   UNL     1       4.227   6.373  17.137  0.00  0.00    +0.000 NA
ATOM     12  C   UNL     1       3.630   7.436  17.741  0.00  0.00    +0.000 A 
ATOM     13  C   UNL     1       2.606   7.391  18.693  0.00  0.00    +0.000 A 
ATOM     14  C   UNL     1       2.119   6.122  19.053  0.00  0.00    +0.000 A 
ATOM     15  C   UNL     1       2.700   4.982  18.447  0.00  0.00    +0.000 A 
ENDBRANCH   1  13
BRANCH   2  16
ATOM     16  C   UNL     1       0.578  10.494  19.509  0.00  0.00    +0.000 A 
ATOM     17  C   UNL     1       0.317  11.774  18.979  0.00  0.00    +0.000 A 
ATOM     18  N   UNL     1      -0.163  12.620  19.874  0.00  0.00    +0.000 NA
ATOM     19  N   UNL     1      -0.427  11.870  20.972  0.00  0.00    +0.000 N 
ATOM     20  C   UNL     1       0.089  10.551  20.825  0.00  0.00    +0.000 A 
BRANCH  19  21
ATOM     21  C   UNL     1      -1.142  12.526  22.033  0.00  0.00    +0.000 A 
ATOM     22  C   UNL     1      -2.344  11.944  22.497  0.00  0.00    +0.000 A 
ATOM     23  C   UNL     1      -3.079  12.530  23.537  0.00  0.00    +0.000 A 
ATOM     24  C   UNL     1      -2.631  13.705  24.129  0.00  0.00    +0.000 A 
ATOM     25  C   UNL     1      -1.433  14.265  23.701  0.00  0.00    +0.000 A 
ATOM     26 CL   UNL     1      -0.851  15.705  24.449  0.00  0.00    +0.000 Cl
ATOM     27  C   UNL     1      -0.678  13.670  22.684  0.00  0.00    +0.000 A 
ENDBRANCH  19  21
BRANCH  20  28
ATOM     28  C   UNL     1       0.078   9.532  21.945  0.00  0.00    +0.000 C 
ATOM     29  C   UNL     1      -0.587   8.199  21.620  0.00  0.00    +0.000 C 
ATOM     30  C   UNL     1       1.470   9.342  22.549  0.00  0.00    +0.000 C 
ENDBRANCH  20  28
ENDBRANCH   2  16
TORSDOF 4
ENDMDL
