MODEL 1
REMARK VINA RESULT:      -8.4      0.000      0.000
REMARK  Name = 
REMARK  3 active torsions:
REMARK  status: ('A' for Active; 'I' for Inactive)
REMARK    1  A    between atoms: C_1  and  C_2
REMARK    2  A    between atoms: C_2  and  C_3
REMARK    3  A    between atoms: C_6  and  C_8
REMARK                            x       y       z     vdW  Elec       q    Type
REMARK                         _______ _______ _______ _____ _____    ______ ____
ROOT
ATOM      1  C   UNL     1       7.718   6.253  19.290  0.00  0.00    +0.000 C 
ATOM      2  C   UNL     1       6.643   5.857  18.258  0.00  0.00    +0.000 C 
ATOM      3  C   UNL     1       6.492   7.063  17.311  0.00  0.00    +0.000 C 
ATOM      4  C   UNL     1       5.383   5.480  19.083  0.00  0.00    +0.000 C 
ATOM      5  N   UNL     1       4.232   5.006  18.313  0.00  0.00    +0.000 N 
ATOM      6  C   UNL     1       3.019   5.674  18.174  0.00  0.00    +0.000 C 
ATOM      7  O   UNL     1       2.039   5.153  17.635  0.00  0.00    +0.000 OA
ATOM      8  C   UNL     1       4.423   3.754  17.592  0.00  0.00    +0.000 C 
ATOM      9  C   UNL     1       5.220   3.981  16.335  0.00  0.00    +0.000 A 
ATOM     10  C   UNL     1       4.623   3.800  15.077  0.00  0.00    +0.000 A 
ATOM     11  C   UNL     1       5.350   4.016  13.903  0.00  0.00    +0.000 A 
ATOM     12  C   UNL     1       6.688   4.389  13.975  0.00  0.00    +0.000 A 
ATOM     13  C   UNL     1       7.292   4.577  15.215  0.00  0.00    +0.000 A 
ATOM     14  C   UNL     1       6.551   4.404  16.389  0.00  0.00    +0.000 A 
ATOM     15  O   UNL     1       7.181   4.692  17.574  0.00  0.00    +0.000 OA
ENDROOT
BRANCH   6  16
ATOM     16  C   UNL     1       2.885   7.115  18.604  0.00  0.00    +0.000 A 
ATOM     17  C   UNL     1       2.363   7.364  19.853  0.00  0.00    +0.000 A 
ATOM     18  C   UNL     1       1.655   8.547  19.989  0.00  0.00    +0.000 A 
ATOM     19  C   UNL     1       0.736   8.700  21.111  0.00  0.00    +0.000 A 
ATOM     20  O   UNL     1       1.066   8.494  22.268  0.00  0.00    +0.000 OA
ATOM     21  N   UNL     1      -0.504   9.116  20.716  0.00  0.00    +0.000 N 
ATOM     22  C   UNL     1      -0.601  10.022  19.698  0.00  0.00    +0.000 A 
ATOM     23  N   UNL     1       0.360  10.299  18.877  0.00  0.00    +0.000 NA
ATOM     24  C   UNL     1       1.468   9.430  18.930  0.00  0.00    +0.000 A 
ATOM     25  C   UNL     1       2.218   9.190  17.802  0.00  0.00    +0.000 A 
ATOM     26  N   UNL     1       2.921   8.049  17.620  0.00  0.00    +0.000 NA
ATOM     27  H   UNL     1      -1.234   9.059  21.409  0.00  0.00    +0.000 HD
ENDBRANCH   6  16
TORSDOF 1
ENDMDL
MODEL 2
REMARK VINA RESULT:      -6.8      2.956      6.261
REMARK  Name = 
REMARK  3 active torsions:
REMARK  status: ('A' for Active; 'I' for Inactive)
REMARK    1  A    between atoms: C_1  and  C_2
REMARK    2  A    between atoms: C_2  and  C_3
REMARK    3  A    between atoms: C_6  and  C_8
REMARK                            x       y       z     vdW  Elec       q    Type
REMARK                         _______ _______ _______ _____ _____    ______ ____
ROOT
ATOM      1  C   UNL     1       2.963   7.669  18.194  0.00  0.00    +0.000 C 
ATOM      2  C   UNL     1       3.085   6.167  18.523  0.00  0.00    +0.000 C 
ATOM      3  C   UNL     1       4.310   6.028  19.447  0.00  0.00    +0.000 C 
ATOM      4  C   UNL     1       3.182   5.442  17.153  0.00  0.00    +0.000 C 
ATOM      5  N   UNL     1       3.247   3.980  17.207  0.00  0.00    +0.000 N 
ATOM      6  C   UNL     1       4.344   3.203  16.848  0.00  0.00    +0.000 C 
ATOM      7  O   UNL     1       4.284   1.973  16.775  0.00  0.00    +0.000 OA
ATOM      8  C   UNL     1       2.067   3.312  17.743  0.00  0.00    +0.000 C 
ATOM      9  C   UNL     1       2.041   3.404  19.245  0.00  0.00    +0.000 A 
ATOM     10  C   UNL     1       2.188   2.248  20.028  0.00  0.00    +0.000 A 
ATOM     11  C   UNL     1       2.175   2.322  21.423  0.00  0.00    +0.000 A 
ATOM     12  C   UNL     1       1.988   3.549  22.050  0.00  0.00    +0.000 A 
ATOM     13  C   UNL     1       1.846   4.706  21.288  0.00  0.00    +0.000 A 
ATOM     14  C   UNL     1       1.904   4.636  19.892  0.00  0.00    +0.000 A 
ATOM     15  O   UNL     1       1.847   5.822  19.205  0.00  0.00    +0.000 OA
ENDROOT
BRANCH   6  16
ATOM     16  C   UNL     1       5.692   3.843  16.618  0.00  0.00    +0.000 A 
ATOM     17  C   UNL     1       6.497   4.051  17.715  0.00  0.00    +0.000 A 
ATOM     18  C   UNL     1       7.345   5.145  17.646  0.00  0.00    +0.000 A 
ATOM     19  C   UNL     1       7.912   5.683  18.877  0.00  0.00    +0.000 A 
ATOM     20  O   UNL     1       8.497   4.989  19.693  0.00  0.00    +0.000 OA
ATOM     21  N   UNL     1       7.734   7.033  18.986  0.00  0.00    +0.000 N 
ATOM     22  C   UNL     1       7.830   7.803  17.862  0.00  0.00    +0.000 A 
ATOM     23  N   UNL     1       7.782   7.338  16.656  0.00  0.00    +0.000 NA
ATOM     24  C   UNL     1       7.380   5.993  16.543  0.00  0.00    +0.000 A 
ATOM     25  C   UNL     1       6.703   5.561  15.426  0.00  0.00    +0.000 A 
ATOM     26  N   UNL     1       5.860   4.504  15.444  0.00  0.00    +0.000 NA
ATOM     27  H   UNL     1       7.929   7.436  19.890  0.00  0.00    +0.000 HD
ENDBRANCH   6  16
TORSDOF 1
ENDMDL
MODEL 3
REMARK VINA RESULT:      -6.8      7.549      9.230
REMARK  Name = 
REMARK  3 active torsions:
REMARK  status: ('A' for Active; 'I' for Inactive)
REMARK    1  A    between atoms: C_1  and  C_2
REMARK    2  A    between atoms: C_2  and  C_3
REMARK    3  A    between atoms: C_6  and  C_8
REMARK                            x       y       z     vdW  Elec       q    Type
REMARK                         _______ _______ _______ _____ _____    ______ ____
ROOT
ATOM      1  C   UNL     1       9.108  16.420  17.644  0.00  0.00    +0.000 C 
ATOM      2  C   UNL     1       8.840  15.202  18.553  0.00  0.00    +0.000 C 
ATOM      3  C   UNL     1       7.594  14.502  17.976  0.00  0.00    +0.000 C 
ATOM      4  C   UNL     1       8.694  15.772  19.990  0.00  0.00    +0.000 C 
ATOM      5  N   UNL     1       8.492  14.785  21.052  0.00  0.00    +0.000 N 
ATOM      6  C   UNL     1       7.331  14.630  21.804  0.00  0.00    +0.000 C 
ATOM      7  O   UNL     1       7.276  13.880  22.782  0.00  0.00    +0.000 OA
ATOM      8  C   UNL     1       9.595  13.860  21.277  0.00  0.00    +0.000 C 
ATOM      9  C   UNL     1       9.609  12.783  20.225  0.00  0.00    +0.000 A 
ATOM     10  C   UNL     1       9.343  11.450  20.575  0.00  0.00    +0.000 A 
ATOM     11  C   UNL     1       9.344  10.442  19.606  0.00  0.00    +0.000 A 
ATOM     12  C   UNL     1       9.637  10.754  18.283  0.00  0.00    +0.000 A 
ATOM     13  C   UNL     1       9.898  12.073  17.920  0.00  0.00    +0.000 A 
ATOM     14  C   UNL     1       9.852  13.086  18.883  0.00  0.00    +0.000 A 
ATOM     15  O   UNL     1      10.030  14.374  18.443  0.00  0.00    +0.000 OA
ENDROOT
BRANCH   6  16
ATOM     16  C   UNL     1       6.053  15.317  21.389  0.00  0.00    +0.000 A 
ATOM     17  C   UNL     1       5.057  14.541  20.838  0.00  0.00    +0.000 A 
ATOM     18  C   UNL     1       4.243  15.167  19.910  0.00  0.00    +0.000 A 
ATOM     19  C   UNL     1       3.459  14.354  18.988  0.00  0.00    +0.000 A 
ATOM     20  O   UNL     1       2.729  13.450  19.363  0.00  0.00    +0.000 OA
ATOM     21  N   UNL     1       3.620  14.737  17.687  0.00  0.00    +0.000 N 
ATOM     22  C   UNL     1       3.739  16.069  17.403  0.00  0.00    +0.000 A 
ATOM     23  N   UNL     1       4.008  16.978  18.282  0.00  0.00    +0.000 NA
ATOM     24  C   UNL     1       4.419  16.498  19.542  0.00  0.00    +0.000 A 
ATOM     25  C   UNL     1       5.290  17.230  20.315  0.00  0.00    +0.000 A 
ATOM     26  N   UNL     1       6.109  16.664  21.229  0.00  0.00    +0.000 NA
ATOM     27  H   UNL     1       3.262  14.104  16.989  0.00  0.00    +0.000 HD
ENDBRANCH   6  16
TORSDOF 1
ENDMDL
MODEL 4
REMARK VINA RESULT:      -6.7      2.984      7.491
REMARK  Name = 
REMARK  3 active torsions:
REMARK  status: ('A' for Active; 'I' for Inactive)
REMARK    1  A    between atoms: C_1  and  C_2
REMARK    2  A    between atoms: C_2  and  C_3
REMARK    3  A    between atoms: C_6  and  C_8
REMARK                            x       y       z     vdW  Elec       q    Type
REMARK                         _______ _______ _______ _____ _____    ______ ____
ROOT
ATOM      1  C   UNL     1       0.349   9.629  22.909  0.00  0.00    +0.000 C 
ATOM      2  C   UNL     1       0.238   9.343  21.397  0.00  0.00    +0.000 C 
ATOM      3  C   UNL     1      -0.682   8.114  21.258  0.00  0.00    +0.000 C 
ATOM      4  C   UNL     1       1.696   9.159  20.894  0.00  0.00    +0.000 C 
ATOM      5  N   UNL     1       1.853   8.934  19.456  0.00  0.00    +0.000 N 
ATOM      6  C   UNL     1       2.297   7.756  18.864  0.00  0.00    +0.000 C 
ATOM      7  O   UNL     1       2.548   7.678  17.659  0.00  0.00    +0.000 OA
ATOM      8  C   UNL     1       1.444  10.035  18.593  0.00  0.00    +0.000 C 
ATOM      9  C   UNL     1      -0.055  10.078  18.462  0.00  0.00    +0.000 A 
ATOM     10  C   UNL     1      -0.665   9.809  17.226  0.00  0.00    +0.000 A 
ATOM     11  C   UNL     1      -2.056   9.838  17.094  0.00  0.00    +0.000 A 
ATOM     12  C   UNL     1      -2.850  10.162  18.189  0.00  0.00    +0.000 A 
ATOM     13  C   UNL     1      -2.259  10.427  19.422  0.00  0.00    +0.000 A 
ATOM     14  C   UNL     1      -0.870  10.354  19.563  0.00  0.00    +0.000 A 
ATOM     15  O   UNL     1      -0.360  10.538  20.824  0.00  0.00    +0.000 OA
ENDROOT
BRANCH   6  16
ATOM     16  C   UNL     1       2.403   6.485  19.673  0.00  0.00    +0.000 A 
ATOM     17  C   UNL     1       3.559   5.746  19.556  0.00  0.00    +0.000 A 
ATOM     18  C   UNL     1       3.423   4.378  19.721  0.00  0.00    +0.000 A 
ATOM     19  C   UNL     1       4.467   3.494  19.217  0.00  0.00    +0.000 A 
ATOM     20  O   UNL     1       5.648   3.643  19.491  0.00  0.00    +0.000 OA
ATOM     21  N   UNL     1       3.969   2.488  18.440  0.00  0.00    +0.000 N 
ATOM     22  C   UNL     1       2.777   1.916  18.787  0.00  0.00    +0.000 A 
ATOM     23  N   UNL     1       1.934   2.440  19.617  0.00  0.00    +0.000 NA
ATOM     24  C   UNL     1       2.194   3.776  19.979  0.00  0.00    +0.000 A 
ATOM     25  C   UNL     1       1.160   4.625  20.296  0.00  0.00    +0.000 A 
ATOM     26  N   UNL     1       1.241   5.966  20.146  0.00  0.00    +0.000 NA
ATOM     27  H   UNL     1       4.643   1.959  17.908  0.00  0.00    +0.000 HD
ENDBRANCH   6  16
TORSDOF 1
ENDMDL
MODEL 5
REMARK VINA RESULT:      -6.6      2.261      3.538
REMARK  Name = 
REMARK  3 active torsions:
REMARK  status: ('A' for Active; 'I' for Inactive)
REMARK    1  A    between atoms: C_1  and  C_2
REMARK    2  A    between atoms: C_2  and  C_3
REMARK    3  A    between atoms: C_6  and  C_8
REMARK                            x       y       z     vdW  Elec       q    Type
REMARK                         _______ _______ _______ _____ _____    ______ ____
ROOT
ATOM      1  C   UNL     1       2.566   3.294  18.791  0.00  0.00    +0.000 C 
ATOM      2  C   UNL     1       3.401   4.580  18.629  0.00  0.00    +0.000 C 
ATOM      3  C   UNL     1       3.693   5.086  20.055  0.00  0.00    +0.000 C 
ATOM      4  C   UNL     1       2.553   5.525  17.734  0.00  0.00    +0.000 C 
ATOM      5  N   UNL     1       3.174   6.804  17.386  0.00  0.00    +0.000 N 
ATOM      6  C   UNL     1       2.745   8.056  17.816  0.00  0.00    +0.000 C 
ATOM      7  O   UNL     1       3.220   9.104  17.369  0.00  0.00    +0.000 OA
ATOM      8  C   UNL     1       4.378   6.724  16.568  0.00  0.00    +0.000 C 
ATOM      9  C   UNL     1       5.565   6.332  17.407  0.00  0.00    +0.000 A 
ATOM     10  C   UNL     1       6.614   7.241  17.615  0.00  0.00    +0.000 A 
ATOM     11  C   UNL     1       7.717   6.891  18.399  0.00  0.00    +0.000 A 
ATOM     12  C   UNL     1       7.795   5.621  18.960  0.00  0.00    +0.000 A 
ATOM     13  C   UNL     1       6.760   4.710  18.765  0.00  0.00    +0.000 A 
ATOM     14  C   UNL     1       5.636   5.077  18.018  0.00  0.00    +0.000 A 
ATOM     15  O   UNL     1       4.613   4.165  17.940  0.00  0.00    +0.000 OA
ENDROOT
BRANCH   6  16
ATOM     16  C   UNL     1       1.731   8.178  18.927  0.00  0.00    +0.000 A 
ATOM     17  C   UNL     1       0.642   8.994  18.714  0.00  0.00    +0.000 A 
ATOM     18  C   UNL     1       0.116   9.610  19.838  0.00  0.00    +0.000 A 
ATOM     19  C   UNL     1      -0.737  10.780  19.673  0.00  0.00    +0.000 A 
ATOM     20  O   UNL     1      -1.706  10.791  18.929  0.00  0.00    +0.000 OA
ATOM     21  N   UNL     1      -0.343  11.827  20.455  0.00  0.00    +0.000 N 
ATOM     22  C   UNL     1       0.132  11.570  21.710  0.00  0.00    +0.000 A 
ATOM     23  N   UNL     1       0.519  10.405  22.115  0.00  0.00    +0.000 NA
ATOM     24  C   UNL     1       0.656   9.429  21.108  0.00  0.00    +0.000 A 
ATOM     25  C   UNL     1       1.589   8.427  21.232  0.00  0.00    +0.000 A 
ATOM     26  N   UNL     1       2.137   7.800  20.166  0.00  0.00    +0.000 NA
ATOM     27  H   UNL     1      -0.767  12.720  20.251  0.00  0.00    +0.000 HD
ENDBRANCH   6  16
TORSDOF 1
ENDMDL
MODEL 6
REMARK VINA RESULT:      -6.6      3.224      8.782
REMARK  Name = 
REMARK  3 active torsions:
REMARK  status: ('A' for Active; 'I' for Inactive)
REMARK    1  A    between atoms: C_1  and  C_2
REMARK    2  A    between atoms: C_2  and  C_3
REMARK    3  A    between atoms: C_6  and  C_8
REMARK                            x       y       z     vdW  Elec       q    Type
REMARK                         _______ _______ _______ _____ _____    ______ ____
ROOT
ATOM      1  C   UNL     1       2.403  13.979  20.539  0.00  0.00    +0.000 C 
ATOM      2  C   UNL     1       1.094  13.204  20.283  0.00  0.00    +0.000 C 
ATOM      3  C   UNL     1       0.853  12.343  21.539  0.00  0.00    +0.000 C 
ATOM      4  C   UNL     1       1.317  12.424  18.959  0.00  0.00    +0.000 C 
ATOM      5  N   UNL     1       0.173  11.650  18.472  0.00  0.00    +0.000 N 
ATOM      6  C   UNL     1       0.106  10.262  18.401  0.00  0.00    +0.000 C 
ATOM      7  O   UNL     1      -0.826   9.676  17.844  0.00  0.00    +0.000 OA
ATOM      8  C   UNL     1      -1.003  12.424  18.095  0.00  0.00    +0.000 C 
ATOM      9  C   UNL     1      -1.767  12.859  19.316  0.00  0.00    +0.000 A 
ATOM     10  C   UNL     1      -3.051  12.348  19.566  0.00  0.00    +0.000 A 
ATOM     11  C   UNL     1      -3.767  12.738  20.701  0.00  0.00    +0.000 A 
ATOM     12  C   UNL     1      -3.218  13.662  21.583  0.00  0.00    +0.000 A 
ATOM     13  C   UNL     1      -1.944  14.174  21.351  0.00  0.00    +0.000 A 
ATOM     14  C   UNL     1      -1.211  13.749  20.239  0.00  0.00    +0.000 A 
ATOM     15  O   UNL     1       0.071  14.224  20.118  0.00  0.00    +0.000 OA
ENDROOT
BRANCH   6  16
ATOM     16  C   UNL     1       1.142   9.409  19.091  0.00  0.00    +0.000 A 
ATOM     17  C   UNL     1       2.055   8.746  18.302  0.00  0.00    +0.000 A 
ATOM     18  C   UNL     1       2.524   7.541  18.799  0.00  0.00    +0.000 A 
ATOM     19  C   UNL     1       3.146   6.589  17.886  0.00  0.00    +0.000 A 
ATOM     20  O   UNL     1       4.054   6.896  17.130  0.00  0.00    +0.000 OA
ATOM     21  N   UNL     1       2.615   5.336  17.998  0.00  0.00    +0.000 N 
ATOM     22  C   UNL     1       2.263   4.878  19.236  0.00  0.00    +0.000 A 
ATOM     23  N   UNL     1       2.112   5.634  20.275  0.00  0.00    +0.000 NA
ATOM     24  C   UNL     1       2.096   7.019  20.017  0.00  0.00    +0.000 A 
ATOM     25  C   UNL     1       1.364   7.867  20.814  0.00  0.00    +0.000 A 
ATOM     26  N   UNL     1       0.879   9.050  20.374  0.00  0.00    +0.000 NA
ATOM     27  H   UNL     1       2.861   4.681  17.272  0.00  0.00    +0.000 HD
ENDBRANCH   6  16
TORSDOF 1
ENDMDL
MODEL 7
REMARK VINA RESULT:      -6.6      7.511     10.331
REMARK  Name = 
REMARK  3 active torsions:
REMARK  status: ('A' for Active; 'I' for Inactive)
REMARK    1  A    between atoms: C_1  and  C_2
REMARK    2  A    between atoms: C_2  and  C_3
REMARK    3  A    between atoms: C_6  and  C_8
REMARK                            x       y       z     vdW  Elec       q    Type
REMARK                         _______ _______ _______ _____ _____    ______ ____
ROOT
ATOM      1  C   UNL     1      -0.985  14.555  19.356  0.00  0.00    +0.000 C 
ATOM      2  C   UNL     1      -1.345  13.431  20.350  0.00  0.00    +0.000 C 
ATOM      3  C   UNL     1      -2.135  12.382  19.543  0.00  0.00    +0.000 C 
ATOM      4  C   UNL     1      -2.119  14.122  21.505  0.00  0.00    +0.000 C 
ATOM      5  N   UNL     1      -2.520  13.255  22.615  0.00  0.00    +0.000 N 
ATOM      6  C   UNL     1      -3.828  12.915  22.946  0.00  0.00    +0.000 C 
ATOM      7  O   UNL     1      -4.107  12.301  23.980  0.00  0.00    +0.000 OA
ATOM      8  C   UNL     1      -1.432  12.662  23.382  0.00  0.00    +0.000 C 
ATOM      9  C   UNL     1      -0.829  11.499  22.639  0.00  0.00    +0.000 A 
ATOM     10  C   UNL     1      -0.958  10.195  23.143  0.00  0.00    +0.000 A 
ATOM     11  C   UNL     1      -0.411   9.107  22.458  0.00  0.00    +0.000 A 
ATOM     12  C   UNL     1       0.293   9.314  21.276  0.00  0.00    +0.000 A 
ATOM     13  C   UNL     1       0.425  10.601  20.762  0.00  0.00    +0.000 A 
ATOM     14  C   UNL     1      -0.162  11.684  21.425  0.00  0.00    +0.000 A 
ATOM     15  O   UNL     1      -0.071  12.912  20.818  0.00  0.00    +0.000 OA
ENDROOT
BRANCH   6  16
ATOM     16  C   UNL     1      -4.961  13.212  21.994  0.00  0.00    +0.000 A 
ATOM     17  C   UNL     1      -5.815  12.181  21.673  0.00  0.00    +0.000 A 
ATOM     18  C   UNL     1      -6.379  12.232  20.409  0.00  0.00    +0.000 A 
ATOM     19  C   UNL     1      -6.943  11.017  19.833  0.00  0.00    +0.000 A 
ATOM     20  O   UNL     1      -7.757  10.324  20.422  0.00  0.00    +0.000 OA
ATOM     21  N   UNL     1      -6.476  10.772  18.574  0.00  0.00    +0.000 N 
ATOM     22  C   UNL     1      -6.268  11.827  17.731  0.00  0.00    +0.000 A 
ATOM     23  N   UNL     1      -6.193  13.060  18.115  0.00  0.00    +0.000 NA
ATOM     24  C   UNL     1      -6.097  13.254  19.507  0.00  0.00    +0.000 A 
ATOM     25  C   UNL     1      -5.415  14.336  20.013  0.00  0.00    +0.000 A 
ATOM     26  N   UNL     1      -4.842  14.333  21.238  0.00  0.00    +0.000 NA
ATOM     27  H   UNL     1      -6.674   9.858  18.195  0.00  0.00    +0.000 HD
ENDBRANCH   6  16
TORSDOF 1
ENDMDL
MODEL 8
REMARK VINA RESULT:      -6.5      7.012     10.032
REMARK  Name = 
REMARK  3 active torsions:
REMARK  status: ('A' for Active; 'I' for Inactive)
REMARK    1  A    between atoms: C_1  and  C_2
REMARK    2  A    between atoms: C_2  and  C_3
REMARK    3  A    between atoms: C_6  and  C_8
REMARK                            x       y       z     vdW  Elec       q    Type
REMARK                         _______ _______ _______ _____ _____    ______ ____
ROOT
ATOM      1  C   UNL     1      -3.238  14.110  21.896  0.00  0.00    +0.000 C 
ATOM      2  C   UNL     1      -2.011  13.253  21.520  0.00  0.00    +0.000 C 
ATOM      3  C   UNL     1      -0.853  13.748  22.409  0.00  0.00    +0.000 C 
ATOM      4  C   UNL     1      -1.819  13.440  19.991  0.00  0.00    +0.000 C 
ATOM      5  N   UNL     1      -0.735  12.665  19.383  0.00  0.00    +0.000 N 
ATOM      6  C   UNL     1       0.429  13.193  18.834  0.00  0.00    +0.000 C 
ATOM      7  O   UNL     1       1.234  12.500  18.206  0.00  0.00    +0.000 OA
ATOM      8  C   UNL     1      -0.890  11.216  19.426  0.00  0.00    +0.000 C 
ATOM      9  C   UNL     1      -0.554  10.686  20.794  0.00  0.00    +0.000 A 
ATOM     10  C   UNL     1       0.572   9.868  20.978  0.00  0.00    +0.000 A 
ATOM     11  C   UNL     1       0.899   9.377  22.246  0.00  0.00    +0.000 A 
ATOM     12  C   UNL     1       0.089   9.678  23.336  0.00  0.00    +0.000 A 
ATOM     13  C   UNL     1      -1.028  10.492  23.169  0.00  0.00    +0.000 A 
ATOM     14  C   UNL     1      -1.329  11.018  21.909  0.00  0.00    +0.000 A 
ATOM     15  O   UNL     1      -2.391  11.885  21.832  0.00  0.00    +0.000 OA
ENDROOT
BRANCH   6  16
ATOM     16  C   UNL     1       0.799  14.637  19.068  0.00  0.00    +0.000 A 
ATOM     17  C   UNL     1      -0.183  15.587  18.897  0.00  0.00    +0.000 A 
ATOM     18  C   UNL     1       0.245  16.832  18.468  0.00  0.00    +0.000 A 
ATOM     19  C   UNL     1      -0.719  17.748  17.870  0.00  0.00    +0.000 A 
ATOM     20  O   UNL     1      -1.775  18.040  18.410  0.00  0.00    +0.000 OA
ATOM     21  N   UNL     1      -0.292  18.246  16.673  0.00  0.00    +0.000 N 
ATOM     22  C   UNL     1       1.033  18.541  16.517  0.00  0.00    +0.000 A 
ATOM     23  N   UNL     1       1.970  18.115  17.301  0.00  0.00    +0.000 NA
ATOM     24  C   UNL     1       1.584  17.113  18.213  0.00  0.00    +0.000 A 
ATOM     25  C   UNL     1       2.491  16.168  18.632  0.00  0.00    +0.000 A 
ATOM     26  N   UNL     1       2.123  14.936  19.053  0.00  0.00    +0.000 NA
ATOM     27  H   UNL     1      -0.983  18.730  16.120  0.00  0.00    +0.000 HD
ENDBRANCH   6  16
TORSDOF 1
ENDMDL
MODEL 9
REMARK VINA RESULT:      -6.3      8.918     11.386
REMARK  Name = 
REMARK  3 active torsions:
REMARK  status: ('A' for Active; 'I' for Inactive)
REMARK    1  A    between atoms: C_1  and  C_2
REMARK    2  A    between atoms: C_2  and  C_3
REMARK    3  A    between atoms: C_6  and  C_8
REMARK                            x       y       z     vdW  Elec       q    Type
REMARK                         _______ _______ _______ _____ _____    ______ ____
ROOT
ATOM      1  C   UNL     1      10.777  16.203  22.526  0.00  0.00    +0.000 C 
ATOM      2  C   UNL     1       9.516  15.347  22.286  0.00  0.00    +0.000 C 
ATOM      3  C   UNL     1      10.001  14.050  21.610  0.00  0.00    +0.000 C 
ATOM      4  C   UNL     1       8.558  16.234  21.445  0.00  0.00    +0.000 C 
ATOM      5  N   UNL     1       7.251  15.650  21.138  0.00  0.00    +0.000 N 
ATOM      6  C   UNL     1       6.806  15.279  19.874  0.00  0.00    +0.000 C 
ATOM      7  O   UNL     1       5.641  14.931  19.662  0.00  0.00    +0.000 OA
ATOM      8  C   UNL     1       6.387  15.392  22.284  0.00  0.00    +0.000 C 
ATOM      9  C   UNL     1       6.820  14.143  23.004  0.00  0.00    +0.000 A 
ATOM     10  C   UNL     1       5.991  13.009  23.013  0.00  0.00    +0.000 A 
ATOM     11  C   UNL     1       6.385  11.841  23.671  0.00  0.00    +0.000 A 
ATOM     12  C   UNL     1       7.600  11.802  24.348  0.00  0.00    +0.000 A 
ATOM     13  C   UNL     1       8.434  12.917  24.344  0.00  0.00    +0.000 A 
ATOM     14  C   UNL     1       8.058  14.071  23.647  0.00  0.00    +0.000 A 
ATOM     15  O   UNL     1       8.965  15.100  23.609  0.00  0.00    +0.000 OA
ENDROOT
BRANCH   6  16
ATOM     16  C   UNL     1       7.770  15.201  18.715  0.00  0.00    +0.000 A 
ATOM     17  C   UNL     1       8.383  13.992  18.472  0.00  0.00    +0.000 A 
ATOM     18  C   UNL     1       9.652  14.057  17.920  0.00  0.00    +0.000 A 
ATOM     19  C   UNL     1      10.528  12.894  18.014  0.00  0.00    +0.000 A 
ATOM     20  O   UNL     1      10.180  11.777  17.665  0.00  0.00    +0.000 OA
ATOM     21  N   UNL     1      11.762  13.209  18.505  0.00  0.00    +0.000 N 
ATOM     22  C   UNL     1      12.333  14.396  18.140  0.00  0.00    +0.000 A 
ATOM     23  N   UNL     1      11.685  15.381  17.608  0.00  0.00    +0.000 NA
ATOM     24  C   UNL     1      10.281  15.265  17.636  0.00  0.00    +0.000 A 
ATOM     25  C   UNL     1       9.493  16.390  17.708  0.00  0.00    +0.000 A 
ATOM     26  N   UNL     1       8.251  16.379  18.243  0.00  0.00    +0.000 NA
ATOM     27  H   UNL     1      12.347  12.432  18.773  0.00  0.00    +0.000 HD
ENDBRANCH   6  16
TORSDOF 1
ENDMDL
