MODEL 1
REMARK VINA RESULT:      -8.4      0.000      0.000
REMARK  Name = 
REMARK  5 active torsions:
REMARK  status: ('A' for Active; 'I' for Inactive)
REMARK    1  A    between atoms: C_2  and  C_3
REMARK    2  A    between atoms: C_3  and  C_4
REMARK    3  A    between atoms: C_8  and  N_9
REMARK    4  A    between atoms: C_14  and  C_15
REMARK    5  A    between atoms: C_21  and  C_22
REMARK                            x       y       z     vdW  Elec       q    Type
REMARK                         _______ _______ _______ _____ _____    ______ ____
ROOT
ATOM      1  N   UNL     1       3.769   4.488  19.234  0.00  0.00    +0.000 N 
ATOM      2  C   UNL     1       5.108   5.129  19.301  0.00  0.00    +0.000 C 
ATOM      3  C   UNL     1       5.590   5.016  17.887  0.00  0.00    +0.000 A 
ATOM      4  C   UNL     1       4.937   3.925  17.310  0.00  0.00    +0.000 A 
ATOM      5  C   UNL     1       5.048   3.591  15.975  0.00  0.00    +0.000 A 
ATOM      6  C   UNL     1       5.868   4.401  15.191  0.00  0.00    +0.000 A 
ATOM      7  C   UNL     1       6.512   5.530  15.755  0.00  0.00    +0.000 A 
ATOM      8  C   UNL     1       6.386   5.857  17.120  0.00  0.00    +0.000 A 
ATOM      9  C   UNL     1       3.880   3.477  18.246  0.00  0.00    +0.000 C 
ATOM     10  O   UNL     1       3.155   2.526  18.037  0.00  0.00    +0.000 OA
ENDROOT
BRANCH   1  15
ATOM     11  C   UNL     1       1.955   7.475  20.124  0.00  0.00    +0.000 A 
ATOM     12  C   UNL     1       2.351   8.236  19.017  0.00  0.00    +0.000 A 
ATOM     13  C   UNL     1       2.721   7.609  17.832  0.00  0.00    +0.000 A 
ATOM     14  C   UNL     1       2.813   6.224  17.782  0.00  0.00    +0.000 A 
ATOM     15  C   UNL     1       2.748   5.500  18.980  0.00  0.00    +0.000 A 
ATOM     16  C   UNL     1       2.142   6.089  20.098  0.00  0.00    +0.000 A 
BRANCH  11  17
ATOM     17  C   UNL     1       1.461   8.154  21.371  0.00  0.00    +0.000 C 
BRANCH  17  19
ATOM     18  O   UNL     1       0.841  10.404  21.967  0.00  0.00    +0.000 OA
ATOM     19  C   UNL     1       0.966   9.549  21.095  0.00  0.00    +0.000 C 
ENDBRANCH  17  19
ENDBRANCH  11  17
ENDBRANCH   1  15
BRANCH   6  20
ATOM     20  C   UNL     1       6.103   4.102  13.762  0.00  0.00    +0.000 C 
ATOM     21  N   UNL     1       7.228   4.397  13.174  0.00  0.00    +0.000 NA
ATOM     22  C   UNL     1       7.118   3.864  11.802  0.00  0.00    +0.000 C 
ATOM     23  C   UNL     1       5.965   2.882  11.826  0.00  0.00    +0.000 C 
ATOM     24  C   UNL     1       5.061   3.423  12.915  0.00  0.00    +0.000 C 
ENDBRANCH   6  20
BRANCH   8  25
ATOM     25  C   UNL     1       7.052   7.101  17.648  0.00  0.00    +0.000 C 
ATOM     26  F   UNL     1       6.189   8.124  17.896  0.00  0.00    +0.000 F 
ATOM     27  F   UNL     1       7.708   6.880  18.817  0.00  0.00    +0.000 F 
ATOM     28  F   UNL     1       7.975   7.607  16.783  0.00  0.00    +0.000 F 
ENDBRANCH   8  25
TORSDOF 5
ENDMDL
MODEL 2
REMARK VINA RESULT:      -8.2      3.025      6.106
REMARK  Name = 
REMARK  5 active torsions:
REMARK  status: ('A' for Active; 'I' for Inactive)
REMARK    1  A    between atoms: C_2  and  C_3
REMARK    2  A    between atoms: C_3  and  C_4
REMARK    3  A    between atoms: C_8  and  N_9
REMARK    4  A    between atoms: C_14  and  C_15
REMARK    5  A    between atoms: C_21  and  C_22
REMARK                            x       y       z     vdW  Elec       q    Type
REMARK                         _______ _______ _______ _____ _____    ______ ____
ROOT
ATOM      1  N   UNL     1       6.044   5.309  15.592  0.00  0.00    +0.000 N 
ATOM      2  C   UNL     1       4.950   6.303  15.747  0.00  0.00    +0.000 C 
ATOM      3  C   UNL     1       4.153   5.731  16.879  0.00  0.00    +0.000 A 
ATOM      4  C   UNL     1       4.376   4.352  16.891  0.00  0.00    +0.000 A 
ATOM      5  C   UNL     1       3.892   3.512  17.873  0.00  0.00    +0.000 A 
ATOM      6  C   UNL     1       3.140   4.100  18.890  0.00  0.00    +0.000 A 
ATOM      7  C   UNL     1       2.933   5.502  18.909  0.00  0.00    +0.000 A 
ATOM      8  C   UNL     1       3.435   6.345  17.898  0.00  0.00    +0.000 A 
ATOM      9  C   UNL     1       5.473   4.058  15.939  0.00  0.00    +0.000 C 
ATOM     10  O   UNL     1       5.879   2.939  15.706  0.00  0.00    +0.000 OA
ENDROOT
BRANCH   1  15
ATOM     11  C   UNL     1       7.794   7.652  17.701  0.00  0.00    +0.000 A 
ATOM     12  C   UNL     1       7.861   6.828  18.831  0.00  0.00    +0.000 A 
ATOM     13  C   UNL     1       7.824   5.445  18.693  0.00  0.00    +0.000 A 
ATOM     14  C   UNL     1       7.600   4.881  17.443  0.00  0.00    +0.000 A 
ATOM     15  C   UNL     1       7.197   5.713  16.390  0.00  0.00    +0.000 A 
ATOM     16  C   UNL     1       7.474   7.084  16.463  0.00  0.00    +0.000 A 
BRANCH  11  17
ATOM     17  C   UNL     1       7.935   9.143  17.842  0.00  0.00    +0.000 C 
BRANCH  17  19
ATOM     18  O   UNL     1       9.592  10.560  18.864  0.00  0.00    +0.000 OA
ATOM     19  C   UNL     1       8.945   9.517  18.893  0.00  0.00    +0.000 C 
ENDBRANCH  17  19
ENDBRANCH  11  17
ENDBRANCH   1  15
BRANCH   6  20
ATOM     20  C   UNL     1       2.528   3.286  19.961  0.00  0.00    +0.000 C 
ATOM     21  N   UNL     1       3.244   2.529  20.742  0.00  0.00    +0.000 NA
ATOM     22  C   UNL     1       2.303   1.962  21.728  0.00  0.00    +0.000 C 
ATOM     23  C   UNL     1       1.053   2.815  21.653  0.00  0.00    +0.000 C 
ATOM     24  C   UNL     1       1.045   3.306  20.219  0.00  0.00    +0.000 C 
ENDBRANCH   6  20
BRANCH   8  25
ATOM     25  C   UNL     1       3.227   7.833  18.004  0.00  0.00    +0.000 C 
ATOM     26  F   UNL     1       2.599   8.221  19.147  0.00  0.00    +0.000 F 
ATOM     27  F   UNL     1       4.398   8.523  17.974  0.00  0.00    +0.000 F 
ATOM     28  F   UNL     1       2.468   8.328  16.986  0.00  0.00    +0.000 F 
ENDBRANCH   8  25
TORSDOF 5
ENDMDL
MODEL 3
REMARK VINA RESULT:      -7.9      0.902      1.277
REMARK  Name = 
REMARK  5 active torsions:
REMARK  status: ('A' for Active; 'I' for Inactive)
REMARK    1  A    between atoms: C_2  and  C_3
REMARK    2  A    between atoms: C_3  and  C_4
REMARK    3  A    between atoms: C_8  and  N_9
REMARK    4  A    between atoms: C_14  and  C_15
REMARK    5  A    between atoms: C_21  and  C_22
REMARK                            x       y       z     vdW  Elec       q    Type
REMARK                         _______ _______ _______ _____ _____    ______ ____
ROOT
ATOM      1  N   UNL     1       2.986   3.816  18.941  0.00  0.00    +0.000 N 
ATOM      2  C   UNL     1       4.378   4.080  19.388  0.00  0.00    +0.000 C 
ATOM      3  C   UNL     1       5.111   4.223  18.090  0.00  0.00    +0.000 A 
ATOM      4  C   UNL     1       4.398   3.505  17.127  0.00  0.00    +0.000 A 
ATOM      5  C   UNL     1       4.718   3.509  15.785  0.00  0.00    +0.000 A 
ATOM      6  C   UNL     1       5.820   4.274  15.403  0.00  0.00    +0.000 A 
ATOM      7  C   UNL     1       6.532   5.034  16.362  0.00  0.00    +0.000 A 
ATOM      8  C   UNL     1       6.192   5.019  17.730  0.00  0.00    +0.000 A 
ATOM      9  C   UNL     1       3.106   3.096  17.726  0.00  0.00    +0.000 C 
ATOM     10  O   UNL     1       2.276   2.432  17.142  0.00  0.00    +0.000 OA
ENDROOT
BRANCH   1  15
ATOM     11  C   UNL     1       2.019   7.040  20.236  0.00  0.00    +0.000 A 
ATOM     12  C   UNL     1       2.558   7.799  19.189  0.00  0.00    +0.000 A 
ATOM     13  C   UNL     1       2.718   7.237  17.928  0.00  0.00    +0.000 A 
ATOM     14  C   UNL     1       2.454   5.888  17.733  0.00  0.00    +0.000 A 
ATOM     15  C   UNL     1       2.247   5.072  18.853  0.00  0.00    +0.000 A 
ATOM     16  C   UNL     1       1.847   5.663  20.059  0.00  0.00    +0.000 A 
BRANCH  11  17
ATOM     17  C   UNL     1       1.754   7.676  21.572  0.00  0.00    +0.000 C 
BRANCH  17  19
ATOM     18  O   UNL     1       1.279  10.023  21.830  0.00  0.00    +0.000 OA
ATOM     19  C   UNL     1       0.910   8.916  21.450  0.00  0.00    +0.000 C 
ENDBRANCH  17  19
ENDBRANCH  11  17
ENDBRANCH   1  15
BRANCH   6  20
ATOM     20  C   UNL     1       6.284   4.305  13.999  0.00  0.00    +0.000 C 
ATOM     21  N   UNL     1       7.251   5.088  13.613  0.00  0.00    +0.000 NA
ATOM     22  C   UNL     1       7.485   4.767  12.191  0.00  0.00    +0.000 C 
ATOM     23  C   UNL     1       6.815   3.431  11.947  0.00  0.00    +0.000 C 
ATOM     24  C   UNL     1       5.675   3.419  12.946  0.00  0.00    +0.000 C 
ENDBRANCH   6  20
BRANCH   8  25
ATOM     25  C   UNL     1       6.955   5.890  18.693  0.00  0.00    +0.000 C 
ATOM     26  F   UNL     1       8.224   5.462  18.936  0.00  0.00    +0.000 F 
ATOM     27  F   UNL     1       7.076   7.170  18.249  0.00  0.00    +0.000 F 
ATOM     28  F   UNL     1       6.358   5.966  19.915  0.00  0.00    +0.000 F 
ENDBRANCH   8  25
TORSDOF 5
ENDMDL
MODEL 4
REMARK VINA RESULT:      -7.8      1.519      1.892
REMARK  Name = 
REMARK  5 active torsions:
REMARK  status: ('A' for Active; 'I' for Inactive)
REMARK    1  A    between atoms: C_2  and  C_3
REMARK    2  A    between atoms: C_3  and  C_4
REMARK    3  A    between atoms: C_8  and  N_9
REMARK    4  A    between atoms: C_14  and  C_15
REMARK    5  A    between atoms: C_21  and  C_22
REMARK                            x       y       z     vdW  Elec       q    Type
REMARK                         _______ _______ _______ _____ _____    ______ ____
ROOT
ATOM      1  N   UNL     1       4.672   4.120  19.578  0.00  0.00    +0.000 N 
ATOM      2  C   UNL     1       5.911   4.934  19.475  0.00  0.00    +0.000 C 
ATOM      3  C   UNL     1       6.190   4.912  18.003  0.00  0.00    +0.000 A 
ATOM      4  C   UNL     1       5.607   3.753  17.486  0.00  0.00    +0.000 A 
ATOM      5  C   UNL     1       5.563   3.460  16.139  0.00  0.00    +0.000 A 
ATOM      6  C   UNL     1       6.145   4.386  15.274  0.00  0.00    +0.000 A 
ATOM      7  C   UNL     1       6.711   5.582  15.781  0.00  0.00    +0.000 A 
ATOM      8  C   UNL     1       6.747   5.866  17.161  0.00  0.00    +0.000 A 
ATOM      9  C   UNL     1       4.768   3.150  18.549  0.00  0.00    +0.000 C 
ATOM     10  O   UNL     1       4.152   2.114  18.411  0.00  0.00    +0.000 OA
ENDROOT
BRANCH   1  15
ATOM     11  C   UNL     1       2.840   6.893  18.179  0.00  0.00    +0.000 A 
ATOM     12  C   UNL     1       1.758   6.142  17.701  0.00  0.00    +0.000 A 
ATOM     13  C   UNL     1       1.431   4.928  18.296  0.00  0.00    +0.000 A 
ATOM     14  C   UNL     1       2.250   4.401  19.286  0.00  0.00    +0.000 A 
ATOM     15  C   UNL     1       3.501   4.989  19.512  0.00  0.00    +0.000 A 
ATOM     16  C   UNL     1       3.711   6.314  19.107  0.00  0.00    +0.000 A 
BRANCH  11  17
ATOM     17  C   UNL     1       3.131   8.250  17.603  0.00  0.00    +0.000 C 
BRANCH  17  19
ATOM     18  O   UNL     1       2.095  10.422  17.701  0.00  0.00    +0.000 OA
ATOM     19  C   UNL     1       1.982   9.203  17.794  0.00  0.00    +0.000 C 
ENDBRANCH  17  19
ENDBRANCH  11  17
ENDBRANCH   1  15
BRANCH   6  20
ATOM     20  C   UNL     1       6.203   4.146  13.816  0.00  0.00    +0.000 C 
ATOM     21  N   UNL     1       7.260   4.441  13.114  0.00  0.00    +0.000 NA
ATOM     22  C   UNL     1       6.976   3.973  11.743  0.00  0.00    +0.000 C 
ATOM     23  C   UNL     1       5.806   3.017  11.861  0.00  0.00    +0.000 C 
ATOM     24  C   UNL     1       5.050   3.530  13.071  0.00  0.00    +0.000 C 
ENDBRANCH   6  20
BRANCH   8  25
ATOM     25  C   UNL     1       7.314   7.179  17.632  0.00  0.00    +0.000 C 
ATOM     26  F   UNL     1       8.030   7.087  18.786  0.00  0.00    +0.000 F 
ATOM     27  F   UNL     1       8.153   7.738  16.721  0.00  0.00    +0.000 F 
ATOM     28  F   UNL     1       6.347   8.107  17.879  0.00  0.00    +0.000 F 
ENDBRANCH   8  25
TORSDOF 5
ENDMDL
MODEL 5
REMARK VINA RESULT:      -7.6      7.916     11.282
REMARK  Name = 
REMARK  5 active torsions:
REMARK  status: ('A' for Active; 'I' for Inactive)
REMARK    1  A    between atoms: C_2  and  C_3
REMARK    2  A    between atoms: C_3  and  C_4
REMARK    3  A    between atoms: C_8  and  N_9
REMARK    4  A    between atoms: C_14  and  C_15
REMARK    5  A    between atoms: C_21  and  C_22
REMARK                            x       y       z     vdW  Elec       q    Type
REMARK                         _______ _______ _______ _____ _____    ______ ____
ROOT
ATOM      1  N   UNL     1      -0.405  11.249  18.413  0.00  0.00    +0.000 N 
ATOM      2  C   UNL     1       0.322  10.471  19.449  0.00  0.00    +0.000 C 
ATOM      3  C   UNL     1      -0.106  11.146  20.717  0.00  0.00    +0.000 A 
ATOM      4  C   UNL     1      -0.458  12.458  20.393  0.00  0.00    +0.000 A 
ATOM      5  C   UNL     1      -1.012  13.342  21.296  0.00  0.00    +0.000 A 
ATOM      6  C   UNL     1      -1.213  12.872  22.593  0.00  0.00    +0.000 A 
ATOM      7  C   UNL     1      -0.892  11.533  22.929  0.00  0.00    +0.000 A 
ATOM      8  C   UNL     1      -0.327  10.643  21.993  0.00  0.00    +0.000 A 
ATOM      9  C   UNL     1      -0.484  12.573  18.916  0.00  0.00    +0.000 C 
ATOM     10  O   UNL     1      -0.730  13.604  18.326  0.00  0.00    +0.000 OA
ENDROOT
BRANCH   1  15
ATOM     11  C   UNL     1      -3.955  11.377  17.795  0.00  0.00    +0.000 A 
ATOM     12  C   UNL     1      -3.909  10.857  16.496  0.00  0.00    +0.000 A 
ATOM     13  C   UNL     1      -2.858  10.033  16.108  0.00  0.00    +0.000 A 
ATOM     14  C   UNL     1      -1.791   9.821  16.972  0.00  0.00    +0.000 A 
ATOM     15  C   UNL     1      -1.687  10.613  18.123  0.00  0.00    +0.000 A 
ATOM     16  C   UNL     1      -2.837  11.238  18.623  0.00  0.00    +0.000 A 
BRANCH  11  17
ATOM     17  C   UNL     1      -5.141  12.184  18.244  0.00  0.00    +0.000 C 
BRANCH  17  19
ATOM     18  O   UNL     1      -6.969  10.661  18.618  0.00  0.00    +0.000 OA
ATOM     19  C   UNL     1      -6.444  11.511  17.905  0.00  0.00    +0.000 C 
ENDBRANCH  17  19
ENDBRANCH  11  17
ENDBRANCH   1  15
BRANCH   6  20
ATOM     20  C   UNL     1      -1.748  13.751  23.655  0.00  0.00    +0.000 C 
ATOM     21  N   UNL     1      -1.008  14.650  24.240  0.00  0.00    +0.000 NA
ATOM     22  C   UNL     1      -1.908  15.379  25.155  0.00  0.00    +0.000 C 
ATOM     23  C   UNL     1      -3.318  15.050  24.707  0.00  0.00    +0.000 C 
ATOM     24  C   UNL     1      -3.183  13.667  24.101  0.00  0.00    +0.000 C 
ENDBRANCH   6  20
BRANCH   8  25
ATOM     25  C   UNL     1      -0.058   9.217  22.397  0.00  0.00    +0.000 C 
ATOM     26  F   UNL     1       1.184   8.774  22.057  0.00  0.00    +0.000 F 
ATOM     27  F   UNL     1      -0.161   9.031  23.739  0.00  0.00    +0.000 F 
ATOM     28  F   UNL     1      -0.926   8.339  21.822  0.00  0.00    +0.000 F 
ENDBRANCH   8  25
TORSDOF 5
ENDMDL
MODEL 6
REMARK VINA RESULT:      -7.4      4.652      8.499
REMARK  Name = 
REMARK  5 active torsions:
REMARK  status: ('A' for Active; 'I' for Inactive)
REMARK    1  A    between atoms: C_2  and  C_3
REMARK    2  A    between atoms: C_3  and  C_4
REMARK    3  A    between atoms: C_8  and  N_9
REMARK    4  A    between atoms: C_14  and  C_15
REMARK    5  A    between atoms: C_21  and  C_22
REMARK                            x       y       z     vdW  Elec       q    Type
REMARK                         _______ _______ _______ _____ _____    ______ ____
ROOT
ATOM      1  N   UNL     1       2.539   7.761  19.331  0.00  0.00    +0.000 N 
ATOM      2  C   UNL     1       2.145   8.572  20.512  0.00  0.00    +0.000 C 
ATOM      3  C   UNL     1       0.916   9.277  20.022  0.00  0.00    +0.000 A 
ATOM      4  C   UNL     1       1.010   9.359  18.631  0.00  0.00    +0.000 A 
ATOM      5  C   UNL     1      -0.003   9.844  17.829  0.00  0.00    +0.000 A 
ATOM      6  C   UNL     1      -1.164  10.273  18.471  0.00  0.00    +0.000 A 
ATOM      7  C   UNL     1      -1.286  10.165  19.878  0.00  0.00    +0.000 A 
ATOM      8  C   UNL     1      -0.242   9.666  20.683  0.00  0.00    +0.000 A 
ATOM      9  C   UNL     1       2.155   8.524  18.199  0.00  0.00    +0.000 C 
ATOM     10  O   UNL     1       2.509   8.415  17.044  0.00  0.00    +0.000 OA
ENDROOT
BRANCH   1  15
ATOM     11  C   UNL     1       2.538   4.220  18.653  0.00  0.00    +0.000 A 
ATOM     12  C   UNL     1       2.583   3.803  19.990  0.00  0.00    +0.000 A 
ATOM     13  C   UNL     1       2.092   4.626  20.997  0.00  0.00    +0.000 A 
ATOM     14  C   UNL     1       1.666   5.912  20.692  0.00  0.00    +0.000 A 
ATOM     15  C   UNL     1       1.943   6.432  19.420  0.00  0.00    +0.000 A 
ATOM     16  C   UNL     1       2.198   5.546  18.366  0.00  0.00    +0.000 A 
BRANCH  11  17
ATOM     17  C   UNL     1       2.976   3.290  17.556  0.00  0.00    +0.000 C 
BRANCH  17  19
ATOM     18  O   UNL     1       3.840   1.198  18.379  0.00  0.00    +0.000 OA
ATOM     19  C   UNL     1       2.882   1.845  17.969  0.00  0.00    +0.000 C 
ENDBRANCH  17  19
ENDBRANCH  11  17
ENDBRANCH   1  15
BRANCH   6  20
ATOM     20  C   UNL     1      -2.289  10.862  17.713  0.00  0.00    +0.000 C 
ATOM     21  N   UNL     1      -2.422  10.679  16.430  0.00  0.00    +0.000 NA
ATOM     22  C   UNL     1      -3.695  11.330  16.061  0.00  0.00    +0.000 C 
ATOM     23  C   UNL     1      -4.451  11.538  17.357  0.00  0.00    +0.000 C 
ATOM     24  C   UNL     1      -3.350  11.687  18.389  0.00  0.00    +0.000 C 
ENDBRANCH   6  20
BRANCH   8  25
ATOM     25  C   UNL     1      -0.453   9.526  22.168  0.00  0.00    +0.000 C 
ATOM     26  F   UNL     1       0.684   9.671  22.901  0.00  0.00    +0.000 F 
ATOM     27  F   UNL     1      -1.327  10.447  22.655  0.00  0.00    +0.000 F 
ATOM     28  F   UNL     1      -0.954   8.307  22.512  0.00  0.00    +0.000 F 
ENDBRANCH   8  25
TORSDOF 5
ENDMDL
MODEL 7
REMARK VINA RESULT:      -7.4      4.428      8.377
REMARK  Name = 
REMARK  5 active torsions:
REMARK  status: ('A' for Active; 'I' for Inactive)
REMARK    1  A    between atoms: C_2  and  C_3
REMARK    2  A    between atoms: C_3  and  C_4
REMARK    3  A    between atoms: C_8  and  N_9
REMARK    4  A    between atoms: C_14  and  C_15
REMARK    5  A    between atoms: C_21  and  C_22
REMARK                            x       y       z     vdW  Elec       q    Type
REMARK                         _______ _______ _______ _____ _____    ______ ____
ROOT
ATOM      1  N   UNL     1       2.576   7.688  19.344  0.00  0.00    +0.000 N 
ATOM      2  C   UNL     1       2.170   8.493  20.525  0.00  0.00    +0.000 C 
ATOM      3  C   UNL     1       0.952   9.208  20.025  0.00  0.00    +0.000 A 
ATOM      4  C   UNL     1       1.063   9.300  18.636  0.00  0.00    +0.000 A 
ATOM      5  C   UNL     1       0.064   9.795  17.824  0.00  0.00    +0.000 A 
ATOM      6  C   UNL     1      -1.103  10.226  18.455  0.00  0.00    +0.000 A 
ATOM      7  C   UNL     1      -1.244  10.109  19.859  0.00  0.00    +0.000 A 
ATOM      8  C   UNL     1      -0.213   9.599  20.674  0.00  0.00    +0.000 A 
ATOM      9  C   UNL     1       2.210   8.461  18.212  0.00  0.00    +0.000 C 
ATOM     10  O   UNL     1       2.578   8.358  17.061  0.00  0.00    +0.000 OA
ENDROOT
BRANCH   1  15
ATOM     11  C   UNL     1       2.568   4.150  18.648  0.00  0.00    +0.000 A 
ATOM     12  C   UNL     1       2.589   3.727  19.983  0.00  0.00    +0.000 A 
ATOM     13  C   UNL     1       2.085   4.548  20.985  0.00  0.00    +0.000 A 
ATOM     14  C   UNL     1       1.670   5.837  20.680  0.00  0.00    +0.000 A 
ATOM     15  C   UNL     1       1.971   6.362  19.416  0.00  0.00    +0.000 A 
ATOM     16  C   UNL     1       2.240   5.480  18.362  0.00  0.00    +0.000 A 
BRANCH  11  17
ATOM     17  C   UNL     1       3.021   3.224  17.554  0.00  0.00    +0.000 C 
BRANCH  17  19
ATOM     18  O   UNL     1       4.672   4.126  16.050  0.00  0.00    +0.000 OA
ATOM     19  C   UNL     1       4.421   3.533  17.095  0.00  0.00    +0.000 C 
ENDBRANCH  17  19
ENDBRANCH  11  17
ENDBRANCH   1  15
BRANCH   6  20
ATOM     20  C   UNL     1      -2.215  10.826  17.686  0.00  0.00    +0.000 C 
ATOM     21  N   UNL     1      -2.340  10.643  16.403  0.00  0.00    +0.000 NA
ATOM     22  C   UNL     1      -3.602  11.307  16.022  0.00  0.00    +0.000 C 
ATOM     23  C   UNL     1      -4.366  11.525  17.312  0.00  0.00    +0.000 C 
ATOM     24  C   UNL     1      -3.273  11.665  18.352  0.00  0.00    +0.000 C 
ENDBRANCH   6  20
BRANCH   8  25
ATOM     25  C   UNL     1      -0.443   9.450  22.154  0.00  0.00    +0.000 C 
ATOM     26  F   UNL     1      -1.313  10.361  22.670  0.00  0.00    +0.000 F 
ATOM     27  F   UNL     1      -0.950   8.231  22.479  0.00  0.00    +0.000 F 
ATOM     28  F   UNL     1       0.702   9.591  22.878  0.00  0.00    +0.000 F 
ENDBRANCH   8  25
TORSDOF 5
ENDMDL
MODEL 8
REMARK VINA RESULT:      -7.3      7.862     11.197
REMARK  Name = 
REMARK  5 active torsions:
REMARK  status: ('A' for Active; 'I' for Inactive)
REMARK    1  A    between atoms: C_2  and  C_3
REMARK    2  A    between atoms: C_3  and  C_4
REMARK    3  A    between atoms: C_8  and  N_9
REMARK    4  A    between atoms: C_14  and  C_15
REMARK    5  A    between atoms: C_21  and  C_22
REMARK                            x       y       z     vdW  Elec       q    Type
REMARK                         _______ _______ _______ _____ _____    ______ ____
ROOT
ATOM      1  N   UNL     1      -0.263  11.185  18.459  0.00  0.00    +0.000 N 
ATOM      2  C   UNL     1       0.437  10.460  19.551  0.00  0.00    +0.000 C 
ATOM      3  C   UNL     1      -0.039  11.183  20.774  0.00  0.00    +0.000 A 
ATOM      4  C   UNL     1      -0.394  12.476  20.382  0.00  0.00    +0.000 A 
ATOM      5  C   UNL     1      -0.987  13.391  21.228  0.00  0.00    +0.000 A 
ATOM      6  C   UNL     1      -1.226  12.975  22.537  0.00  0.00    +0.000 A 
ATOM      7  C   UNL     1      -0.902  11.656  22.941  0.00  0.00    +0.000 A 
ATOM      8  C   UNL     1      -0.297  10.734  22.063  0.00  0.00    +0.000 A 
ATOM      9  C   UNL     1      -0.372  12.527  18.902  0.00  0.00    +0.000 C 
ATOM     10  O   UNL     1      -0.609  13.530  18.260  0.00  0.00    +0.000 OA
ENDROOT
BRANCH   1  15
ATOM     11  C   UNL     1      -3.825  11.225  17.899  0.00  0.00    +0.000 A 
ATOM     12  C   UNL     1      -3.781  10.774  16.574  0.00  0.00    +0.000 A 
ATOM     13  C   UNL     1      -2.710  10.007  16.130  0.00  0.00    +0.000 A 
ATOM     14  C   UNL     1      -1.623   9.787  16.967  0.00  0.00    +0.000 A 
ATOM     15  C   UNL     1      -1.527  10.522  18.155  0.00  0.00    +0.000 A 
ATOM     16  C   UNL     1      -2.689  11.082  18.703  0.00  0.00    +0.000 A 
BRANCH  11  17
ATOM     17  C   UNL     1      -5.029  11.969  18.406  0.00  0.00    +0.000 C 
BRANCH  17  19
ATOM     18  O   UNL     1      -5.449  12.306  20.753  0.00  0.00    +0.000 OA
ATOM     19  C   UNL     1      -4.785  12.582  19.759  0.00  0.00    +0.000 C 
ENDBRANCH  17  19
ENDBRANCH  11  17
ENDBRANCH   1  15
BRANCH   6  20
ATOM     20  C   UNL     1      -1.806  13.892  23.542  0.00  0.00    +0.000 C 
ATOM     21  N   UNL     1      -2.979  13.682  24.068  0.00  0.00    +0.000 NA
ATOM     22  C   UNL     1      -3.163  14.741  25.079  0.00  0.00    +0.000 C 
ATOM     23  C   UNL     1      -1.785  15.316  25.338  0.00  0.00    +0.000 C 
ATOM     24  C   UNL     1      -1.061  15.109  24.023  0.00  0.00    +0.000 C 
ENDBRANCH   6  20
BRANCH   8  25
ATOM     25  C   UNL     1      -0.027   9.329  22.536  0.00  0.00    +0.000 C 
ATOM     26  F   UNL     1      -0.132   9.172  23.884  0.00  0.00    +0.000 F 
ATOM     27  F   UNL     1      -0.883   8.426  21.991  0.00  0.00    +0.000 F 
ATOM     28  F   UNL     1       1.228   8.904  22.219  0.00  0.00    +0.000 F 
ENDBRANCH   8  25
TORSDOF 5
ENDMDL
MODEL 9
REMARK VINA RESULT:      -7.3      3.163      7.345
REMARK  Name = 
REMARK  5 active torsions:
REMARK  status: ('A' for Active; 'I' for Inactive)
REMARK    1  A    between atoms: C_2  and  C_3
REMARK    2  A    between atoms: C_3  and  C_4
REMARK    3  A    between atoms: C_8  and  N_9
REMARK    4  A    between atoms: C_14  and  C_15
REMARK    5  A    between atoms: C_21  and  C_22
REMARK                            x       y       z     vdW  Elec       q    Type
REMARK                         _______ _______ _______ _____ _____    ______ ____
ROOT
ATOM      1  N   UNL     1       6.251   4.193  18.188  0.00  0.00    +0.000 N 
ATOM      2  C   UNL     1       4.999   3.393  18.152  0.00  0.00    +0.000 C 
ATOM      3  C   UNL     1       3.965   4.394  18.570  0.00  0.00    +0.000 A 
ATOM      4  C   UNL     1       4.611   5.364  19.339  0.00  0.00    +0.000 A 
ATOM      5  C   UNL     1       3.989   6.508  19.797  0.00  0.00    +0.000 A 
ATOM      6  C   UNL     1       2.645   6.670  19.464  0.00  0.00    +0.000 A 
ATOM      7  C   UNL     1       1.985   5.711  18.657  0.00  0.00    +0.000 A 
ATOM      8  C   UNL     1       2.636   4.548  18.197  0.00  0.00    +0.000 A 
ATOM      9  C   UNL     1       6.071   5.135  19.234  0.00  0.00    +0.000 C 
ATOM     10  O   UNL     1       6.900   5.802  19.816  0.00  0.00    +0.000 OA
ENDROOT
BRANCH   1  15
ATOM     11  C   UNL     1       5.681   4.391  14.633  0.00  0.00    +0.000 A 
ATOM     12  C   UNL     1       5.211   5.710  14.621  0.00  0.00    +0.000 A 
ATOM     13  C   UNL     1       5.590   6.597  15.622  0.00  0.00    +0.000 A 
ATOM     14  C   UNL     1       6.341   6.145  16.700  0.00  0.00    +0.000 A 
ATOM     15  C   UNL     1       6.512   4.765  16.871  0.00  0.00    +0.000 A 
ATOM     16  C   UNL     1       6.354   3.919  15.765  0.00  0.00    +0.000 A 
BRANCH  11  17
ATOM     17  C   UNL     1       5.352   3.460  13.499  0.00  0.00    +0.000 C 
BRANCH  17  19
ATOM     18  O   UNL     1       7.246   4.382  12.332  0.00  0.00    +0.000 OA
ATOM     19  C   UNL     1       6.393   3.504  12.413  0.00  0.00    +0.000 C 
ENDBRANCH  17  19
ENDBRANCH  11  17
ENDBRANCH   1  15
BRANCH   6  20
ATOM     20  C   UNL     1       1.868   7.830  19.950  0.00  0.00    +0.000 C 
ATOM     21  N   UNL     1       1.582   8.838  19.176  0.00  0.00    +0.000 NA
ATOM     22  C   UNL     1       0.727   9.734  19.979  0.00  0.00    +0.000 C 
ATOM     23  C   UNL     1       0.237   8.907  21.150  0.00  0.00    +0.000 C 
ATOM     24  C   UNL     1       1.349   7.898  21.361  0.00  0.00    +0.000 C 
ENDBRANCH   6  20
BRANCH   8  25
ATOM     25  C   UNL     1       1.896   3.592  17.298  0.00  0.00    +0.000 C 
ATOM     26  F   UNL     1       1.635   2.386  17.872  0.00  0.00    +0.000 F 
ATOM     27  F   UNL     1       0.690   4.081  16.903  0.00  0.00    +0.000 F 
ATOM     28  F   UNL     1       2.584   3.310  16.156  0.00  0.00    +0.000 F 
ENDBRANCH   8  25
TORSDOF 5
ENDMDL
