MODEL 1
REMARK VINA RESULT:      -7.5      0.000      0.000
REMARK  Name = 
REMARK  9 active torsions:
REMARK  status: ('A' for Active; 'I' for Inactive)
REMARK    1  A    between atoms: C_1  and  C_2
REMARK    2  A    between atoms: C_4  and  C_5
REMARK    3  A    between atoms: C_5  and  N_6
REMARK    4  A    between atoms: C_5  and  C_7
REMARK    5  A    between atoms: C_7  and  C_8
REMARK    6  A    between atoms: N_12  and  C_13
REMARK    7  A    between atoms: C_15  and  N_16
REMARK    8  A    between atoms: C_23  and  C_24
REMARK    9  A    between atoms: C_24  and  C_25
REMARK                            x       y       z     vdW  Elec       q    Type
REMARK                         _______ _______ _______ _____ _____    ______ ____
ROOT
ATOM      1  C   UNL     1       2.128  11.207  17.605  0.00  0.00    +0.000 C 
ATOM      2  C   UNL     1       2.178   9.897  18.340  0.00  0.00    +0.000 A 
ATOM      3  C   UNL     1       1.734   9.775  19.662  0.00  0.00    +0.000 A 
ATOM      4  C   UNL     1       1.761   8.530  20.322  0.00  0.00    +0.000 A 
ATOM      5  C   UNL     1       2.239   7.401  19.642  0.00  0.00    +0.000 A 
ATOM      6  C   UNL     1       2.550   7.490  18.300  0.00  0.00    +0.000 A 
ATOM      7  C   UNL     1       2.595   8.745  17.668  0.00  0.00    +0.000 A 
ENDROOT
BRANCH   6   8
ATOM      8  N   UNL     1       2.461   6.272  17.554  0.00  0.00    +0.000 N 
ATOM      9  C   UNL     1       1.648   5.216  18.145  0.00  0.00    +0.000 C 
ATOM     10  C   UNL     1       2.661   4.292  18.735  0.00  0.00    +0.000 A 
ATOM     11  C   UNL     1       3.904   4.568  18.165  0.00  0.00    +0.000 A 
ATOM     12  C   UNL     1       5.089   4.071  18.664  0.00  0.00    +0.000 A 
ATOM     13  C   UNL     1       5.000   3.250  19.782  0.00  0.00    +0.000 A 
ATOM     14  C   UNL     1       3.744   2.923  20.338  0.00  0.00    +0.000 A 
ATOM     15  C   UNL     1       2.539   3.410  19.797  0.00  0.00    +0.000 A 
ATOM     16  C   UNL     1       3.747   5.735  17.295  0.00  0.00    +0.000 C 
ATOM     17  O   UNL     1       4.647   6.225  16.635  0.00  0.00    +0.000 OA
BRANCH  15  18
ATOM     18  C   UNL     1       1.197   3.086  20.411  0.00  0.00    +0.000 C 
ATOM     19  C   UNL     1       1.337   2.383  21.750  0.00  0.00    +0.000 C 
ATOM     20  F   UNL     1       0.442   4.205  20.585  0.00  0.00    +0.000 F 
ATOM     21  F   UNL     1       0.439   2.262  19.622  0.00  0.00    +0.000 F 
ENDBRANCH  15  18
ENDBRANCH   6   8
BRANCH   4  22
ATOM     22  C   UNL     1       1.039   8.335  21.642  0.00  0.00    +0.000 C 
BRANCH  22  23
ATOM     23  N   UNL     1       1.764   9.119  22.666  0.00  0.00    +0.000 NA
ATOM     24  H   UNL     1       1.212   9.145  23.526  0.00  0.00    +0.000 HD
ATOM     25  H   UNL     1       1.775  10.094  22.361  0.00  0.00    +0.000 HD
ENDBRANCH  22  23
BRANCH  22  26
ATOM     26  C   UNL     1      -0.447   8.747  21.613  0.00  0.00    +0.000 C 
BRANCH  26  27
ATOM     27  C   UNL     1      -0.659  10.165  22.026  0.00  0.00    +0.000 A 
ATOM     28  N   UNL     1      -0.536  10.624  23.257  0.00  0.00    +0.000 NA
ATOM     29  N   UNL     1      -0.724  11.984  23.234  0.00  0.00    +0.000 NA
ATOM     30  C   UNL     1      -0.959  12.324  21.992  0.00  0.00    +0.000 A 
ATOM     31  N   UNL     1      -0.949  11.219  21.196  0.00  0.00    +0.000 N 
ATOM     32  C   UNL     1      -1.192  11.227  19.780  0.00  0.00    +0.000 C 
ENDBRANCH  26  27
ENDBRANCH  22  26
ENDBRANCH   4  22
TORSDOF 6
ENDMDL
MODEL 2
REMARK VINA RESULT:      -7.5      3.014      7.740
REMARK  Name = 
REMARK  9 active torsions:
REMARK  status: ('A' for Active; 'I' for Inactive)
REMARK    1  A    between atoms: C_1  and  C_2
REMARK    2  A    between atoms: C_4  and  C_5
REMARK    3  A    between atoms: C_5  and  N_6
REMARK    4  A    between atoms: C_5  and  C_7
REMARK    5  A    between atoms: C_7  and  C_8
REMARK    6  A    between atoms: N_12  and  C_13
REMARK    7  A    between atoms: C_15  and  N_16
REMARK    8  A    between atoms: C_23  and  C_24
REMARK    9  A    between atoms: C_24  and  C_25
REMARK                            x       y       z     vdW  Elec       q    Type
REMARK                         _______ _______ _______ _____ _____    ______ ____
ROOT
ATOM      1  C   UNL     1       1.743   3.686  20.605  0.00  0.00    +0.000 C 
ATOM      2  C   UNL     1       1.886   5.155  20.325  0.00  0.00    +0.000 A 
ATOM      3  C   UNL     1       2.525   5.628  19.172  0.00  0.00    +0.000 A 
ATOM      4  C   UNL     1       2.620   7.010  18.915  0.00  0.00    +0.000 A 
ATOM      5  C   UNL     1       2.067   7.921  19.826  0.00  0.00    +0.000 A 
ATOM      6  C   UNL     1       1.320   7.456  20.891  0.00  0.00    +0.000 A 
ATOM      7  C   UNL     1       1.293   6.082  21.187  0.00  0.00    +0.000 A 
ENDROOT
BRANCH   6   8
ATOM      8  N   UNL     1       0.341   8.359  21.413  0.00  0.00    +0.000 N 
ATOM      9  C   UNL     1      -0.708   8.771  20.487  0.00  0.00    +0.000 C 
ATOM     10  C   UNL     1      -0.280  10.137  20.067  0.00  0.00    +0.000 A 
ATOM     11  C   UNL     1       0.664  10.610  20.979  0.00  0.00    +0.000 A 
ATOM     12  C   UNL     1       1.440  11.726  20.750  0.00  0.00    +0.000 A 
ATOM     13  C   UNL     1       1.238  12.392  19.546  0.00  0.00    +0.000 A 
ATOM     14  C   UNL     1       0.251  11.952  18.637  0.00  0.00    +0.000 A 
ATOM     15  C   UNL     1      -0.559  10.830  18.900  0.00  0.00    +0.000 A 
ATOM     16  C   UNL     1       0.948   9.532  21.928  0.00  0.00    +0.000 C 
ATOM     17  O   UNL     1       1.723   9.628  22.863  0.00  0.00    +0.000 OA
BRANCH  15  18
ATOM     18  C   UNL     1      -1.593  10.341  17.912  0.00  0.00    +0.000 C 
ATOM     19  C   UNL     1      -2.190  11.478  17.101  0.00  0.00    +0.000 C 
ATOM     20  F   UNL     1      -1.071   9.423  17.054  0.00  0.00    +0.000 F 
ATOM     21  F   UNL     1      -2.645   9.707  18.518  0.00  0.00    +0.000 F 
ENDBRANCH  15  18
ENDBRANCH   6   8
BRANCH   4  22
ATOM     22  C   UNL     1       3.062   7.518  17.555  0.00  0.00    +0.000 C 
BRANCH  22  23
ATOM     23  N   UNL     1       2.375   8.807  17.317  0.00  0.00    +0.000 NA
ATOM     24  H   UNL     1       1.686   8.966  18.055  0.00  0.00    +0.000 HD
ATOM     25  H   UNL     1       1.804   8.705  16.476  0.00  0.00    +0.000 HD
ENDBRANCH  22  23
BRANCH  22  26
ATOM     26  C   UNL     1       4.588   7.698  17.417  0.00  0.00    +0.000 C 
BRANCH  26  27
ATOM     27  C   UNL     1       5.223   6.618  16.606  0.00  0.00    +0.000 A 
ATOM     28  N   UNL     1       5.291   6.597  15.288  0.00  0.00    +0.000 NA
ATOM     29  N   UNL     1       6.016   5.495  14.909  0.00  0.00    +0.000 NA
ATOM     30  C   UNL     1       6.373   4.867  16.000  0.00  0.00    +0.000 A 
ATOM     31  N   UNL     1       5.884   5.518  17.093  0.00  0.00    +0.000 N 
ATOM     32  C   UNL     1       6.069   5.090  18.452  0.00  0.00    +0.000 C 
ENDBRANCH  26  27
ENDBRANCH  22  26
ENDBRANCH   4  22
TORSDOF 6
ENDMDL
MODEL 3
REMARK VINA RESULT:      -7.3      4.015      8.627
REMARK  Name = 
REMARK  9 active torsions:
REMARK  status: ('A' for Active; 'I' for Inactive)
REMARK    1  A    between atoms: C_1  and  C_2
REMARK    2  A    between atoms: C_4  and  C_5
REMARK    3  A    between atoms: C_5  and  N_6
REMARK    4  A    between atoms: C_5  and  C_7
REMARK    5  A    between atoms: C_7  and  C_8
REMARK    6  A    between atoms: N_12  and  C_13
REMARK    7  A    between atoms: C_15  and  N_16
REMARK    8  A    between atoms: C_23  and  C_24
REMARK    9  A    between atoms: C_24  and  C_25
REMARK                            x       y       z     vdW  Elec       q    Type
REMARK                         _______ _______ _______ _____ _____    ______ ____
ROOT
ATOM      1  C   UNL     1      -0.113   9.365  23.151  0.00  0.00    +0.000 C 
ATOM      2  C   UNL     1       0.568   9.172  21.827  0.00  0.00    +0.000 A 
ATOM      3  C   UNL     1       1.131   7.944  21.458  0.00  0.00    +0.000 A 
ATOM      4  C   UNL     1       1.738   7.776  20.198  0.00  0.00    +0.000 A 
ATOM      5  C   UNL     1       1.777   8.855  19.303  0.00  0.00    +0.000 A 
ATOM      6  C   UNL     1       1.106  10.022  19.608  0.00  0.00    +0.000 A 
ATOM      7  C   UNL     1       0.569  10.213  20.894  0.00  0.00    +0.000 A 
ENDROOT
BRANCH   6   8
ATOM      8  N   UNL     1       0.693  10.818  18.493  0.00  0.00    +0.000 N 
ATOM      9  C   UNL     1       1.497  12.003  18.218  0.00  0.00    +0.000 C 
ATOM     10  C   UNL     1       0.677  13.115  18.782  0.00  0.00    +0.000 A 
ATOM     11  C   UNL     1      -0.630  12.660  18.961  0.00  0.00    +0.000 A 
ATOM     12  C   UNL     1      -1.575  13.350  19.690  0.00  0.00    +0.000 A 
ATOM     13  C   UNL     1      -1.173  14.558  20.249  0.00  0.00    +0.000 A 
ATOM     14  C   UNL     1       0.132  15.053  20.034  0.00  0.00    +0.000 A 
ATOM     15  C   UNL     1       1.076  14.353  19.258  0.00  0.00    +0.000 A 
ATOM     16  C   UNL     1      -0.656  11.234  18.632  0.00  0.00    +0.000 C 
ATOM     17  O   UNL     1      -1.656  10.538  18.671  0.00  0.00    +0.000 OA
BRANCH  15  18
ATOM     18  C   UNL     1       2.483  14.868  19.054  0.00  0.00    +0.000 C 
ATOM     19  C   UNL     1       2.636  16.308  19.512  0.00  0.00    +0.000 C 
ATOM     20  F   UNL     1       3.396  14.104  19.713  0.00  0.00    +0.000 F 
ATOM     21  F   UNL     1       2.872  14.838  17.741  0.00  0.00    +0.000 F 
ENDBRANCH  15  18
ENDBRANCH   6   8
BRANCH   4  22
ATOM     22  C   UNL     1       2.102   6.394  19.689  0.00  0.00    +0.000 C 
BRANCH  22  23
ATOM     23  N   UNL     1       3.568   6.243  19.822  0.00  0.00    +0.000 NA
ATOM     24  H   UNL     1       4.006   6.358  18.905  0.00  0.00    +0.000 HD
ATOM     25  H   UNL     1       3.760   5.268  20.057  0.00  0.00    +0.000 HD
ENDBRANCH  22  23
BRANCH  22  26
ATOM     26  C   UNL     1       1.382   5.244  20.423  0.00  0.00    +0.000 C 
BRANCH  26  27
ATOM     27  C   UNL     1       1.512   3.938  19.712  0.00  0.00    +0.000 A 
ATOM     28  N   UNL     1       1.168   3.720  18.456  0.00  0.00    +0.000 NA
ATOM     29  N   UNL     1       1.508   2.430  18.131  0.00  0.00    +0.000 NA
ATOM     30  C   UNL     1       2.051   1.891  19.192  0.00  0.00    +0.000 A 
ATOM     31  N   UNL     1       2.060   2.787  20.219  0.00  0.00    +0.000 N 
ATOM     32  C   UNL     1       2.564   2.518  21.537  0.00  0.00    +0.000 C 
ENDBRANCH  26  27
ENDBRANCH  22  26
ENDBRANCH   4  22
TORSDOF 6
ENDMDL
MODEL 4
REMARK VINA RESULT:      -7.3      4.038      8.864
REMARK  Name = 
REMARK  9 active torsions:
REMARK  status: ('A' for Active; 'I' for Inactive)
REMARK    1  A    between atoms: C_1  and  C_2
REMARK    2  A    between atoms: C_4  and  C_5
REMARK    3  A    between atoms: C_5  and  N_6
REMARK    4  A    between atoms: C_5  and  C_7
REMARK    5  A    between atoms: C_7  and  C_8
REMARK    6  A    between atoms: N_12  and  C_13
REMARK    7  A    between atoms: C_15  and  N_16
REMARK    8  A    between atoms: C_23  and  C_24
REMARK    9  A    between atoms: C_24  and  C_25
REMARK                            x       y       z     vdW  Elec       q    Type
REMARK                         _______ _______ _______ _____ _____    ______ ____
ROOT
ATOM      1  C   UNL     1       0.039   9.373  23.080  0.00  0.00    +0.000 C 
ATOM      2  C   UNL     1       0.544   9.390  21.666  0.00  0.00    +0.000 A 
ATOM      3  C   UNL     1       1.207   8.291  21.105  0.00  0.00    +0.000 A 
ATOM      4  C   UNL     1       1.644   8.318  19.766  0.00  0.00    +0.000 A 
ATOM      5  C   UNL     1       1.411   9.460  18.987  0.00  0.00    +0.000 A 
ATOM      6  C   UNL     1       0.641  10.488  19.493  0.00  0.00    +0.000 A 
ATOM      7  C   UNL     1       0.273  10.493  20.850  0.00  0.00    +0.000 A 
ENDROOT
BRANCH   6   8
ATOM      8  N   UNL     1      -0.030  11.304  18.527  0.00  0.00    +0.000 N 
ATOM      9  C   UNL     1       0.243  12.734  18.596  0.00  0.00    +0.000 C 
ATOM     10  C   UNL     1      -0.963  13.283  19.282  0.00  0.00    +0.000 A 
ATOM     11  C   UNL     1      -1.985  12.336  19.214  0.00  0.00    +0.000 A 
ATOM     12  C   UNL     1      -3.142  12.421  19.959  0.00  0.00    +0.000 A 
ATOM     13  C   UNL     1      -3.266  13.523  20.797  0.00  0.00    +0.000 A 
ATOM     14  C   UNL     1      -2.261  14.514  20.837  0.00  0.00    +0.000 A 
ATOM     15  C   UNL     1      -1.100  14.431  20.045  0.00  0.00    +0.000 A 
ATOM     16  C   UNL     1      -1.435  11.128  18.596  0.00  0.00    +0.000 C 
ATOM     17  O   UNL     1      -2.077  10.116  18.378  0.00  0.00    +0.000 OA
BRANCH  15  18
ATOM     18  C   UNL     1      -0.009  15.476  20.112  0.00  0.00    +0.000 C 
ATOM     19  C   UNL     1       0.166  16.203  18.790  0.00  0.00    +0.000 C 
ATOM     20  F   UNL     1      -0.256  16.396  21.084  0.00  0.00    +0.000 F 
ATOM     21  F   UNL     1       1.214  14.946  20.425  0.00  0.00    +0.000 F 
ENDBRANCH  15  18
ENDBRANCH   6   8
BRANCH   4  22
ATOM     22  C   UNL     1       2.114   7.051  19.077  0.00  0.00    +0.000 C 
BRANCH  22  23
ATOM     23  N   UNL     1       3.214   7.423  18.161  0.00  0.00    +0.000 NA
ATOM     24  H   UNL     1       4.111   7.245  18.618  0.00  0.00    +0.000 HD
ATOM     25  H   UNL     1       3.200   8.439  18.053  0.00  0.00    +0.000 HD
ENDBRANCH  22  23
BRANCH  22  26
ATOM     26  C   UNL     1       2.582   5.945  20.046  0.00  0.00    +0.000 C 
BRANCH  26  27
ATOM     27  C   UNL     1       3.672   5.102  19.472  0.00  0.00    +0.000 A 
ATOM     28  N   UNL     1       4.964   5.303  19.654  0.00  0.00    +0.000 NA
ATOM     29  N   UNL     1       5.651   4.282  19.046  0.00  0.00    +0.000 NA
ATOM     30  C   UNL     1       4.767   3.483  18.506  0.00  0.00    +0.000 A 
ATOM     31  N   UNL     1       3.510   3.961  18.727  0.00  0.00    +0.000 N 
ATOM     32  C   UNL     1       2.303   3.342  18.254  0.00  0.00    +0.000 C 
ENDBRANCH  26  27
ENDBRANCH  22  26
ENDBRANCH   4  22
TORSDOF 6
ENDMDL
MODEL 5
REMARK VINA RESULT:      -7.3      4.072      8.724
REMARK  Name = 
REMARK  9 active torsions:
REMARK  status: ('A' for Active; 'I' for Inactive)
REMARK    1  A    between atoms: C_1  and  C_2
REMARK    2  A    between atoms: C_4  and  C_5
REMARK    3  A    between atoms: C_5  and  N_6
REMARK    4  A    between atoms: C_5  and  C_7
REMARK    5  A    between atoms: C_7  and  C_8
REMARK    6  A    between atoms: N_12  and  C_13
REMARK    7  A    between atoms: C_15  and  N_16
REMARK    8  A    between atoms: C_23  and  C_24
REMARK    9  A    between atoms: C_24  and  C_25
REMARK                            x       y       z     vdW  Elec       q    Type
REMARK                         _______ _______ _______ _____ _____    ______ ____
ROOT
ATOM      1  C   UNL     1       0.278   9.319  22.913  0.00  0.00    +0.000 C 
ATOM      2  C   UNL     1       0.732   9.379  21.483  0.00  0.00    +0.000 A 
ATOM      3  C   UNL     1       1.384   8.302  20.869  0.00  0.00    +0.000 A 
ATOM      4  C   UNL     1       1.773   8.370  19.516  0.00  0.00    +0.000 A 
ATOM      5  C   UNL     1       1.504   9.530  18.779  0.00  0.00    +0.000 A 
ATOM      6  C   UNL     1       0.744  10.537  19.339  0.00  0.00    +0.000 A 
ATOM      7  C   UNL     1       0.424  10.501  20.708  0.00  0.00    +0.000 A 
ENDROOT
BRANCH   6   8
ATOM      8  N   UNL     1       0.032  11.373  18.421  0.00  0.00    +0.000 N 
ATOM      9  C   UNL     1       0.296  12.803  18.521  0.00  0.00    +0.000 C 
ATOM     10  C   UNL     1      -0.892  13.321  19.263  0.00  0.00    +0.000 A 
ATOM     11  C   UNL     1      -1.907  12.366  19.203  0.00  0.00    +0.000 A 
ATOM     12  C   UNL     1      -3.038  12.419  19.989  0.00  0.00    +0.000 A 
ATOM     13  C   UNL     1      -3.142  13.496  20.862  0.00  0.00    +0.000 A 
ATOM     14  C   UNL     1      -2.146  14.495  20.896  0.00  0.00    +0.000 A 
ATOM     15  C   UNL     1      -1.012  14.446  20.063  0.00  0.00    +0.000 A 
ATOM     16  C   UNL     1      -1.368  11.181  18.533  0.00  0.00    +0.000 C 
ATOM     17  O   UNL     1      -2.008  10.169  18.308  0.00  0.00    +0.000 OA
BRANCH  15  18
ATOM     18  C   UNL     1       0.071  15.499  20.122  0.00  0.00    +0.000 C 
ATOM     19  C   UNL     1      -0.354  16.710  20.934  0.00  0.00    +0.000 C 
ATOM     20  F   UNL     1       1.223  15.004  20.652  0.00  0.00    +0.000 F 
ATOM     21  F   UNL     1       0.420  15.969  18.884  0.00  0.00    +0.000 F 
ENDBRANCH  15  18
ENDBRANCH   6   8
BRANCH   4  22
ATOM     22  C   UNL     1       2.228   7.126  18.777  0.00  0.00    +0.000 C 
BRANCH  22  23
ATOM     23  N   UNL     1       3.250   7.542  17.791  0.00  0.00    +0.000 NA
ATOM     24  H   UNL     1       3.745   6.716  17.447  0.00  0.00    +0.000 HD
ATOM     25  H   UNL     1       3.973   8.061  18.293  0.00  0.00    +0.000 HD
ENDBRANCH  22  23
BRANCH  22  26
ATOM     26  C   UNL     1       2.795   6.021  19.693  0.00  0.00    +0.000 C 
BRANCH  26  27
ATOM     27  C   UNL     1       2.097   4.714  19.517  0.00  0.00    +0.000 A 
ATOM     28  N   UNL     1       1.125   4.261  20.288  0.00  0.00    +0.000 NA
ATOM     29  N   UNL     1       0.679   3.072  19.769  0.00  0.00    +0.000 NA
ATOM     30  C   UNL     1       1.386   2.823  18.697  0.00  0.00    +0.000 A 
ATOM     31  N   UNL     1       2.304   3.812  18.504  0.00  0.00    +0.000 N 
ATOM     32  C   UNL     1       3.259   3.845  17.432  0.00  0.00    +0.000 C 
ENDBRANCH  26  27
ENDBRANCH  22  26
ENDBRANCH   4  22
TORSDOF 6
ENDMDL
MODEL 6
REMARK VINA RESULT:      -7.3      6.043     10.393
REMARK  Name = 
REMARK  9 active torsions:
REMARK  status: ('A' for Active; 'I' for Inactive)
REMARK    1  A    between atoms: C_1  and  C_2
REMARK    2  A    between atoms: C_4  and  C_5
REMARK    3  A    between atoms: C_5  and  N_6
REMARK    4  A    between atoms: C_5  and  C_7
REMARK    5  A    between atoms: C_7  and  C_8
REMARK    6  A    between atoms: N_12  and  C_13
REMARK    7  A    between atoms: C_15  and  N_16
REMARK    8  A    between atoms: C_23  and  C_24
REMARK    9  A    between atoms: C_24  and  C_25
REMARK                            x       y       z     vdW  Elec       q    Type
REMARK                         _______ _______ _______ _____ _____    ______ ____
ROOT
ATOM      1  C   UNL     1      -2.962  10.250  16.616  0.00  0.00    +0.000 C 
ATOM      2  C   UNL     1      -3.237  11.079  17.837  0.00  0.00    +0.000 A 
ATOM      3  C   UNL     1      -2.205  11.685  18.566  0.00  0.00    +0.000 A 
ATOM      4  C   UNL     1      -2.489  12.484  19.691  0.00  0.00    +0.000 A 
ATOM      5  C   UNL     1      -3.821  12.673  20.084  0.00  0.00    +0.000 A 
ATOM      6  C   UNL     1      -4.844  12.192  19.292  0.00  0.00    +0.000 A 
ATOM      7  C   UNL     1      -4.558  11.332  18.216  0.00  0.00    +0.000 A 
ENDROOT
BRANCH   6   8
ATOM      8  N   UNL     1      -6.096  12.876  19.398  0.00  0.00    +0.000 N 
ATOM      9  C   UNL     1      -6.069  14.156  20.095  0.00  0.00    +0.000 C 
ATOM     10  C   UNL     1      -6.612  13.824  21.445  0.00  0.00    +0.000 A 
ATOM     11  C   UNL     1      -7.272  12.598  21.372  0.00  0.00    +0.000 A 
ATOM     12  C   UNL     1      -7.668  11.888  22.486  0.00  0.00    +0.000 A 
ATOM     13  C   UNL     1      -7.388  12.458  23.722  0.00  0.00    +0.000 A 
ATOM     14  C   UNL     1      -6.766  13.722  23.808  0.00  0.00    +0.000 A 
ATOM     15  C   UNL     1      -6.398  14.452  22.662  0.00  0.00    +0.000 A 
ATOM     16  C   UNL     1      -7.073  12.063  20.024  0.00  0.00    +0.000 C 
ATOM     17  O   UNL     1      -7.537  11.007  19.630  0.00  0.00    +0.000 OA
BRANCH  15  18
ATOM     18  C   UNL     1      -5.702  15.791  22.754  0.00  0.00    +0.000 C 
ATOM     19  C   UNL     1      -5.721  16.347  24.167  0.00  0.00    +0.000 C 
ATOM     20  F   UNL     1      -4.410  15.714  22.336  0.00  0.00    +0.000 F 
ATOM     21  F   UNL     1      -6.280  16.744  21.958  0.00  0.00    +0.000 F 
ENDBRANCH  15  18
ENDBRANCH   6   8
BRANCH   4  22
ATOM     22  C   UNL     1      -1.415  13.354  20.316  0.00  0.00    +0.000 C 
BRANCH  22  23
ATOM     23  N   UNL     1      -1.923  13.819  21.625  0.00  0.00    +0.000 NA
ATOM     24  H   UNL     1      -1.224  13.632  22.347  0.00  0.00    +0.000 HD
ATOM     25  H   UNL     1      -2.704  13.215  21.888  0.00  0.00    +0.000 HD
ENDBRANCH  22  23
BRANCH  22  26
ATOM     26  C   UNL     1      -0.057  12.643  20.498  0.00  0.00    +0.000 C 
BRANCH  26  27
ATOM     27  C   UNL     1      -0.116  11.537  21.497  0.00  0.00    +0.000 A 
ATOM     28  N   UNL     1      -0.425  11.680  22.772  0.00  0.00    +0.000 NA
ATOM     29  N   UNL     1      -0.458  10.437  23.353  0.00  0.00    +0.000 NA
ATOM     30  C   UNL     1      -0.168   9.564  22.423  0.00  0.00    +0.000 A 
ATOM     31  N   UNL     1       0.074  10.202  21.244  0.00  0.00    +0.000 N 
ATOM     32  C   UNL     1       0.442   9.548  20.018  0.00  0.00    +0.000 C 
ENDBRANCH  26  27
ENDBRANCH  22  26
ENDBRANCH   4  22
TORSDOF 6
ENDMDL
MODEL 7
REMARK VINA RESULT:      -7.2      6.997      9.962
REMARK  Name = 
REMARK  9 active torsions:
REMARK  status: ('A' for Active; 'I' for Inactive)
REMARK    1  A    between atoms: C_1  and  C_2
REMARK    2  A    between atoms: C_4  and  C_5
REMARK    3  A    between atoms: C_5  and  N_6
REMARK    4  A    between atoms: C_5  and  C_7
REMARK    5  A    between atoms: C_7  and  C_8
REMARK    6  A    between atoms: N_12  and  C_13
REMARK    7  A    between atoms: C_15  and  N_16
REMARK    8  A    between atoms: C_23  and  C_24
REMARK    9  A    between atoms: C_24  and  C_25
REMARK                            x       y       z     vdW  Elec       q    Type
REMARK                         _______ _______ _______ _____ _____    ______ ____
ROOT
ATOM      1  C   UNL     1      -2.703   9.541  16.326  0.00  0.00    +0.000 C 
ATOM      2  C   UNL     1      -2.907  10.528  17.440  0.00  0.00    +0.000 A 
ATOM      3  C   UNL     1      -1.828  11.147  18.084  0.00  0.00    +0.000 A 
ATOM      4  C   UNL     1      -2.044  12.093  19.106  0.00  0.00    +0.000 A 
ATOM      5  C   UNL     1      -3.355  12.416  19.481  0.00  0.00    +0.000 A 
ATOM      6  C   UNL     1      -4.418  11.911  18.759  0.00  0.00    +0.000 A 
ATOM      7  C   UNL     1      -4.204  10.911  17.794  0.00  0.00    +0.000 A 
ENDROOT
BRANCH   6   8
ATOM      8  N   UNL     1      -5.621  12.685  18.789  0.00  0.00    +0.000 N 
ATOM      9  C   UNL     1      -5.639  13.806  19.721  0.00  0.00    +0.000 C 
ATOM     10  C   UNL     1      -6.440  13.287  20.868  0.00  0.00    +0.000 A 
ATOM     11  C   UNL     1      -7.153  12.165  20.445  0.00  0.00    +0.000 A 
ATOM     12  C   UNL     1      -7.791  11.305  21.313  0.00  0.00    +0.000 A 
ATOM     13  C   UNL     1      -7.706  11.608  22.667  0.00  0.00    +0.000 A 
ATOM     14  C   UNL     1      -7.029  12.767  23.105  0.00  0.00    +0.000 A 
ATOM     15  C   UNL     1      -6.411  13.656  22.204  0.00  0.00    +0.000 A 
ATOM     16  C   UNL     1      -6.747  11.871  19.069  0.00  0.00    +0.000 C 
ATOM     17  O   UNL     1      -7.198  10.957  18.402  0.00  0.00    +0.000 OA
BRANCH  15  18
ATOM     18  C   UNL     1      -5.659  14.879  22.675  0.00  0.00    +0.000 C 
ATOM     19  C   UNL     1      -4.157  14.720  22.521  0.00  0.00    +0.000 C 
ATOM     20  F   UNL     1      -6.048  15.996  22.001  0.00  0.00    +0.000 F 
ATOM     21  F   UNL     1      -5.883  15.162  23.996  0.00  0.00    +0.000 F 
ENDBRANCH  15  18
ENDBRANCH   6   8
BRANCH   4  22
ATOM     22  C   UNL     1      -0.907  12.959  19.615  0.00  0.00    +0.000 C 
BRANCH  22  23
ATOM     23  N   UNL     1      -1.037  14.287  18.974  0.00  0.00    +0.000 NA
ATOM     24  H   UNL     1      -0.857  14.199  17.972  0.00  0.00    +0.000 HD
ATOM     25  H   UNL     1      -0.264  14.869  19.304  0.00  0.00    +0.000 HD
ENDBRANCH  22  23
BRANCH  22  26
ATOM     26  C   UNL     1      -0.871  13.113  21.150  0.00  0.00    +0.000 C 
BRANCH  26  27
ATOM     27  C   UNL     1      -0.560  11.832  21.849  0.00  0.00    +0.000 A 
ATOM     28  N   UNL     1       0.512  11.092  21.638  0.00  0.00    +0.000 NA
ATOM     29  N   UNL     1       0.493  10.040  22.519  0.00  0.00    +0.000 NA
ATOM     30  C   UNL     1      -0.588  10.159  23.247  0.00  0.00    +0.000 A 
ATOM     31  N   UNL     1      -1.295  11.255  22.854  0.00  0.00    +0.000 N 
ATOM     32  C   UNL     1      -2.546  11.671  23.426  0.00  0.00    +0.000 C 
ENDBRANCH  26  27
ENDBRANCH  22  26
ENDBRANCH   4  22
TORSDOF 6
ENDMDL
MODEL 8
REMARK VINA RESULT:      -7.1      4.058      8.913
REMARK  Name = 
REMARK  9 active torsions:
REMARK  status: ('A' for Active; 'I' for Inactive)
REMARK    1  A    between atoms: C_1  and  C_2
REMARK    2  A    between atoms: C_4  and  C_5
REMARK    3  A    between atoms: C_5  and  N_6
REMARK    4  A    between atoms: C_5  and  C_7
REMARK    5  A    between atoms: C_7  and  C_8
REMARK    6  A    between atoms: N_12  and  C_13
REMARK    7  A    between atoms: C_15  and  N_16
REMARK    8  A    between atoms: C_23  and  C_24
REMARK    9  A    between atoms: C_24  and  C_25
REMARK                            x       y       z     vdW  Elec       q    Type
REMARK                         _______ _______ _______ _____ _____    ______ ____
ROOT
ATOM      1  C   UNL     1       0.049   9.110  22.793  0.00  0.00    +0.000 C 
ATOM      2  C   UNL     1       0.570   9.273  21.394  0.00  0.00    +0.000 A 
ATOM      3  C   UNL     1       1.276   8.252  20.745  0.00  0.00    +0.000 A 
ATOM      4  C   UNL     1       1.728   8.415  19.421  0.00  0.00    +0.000 A 
ATOM      5  C   UNL     1       1.468   9.616  18.747  0.00  0.00    +0.000 A 
ATOM      6  C   UNL     1       0.659  10.569  19.333  0.00  0.00    +0.000 A 
ATOM      7  C   UNL     1       0.274  10.437  20.679  0.00  0.00    +0.000 A 
ENDROOT
BRANCH   6   8
ATOM      8  N   UNL     1      -0.026  11.449  18.436  0.00  0.00    +0.000 N 
ATOM      9  C   UNL     1       0.218  12.874  18.625  0.00  0.00    +0.000 C 
ATOM     10  C   UNL     1      -1.001  13.339  19.349  0.00  0.00    +0.000 A 
ATOM     11  C   UNL     1      -2.003  12.381  19.198  0.00  0.00    +0.000 A 
ATOM     12  C   UNL     1      -3.164  12.381  19.942  0.00  0.00    +0.000 A 
ATOM     13  C   UNL     1      -3.312  13.406  20.869  0.00  0.00    +0.000 A 
ATOM     14  C   UNL     1      -2.327  14.410  20.996  0.00  0.00    +0.000 A 
ATOM     15  C   UNL     1      -1.162  14.416  20.205  0.00  0.00    +0.000 A 
ATOM     16  C   UNL     1      -1.427  11.240  18.484  0.00  0.00    +0.000 C 
ATOM     17  O   UNL     1      -2.048  10.237  18.179  0.00  0.00    +0.000 OA
BRANCH  15  18
ATOM     18  C   UNL     1      -0.093  15.474  20.363  0.00  0.00    +0.000 C 
ATOM     19  C   UNL     1       0.023  16.356  19.133  0.00  0.00    +0.000 C 
ATOM     20  F   UNL     1      -0.329  16.266  21.444  0.00  0.00    +0.000 F 
ATOM     21  F   UNL     1       1.150  14.942  20.574  0.00  0.00    +0.000 F 
ENDBRANCH  15  18
ENDBRANCH   6   8
BRANCH   4  22
ATOM     22  C   UNL     1       2.247   7.232  18.626  0.00  0.00    +0.000 C 
BRANCH  22  23
ATOM     23  N   UNL     1       3.384   7.708  17.809  0.00  0.00    +0.000 NA
ATOM     24  H   UNL     1       4.241   7.674  18.367  0.00  0.00    +0.000 HD
ATOM     25  H   UNL     1       3.250   8.706  17.640  0.00  0.00    +0.000 HD
ENDBRANCH  22  23
BRANCH  22  26
ATOM     26  C   UNL     1       2.684   6.033  19.495  0.00  0.00    +0.000 C 
BRANCH  26  27
ATOM     27  C   UNL     1       2.644   4.740  18.752  0.00  0.00    +0.000 A 
ATOM     28  N   UNL     1       1.553   4.172  18.272  0.00  0.00    +0.000 NA
ATOM     29  N   UNL     1       1.919   3.043  17.584  0.00  0.00    +0.000 NA
ATOM     30  C   UNL     1       3.222   2.945  17.658  0.00  0.00    +0.000 A 
ATOM     31  N   UNL     1       3.725   3.973  18.396  0.00  0.00    +0.000 N 
ATOM     32  C   UNL     1       5.118   4.162  18.697  0.00  0.00    +0.000 C 
ENDBRANCH  26  27
ENDBRANCH  22  26
ENDBRANCH   4  22
TORSDOF 6
ENDMDL
MODEL 9
REMARK VINA RESULT:      -7.1      4.109      8.468
REMARK  Name = 
REMARK  9 active torsions:
REMARK  status: ('A' for Active; 'I' for Inactive)
REMARK    1  A    between atoms: C_1  and  C_2
REMARK    2  A    between atoms: C_4  and  C_5
REMARK    3  A    between atoms: C_5  and  N_6
REMARK    4  A    between atoms: C_5  and  C_7
REMARK    5  A    between atoms: C_7  and  C_8
REMARK    6  A    between atoms: N_12  and  C_13
REMARK    7  A    between atoms: C_15  and  N_16
REMARK    8  A    between atoms: C_23  and  C_24
REMARK    9  A    between atoms: C_24  and  C_25
REMARK                            x       y       z     vdW  Elec       q    Type
REMARK                         _______ _______ _______ _____ _____    ______ ____
ROOT
ATOM      1  C   UNL     1      -0.012   9.458  23.213  0.00  0.00    +0.000 C 
ATOM      2  C   UNL     1       0.657   9.189  21.896  0.00  0.00    +0.000 A 
ATOM      3  C   UNL     1       1.107   7.911  21.544  0.00  0.00    +0.000 A 
ATOM      4  C   UNL     1       1.704   7.675  20.290  0.00  0.00    +0.000 A 
ATOM      5  C   UNL     1       1.848   8.736  19.385  0.00  0.00    +0.000 A 
ATOM      6  C   UNL     1       1.286   9.963  19.673  0.00  0.00    +0.000 A 
ATOM      7  C   UNL     1       0.760  10.216  20.953  0.00  0.00    +0.000 A 
ENDROOT
BRANCH   6   8
ATOM      8  N   UNL     1       0.955  10.782  18.547  0.00  0.00    +0.000 N 
ATOM      9  C   UNL     1       1.750  11.992  18.380  0.00  0.00    +0.000 C 
ATOM     10  C   UNL     1       0.854  13.068  18.897  0.00  0.00    +0.000 A 
ATOM     11  C   UNL     1      -0.451  12.578  18.943  0.00  0.00    +0.000 A 
ATOM     12  C   UNL     1      -1.476  13.224  19.601  0.00  0.00    +0.000 A 
ATOM     13  C   UNL     1      -1.158  14.424  20.227  0.00  0.00    +0.000 A 
ATOM     14  C   UNL     1       0.148  14.955  20.145  0.00  0.00    +0.000 A 
ATOM     15  C   UNL     1       1.176  14.301  19.440  0.00  0.00    +0.000 A 
ATOM     16  C   UNL     1      -0.411  11.162  18.574  0.00  0.00    +0.000 C 
ATOM     17  O   UNL     1      -1.392  10.443  18.503  0.00  0.00    +0.000 OA
BRANCH  15  18
ATOM     18  C   UNL     1       2.582  14.854  19.379  0.00  0.00    +0.000 C 
ATOM     19  C   UNL     1       2.954  15.313  17.981  0.00  0.00    +0.000 C 
ATOM     20  F   UNL     1       2.747  15.897  20.237  0.00  0.00    +0.000 F 
ATOM     21  F   UNL     1       3.529  13.935  19.747  0.00  0.00    +0.000 F 
ENDBRANCH  15  18
ENDBRANCH   6   8
BRANCH   4  22
ATOM     22  C   UNL     1       1.944   6.260  19.797  0.00  0.00    +0.000 C 
BRANCH  22  23
ATOM     23  N   UNL     1       3.359   5.928  20.069  0.00  0.00    +0.000 NA
ATOM     24  H   UNL     1       3.436   4.936  20.307  0.00  0.00    +0.000 HD
ATOM     25  H   UNL     1       3.630   6.401  20.932  0.00  0.00    +0.000 HD
ENDBRANCH  22  23
BRANCH  22  26
ATOM     26  C   UNL     1       1.019   5.205  20.441  0.00  0.00    +0.000 C 
BRANCH  26  27
ATOM     27  C   UNL     1       1.736   3.939  20.773  0.00  0.00    +0.000 A 
ATOM     28  N   UNL     1       2.263   3.650  21.948  0.00  0.00    +0.000 NA
ATOM     29  N   UNL     1       2.761   2.372  21.898  0.00  0.00    +0.000 NA
ATOM     30  C   UNL     1       2.528   1.910  20.696  0.00  0.00    +0.000 A 
ATOM     31  N   UNL     1       1.905   2.859  19.944  0.00  0.00    +0.000 N 
ATOM     32  C   UNL     1       1.522   2.694  18.569  0.00  0.00    +0.000 C 
ENDBRANCH  26  27
ENDBRANCH  22  26
ENDBRANCH   4  22
TORSDOF 6
ENDMDL
