MODEL 1
REMARK VINA RESULT:      -9.0      0.000      0.000
REMARK  Name = 
REMARK  4 active torsions:
REMARK  status: ('A' for Active; 'I' for Inactive)
REMARK    1  A    between atoms: C_2  and  C_23
REMARK    2  A    between atoms: N_3  and  C_4
REMARK    3  A    between atoms: C_8  and  N_9
REMARK    4  A    between atoms: C_10  and  C_12
REMARK                            x       y       z     vdW  Elec       q    Type
REMARK                         _______ _______ _______ _____ _____    ______ ____
ROOT
ATOM      1  C   UNL     1       4.102   3.905  17.249  0.00  0.00    +0.000 A 
ATOM      2  C   UNL     1       4.020   2.649  17.857  0.00  0.00    +0.000 A 
ATOM      3  C   UNL     1       3.307   2.454  19.029  0.00  0.00    +0.000 A 
ATOM      4  C   UNL     1       2.690   3.531  19.648  0.00  0.00    +0.000 A 
ATOM      5  C   UNL     1       2.796   4.827  19.134  0.00  0.00    +0.000 A 
ATOM      6  C   UNL     1       3.524   5.010  17.924  0.00  0.00    +0.000 A 
ENDROOT
BRANCH   1   9
ATOM      7  O   UNL     1       6.918   4.346  16.799  0.00  0.00    +0.000 OA
ATOM      8  C   UNL     1       6.135   4.307  15.851  0.00  0.00    +0.000 C 
ATOM      9  N   UNL     1       4.763   4.043  15.985  0.00  0.00    +0.000 N 
ATOM     10  H   UNL     1       4.254   3.830  15.136  0.00  0.00    +0.000 HD
BRANCH   8  11
ATOM     11  C   UNL     1       6.664   4.504  14.513  0.00  0.00    +0.000 A 
ATOM     12  C   UNL     1       6.279   3.863  13.344  0.00  0.00    +0.000 A 
ATOM     13  C   UNL     1       7.100   4.353  12.308  0.00  0.00    +0.000 A 
ATOM     14  C   UNL     1       7.943   5.263  12.902  0.00  0.00    +0.000 A 
ATOM     15  O   UNL     1       7.684   5.374  14.239  0.00  0.00    +0.000 OA
ENDBRANCH   8  11
ENDBRANCH   1   9
BRANCH   5  16
ATOM     16  N   UNL     1       2.201   5.934  19.814  0.00  0.00    +0.000 N 
ATOM     17  C   UNL     1       2.219   7.273  19.391  0.00  0.00    +0.000 C 
ATOM     18  O   UNL     1       2.833   7.693  18.414  0.00  0.00    +0.000 OA
ATOM     19  H   UNL     1       1.714   5.755  20.684  0.00  0.00    +0.000 HD
BRANCH  17  20
ATOM     20  C   UNL     1       1.454   8.205  20.197  0.00  0.00    +0.000 A 
ATOM     21  C   UNL     1       1.143   8.151  21.548  0.00  0.00    +0.000 A 
ATOM     22  C   UNL     1       0.387   9.306  21.856  0.00  0.00    +0.000 A 
ATOM     23  C   UNL     1      -0.229   9.832  23.009  0.00  0.00    +0.000 A 
ATOM     24  C   UNL     1      -0.911  11.054  22.913  0.00  0.00    +0.000 A 
ATOM     25  C   UNL     1      -0.966  11.753  21.705  0.00  0.00    +0.000 A 
ATOM     26  C   UNL     1      -0.346  11.249  20.555  0.00  0.00    +0.000 A 
ATOM     27 BR   UNL     1      -0.384  12.214  18.937  0.00  0.00    +0.000 Br
ATOM     28  C   UNL     1       0.304  10.021  20.664  0.00  0.00    +0.000 A 
ATOM     29  O   UNL     1       0.944   9.350  19.656  0.00  0.00    +0.000 OA
ENDBRANCH  17  20
ENDBRANCH   5  16
TORSDOF 4
ENDMDL
MODEL 2
REMARK VINA RESULT:      -8.6      1.533      1.991
REMARK  Name = 
REMARK  4 active torsions:
REMARK  status: ('A' for Active; 'I' for Inactive)
REMARK    1  A    between atoms: C_2  and  C_23
REMARK    2  A    between atoms: N_3  and  C_4
REMARK    3  A    between atoms: C_8  and  N_9
REMARK    4  A    between atoms: C_10  and  C_12
REMARK                            x       y       z     vdW  Elec       q    Type
REMARK                         _______ _______ _______ _____ _____    ______ ____
ROOT
ATOM      1  C   UNL     1       4.425   4.637  17.342  0.00  0.00    +0.000 A 
ATOM      2  C   UNL     1       4.656   3.722  18.372  0.00  0.00    +0.000 A 
ATOM      3  C   UNL     1       4.085   3.879  19.625  0.00  0.00    +0.000 A 
ATOM      4  C   UNL     1       3.296   4.989  19.889  0.00  0.00    +0.000 A 
ATOM      5  C   UNL     1       3.086   5.980  18.926  0.00  0.00    +0.000 A 
ATOM      6  C   UNL     1       3.672   5.801  17.641  0.00  0.00    +0.000 A 
ENDROOT
BRANCH   1   9
ATOM      7  O   UNL     1       6.935   5.571  16.267  0.00  0.00    +0.000 OA
ATOM      8  C   UNL     1       6.162   4.918  15.567  0.00  0.00    +0.000 C 
ATOM      9  N   UNL     1       4.952   4.384  16.033  0.00  0.00    +0.000 N 
ATOM     10  H   UNL     1       4.498   3.697  15.443  0.00  0.00    +0.000 HD
BRANCH   8  11
ATOM     11  C   UNL     1       6.541   4.649  14.191  0.00  0.00    +0.000 A 
ATOM     12  C   UNL     1       6.027   3.679  13.342  0.00  0.00    +0.000 A 
ATOM     13  C   UNL     1       6.731   3.773  12.124  0.00  0.00    +0.000 A 
ATOM     14  C   UNL     1       7.638   4.792  12.297  0.00  0.00    +0.000 A 
ATOM     15  O   UNL     1       7.529   5.342  13.544  0.00  0.00    +0.000 OA
ENDBRANCH   8  11
ENDBRANCH   1   9
BRANCH   5  16
ATOM     16  N   UNL     1       2.317   7.144  19.232  0.00  0.00    +0.000 N 
ATOM     17  C   UNL     1       2.180   8.284  18.423  0.00  0.00    +0.000 C 
ATOM     18  O   UNL     1       2.783   8.474  17.370  0.00  0.00    +0.000 OA
ATOM     19  H   UNL     1       1.814   7.168  20.111  0.00  0.00    +0.000 HD
BRANCH  17  20
ATOM     20  C   UNL     1       1.258   9.297  18.900  0.00  0.00    +0.000 A 
ATOM     21  C   UNL     1       0.605  10.295  18.192  0.00  0.00    +0.000 A 
ATOM     22  C   UNL     1      -0.194  11.014  19.112  0.00  0.00    +0.000 A 
ATOM     23  C   UNL     1      -1.065  12.120  19.045  0.00  0.00    +0.000 A 
ATOM     24  C   UNL     1      -1.700  12.552  20.218  0.00  0.00    +0.000 A 
ATOM     25  C   UNL     1      -1.493  11.892  21.432  0.00  0.00    +0.000 A 
ATOM     26  C   UNL     1      -0.641  10.784  21.510  0.00  0.00    +0.000 A 
ATOM     27 BR   UNL     1      -0.397   9.869  23.139  0.00  0.00    +0.000 Br
ATOM     28  C   UNL     1       0.000  10.385  20.339  0.00  0.00    +0.000 A 
ATOM     29  O   UNL     1       0.887   9.349  20.213  0.00  0.00    +0.000 OA
ENDBRANCH  17  20
ENDBRANCH   5  16
TORSDOF 4
ENDMDL
MODEL 3
REMARK VINA RESULT:      -8.6      1.842      2.197
REMARK  Name = 
REMARK  4 active torsions:
REMARK  status: ('A' for Active; 'I' for Inactive)
REMARK    1  A    between atoms: C_2  and  C_23
REMARK    2  A    between atoms: N_3  and  C_4
REMARK    3  A    between atoms: C_8  and  N_9
REMARK    4  A    between atoms: C_10  and  C_12
REMARK                            x       y       z     vdW  Elec       q    Type
REMARK                         _______ _______ _______ _____ _____    ______ ____
ROOT
ATOM      1  C   UNL     1       4.460   4.797  17.399  0.00  0.00    +0.000 A 
ATOM      2  C   UNL     1       4.803   4.043  18.524  0.00  0.00    +0.000 A 
ATOM      3  C   UNL     1       4.231   4.284  19.763  0.00  0.00    +0.000 A 
ATOM      4  C   UNL     1       3.325   5.324  19.913  0.00  0.00    +0.000 A 
ATOM      5  C   UNL     1       2.995   6.164  18.846  0.00  0.00    +0.000 A 
ATOM      6  C   UNL     1       3.584   5.898  17.577  0.00  0.00    +0.000 A 
ENDROOT
BRANCH   1   9
ATOM      7  O   UNL     1       6.682   6.049  16.048  0.00  0.00    +0.000 OA
ATOM      8  C   UNL     1       6.053   5.142  15.504  0.00  0.00    +0.000 C 
ATOM      9  N   UNL     1       4.999   4.450  16.117  0.00  0.00    +0.000 N 
ATOM     10  H   UNL     1       4.691   3.596  15.668  0.00  0.00    +0.000 HD
BRANCH   8  11
ATOM     11  C   UNL     1       6.450   4.737  14.167  0.00  0.00    +0.000 A 
ATOM     12  C   UNL     1       5.892   3.738  13.382  0.00  0.00    +0.000 A 
ATOM     13  C   UNL     1       6.633   3.685  12.183  0.00  0.00    +0.000 A 
ATOM     14  C   UNL     1       7.604   4.652  12.304  0.00  0.00    +0.000 A 
ATOM     15  O   UNL     1       7.500   5.307  13.499  0.00  0.00    +0.000 OA
ENDBRANCH   8  11
ENDBRANCH   1   9
BRANCH   5  16
ATOM     16  N   UNL     1       2.104   7.265  19.031  0.00  0.00    +0.000 N 
ATOM     17  C   UNL     1       2.036   8.420  18.234  0.00  0.00    +0.000 C 
ATOM     18  O   UNL     1       2.804   8.684  17.314  0.00  0.00    +0.000 OA
ATOM     19  H   UNL     1       1.449   7.225  19.803  0.00  0.00    +0.000 HD
BRANCH  17  20
ATOM     20  C   UNL     1       0.974   9.354  18.557  0.00  0.00    +0.000 A 
ATOM     21  C   UNL     1       0.840  10.189  19.657  0.00  0.00    +0.000 A 
ATOM     22  C   UNL     1      -0.364  10.912  19.496  0.00  0.00    +0.000 A 
ATOM     23  C   UNL     1      -1.067  11.881  20.240  0.00  0.00    +0.000 A 
ATOM     24  C   UNL     1      -2.273  12.382  19.728  0.00  0.00    +0.000 A 
ATOM     25  C   UNL     1      -2.766  11.948  18.495  0.00  0.00    +0.000 A 
ATOM     26  C   UNL     1      -2.071  10.996  17.740  0.00  0.00    +0.000 A 
ATOM     27 BR   UNL     1      -2.714  10.443  16.057  0.00  0.00    +0.000 Br
ATOM     28  C   UNL     1      -0.888  10.491  18.277  0.00  0.00    +0.000 A 
ATOM     29  O   UNL     1      -0.081   9.541  17.710  0.00  0.00    +0.000 OA
ENDBRANCH  17  20
ENDBRANCH   5  16
TORSDOF 4
ENDMDL
MODEL 4
REMARK VINA RESULT:      -8.5      4.250     10.201
REMARK  Name = 
REMARK  4 active torsions:
REMARK  status: ('A' for Active; 'I' for Inactive)
REMARK    1  A    between atoms: C_2  and  C_23
REMARK    2  A    between atoms: N_3  and  C_4
REMARK    3  A    between atoms: C_8  and  N_9
REMARK    4  A    between atoms: C_10  and  C_12
REMARK                            x       y       z     vdW  Elec       q    Type
REMARK                         _______ _______ _______ _____ _____    ______ ____
ROOT
ATOM      1  C   UNL     1      -1.283  11.627  18.805  0.00  0.00    +0.000 A 
ATOM      2  C   UNL     1      -0.600  12.808  19.110  0.00  0.00    +0.000 A 
ATOM      3  C   UNL     1       0.780  12.894  19.018  0.00  0.00    +0.000 A 
ATOM      4  C   UNL     1       1.518  11.776  18.655  0.00  0.00    +0.000 A 
ATOM      5  C   UNL     1       0.904  10.545  18.409  0.00  0.00    +0.000 A 
ATOM      6  C   UNL     1      -0.515  10.474  18.499  0.00  0.00    +0.000 A 
ENDROOT
BRANCH   1   9
ATOM      7  O   UNL     1      -3.034  11.323  16.531  0.00  0.00    +0.000 OA
ATOM      8  C   UNL     1      -3.498  11.508  17.655  0.00  0.00    +0.000 C 
ATOM      9  N   UNL     1      -2.716  11.611  18.815  0.00  0.00    +0.000 N 
ATOM     10  H   UNL     1      -3.202  11.554  19.701  0.00  0.00    +0.000 HD
BRANCH   8  11
ATOM     11  C   UNL     1      -4.942  11.585  17.798  0.00  0.00    +0.000 A 
ATOM     12  C   UNL     1      -5.793  12.565  17.306  0.00  0.00    +0.000 A 
ATOM     13  C   UNL     1      -7.098  12.237  17.728  0.00  0.00    +0.000 A 
ATOM     14  C   UNL     1      -6.971  11.077  18.457  0.00  0.00    +0.000 A 
ATOM     15  O   UNL     1      -5.669  10.663  18.500  0.00  0.00    +0.000 OA
ENDBRANCH   8  11
ENDBRANCH   1   9
BRANCH   5  16
ATOM     16  N   UNL     1       1.683   9.391  18.091  0.00  0.00    +0.000 N 
ATOM     17  C   UNL     1       1.941   8.304  18.943  0.00  0.00    +0.000 C 
ATOM     18  O   UNL     1       1.603   8.240  20.122  0.00  0.00    +0.000 OA
ATOM     19  H   UNL     1       2.094   9.331  17.167  0.00  0.00    +0.000 HD
BRANCH  17  20
ATOM     20  C   UNL     1       2.672   7.196  18.358  0.00  0.00    +0.000 A 
ATOM     21  C   UNL     1       3.839   7.211  17.608  0.00  0.00    +0.000 A 
ATOM     22  C   UNL     1       4.153   5.870  17.286  0.00  0.00    +0.000 A 
ATOM     23  C   UNL     1       5.167   5.216  16.559  0.00  0.00    +0.000 A 
ATOM     24  C   UNL     1       5.137   3.817  16.464  0.00  0.00    +0.000 A 
ATOM     25  C   UNL     1       4.134   3.076  17.092  0.00  0.00    +0.000 A 
ATOM     26  C   UNL     1       3.128   3.711  17.830  0.00  0.00    +0.000 A 
ATOM     27 BR   UNL     1       1.800   2.707  18.713  0.00  0.00    +0.000 Br
ATOM     28  C   UNL     1       3.160   5.103  17.891  0.00  0.00    +0.000 A 
ATOM     29  O   UNL     1       2.258   5.907  18.535  0.00  0.00    +0.000 OA
ENDBRANCH  17  20
ENDBRANCH   5  16
TORSDOF 4
ENDMDL
MODEL 5
REMARK VINA RESULT:      -8.4      1.183      1.261
REMARK  Name = 
REMARK  4 active torsions:
REMARK  status: ('A' for Active; 'I' for Inactive)
REMARK    1  A    between atoms: C_2  and  C_23
REMARK    2  A    between atoms: N_3  and  C_4
REMARK    3  A    between atoms: C_8  and  N_9
REMARK    4  A    between atoms: C_10  and  C_12
REMARK                            x       y       z     vdW  Elec       q    Type
REMARK                         _______ _______ _______ _____ _____    ______ ____
ROOT
ATOM      1  C   UNL     1       4.645   4.705  17.463  0.00  0.00    +0.000 A 
ATOM      2  C   UNL     1       4.868   3.667  18.371  0.00  0.00    +0.000 A 
ATOM      3  C   UNL     1       4.316   3.682  19.642  0.00  0.00    +0.000 A 
ATOM      4  C   UNL     1       3.554   4.768  20.050  0.00  0.00    +0.000 A 
ATOM      5  C   UNL     1       3.354   5.873  19.218  0.00  0.00    +0.000 A 
ATOM      6  C   UNL     1       3.920   5.839  17.912  0.00  0.00    +0.000 A 
ENDROOT
BRANCH   1   9
ATOM      7  O   UNL     1       7.388   4.995  16.614  0.00  0.00    +0.000 OA
ATOM      8  C   UNL     1       6.496   4.807  15.787  0.00  0.00    +0.000 C 
ATOM      9  N   UNL     1       5.151   4.603  16.126  0.00  0.00    +0.000 N 
ATOM     10  H   UNL     1       4.544   4.255  15.394  0.00  0.00    +0.000 HD
BRANCH   8  11
ATOM     11  C   UNL     1       6.863   4.753  14.383  0.00  0.00    +0.000 A 
ATOM     12  C   UNL     1       6.355   3.909  13.405  0.00  0.00    +0.000 A 
ATOM     13  C   UNL     1       7.041   4.197  12.207  0.00  0.00    +0.000 A 
ATOM     14  C   UNL     1       7.930   5.198  12.520  0.00  0.00    +0.000 A 
ATOM     15  O   UNL     1       7.828   5.554  13.835  0.00  0.00    +0.000 OA
ENDBRANCH   8  11
ENDBRANCH   1   9
BRANCH   5  16
ATOM     16  N   UNL     1       2.614   7.006  19.673  0.00  0.00    +0.000 N 
ATOM     17  C   UNL     1       1.502   6.981  20.531  0.00  0.00    +0.000 C 
ATOM     18  O   UNL     1       0.953   5.961  20.939  0.00  0.00    +0.000 OA
ATOM     19  H   UNL     1       2.906   7.925  19.361  0.00  0.00    +0.000 HD
BRANCH  17  20
ATOM     20  C   UNL     1       0.983   8.272  20.939  0.00  0.00    +0.000 A 
ATOM     21  C   UNL     1       0.223   8.603  22.052  0.00  0.00    +0.000 A 
ATOM     22  C   UNL     1      -0.016   9.996  22.003  0.00  0.00    +0.000 A 
ATOM     23  C   UNL     1      -0.710  10.930  22.797  0.00  0.00    +0.000 A 
ATOM     24  C   UNL     1      -0.716  12.278  22.407  0.00  0.00    +0.000 A 
ATOM     25  C   UNL     1      -0.033  12.697  21.263  0.00  0.00    +0.000 A 
ATOM     26  C   UNL     1       0.671  11.782  20.471  0.00  0.00    +0.000 A 
ATOM     27 BR   UNL     1       1.628  12.356  18.953  0.00  0.00    +0.000 Br
ATOM     28  C   UNL     1       0.644  10.444  20.862  0.00  0.00    +0.000 A 
ATOM     29  O   UNL     1       1.244   9.398  20.212  0.00  0.00    +0.000 OA
ENDBRANCH  17  20
ENDBRANCH   5  16
TORSDOF 4
ENDMDL
MODEL 6
REMARK VINA RESULT:      -8.4      4.250     10.157
REMARK  Name = 
REMARK  4 active torsions:
REMARK  status: ('A' for Active; 'I' for Inactive)
REMARK    1  A    between atoms: C_2  and  C_23
REMARK    2  A    between atoms: N_3  and  C_4
REMARK    3  A    between atoms: C_8  and  N_9
REMARK    4  A    between atoms: C_10  and  C_12
REMARK                            x       y       z     vdW  Elec       q    Type
REMARK                         _______ _______ _______ _____ _____    ______ ____
ROOT
ATOM      1  C   UNL     1      -1.374  11.663  18.828  0.00  0.00    +0.000 A 
ATOM      2  C   UNL     1      -0.603  12.825  18.912  0.00  0.00    +0.000 A 
ATOM      3  C   UNL     1       0.777  12.791  18.796  0.00  0.00    +0.000 A 
ATOM      4  C   UNL     1       1.427  11.576  18.634  0.00  0.00    +0.000 A 
ATOM      5  C   UNL     1       0.722  10.369  18.617  0.00  0.00    +0.000 A 
ATOM      6  C   UNL     1      -0.697  10.420  18.728  0.00  0.00    +0.000 A 
ENDROOT
BRANCH   1   9
ATOM      7  O   UNL     1      -3.184  11.147  16.641  0.00  0.00    +0.000 OA
ATOM      8  C   UNL     1      -3.614  11.534  17.727  0.00  0.00    +0.000 C 
ATOM      9  N   UNL     1      -2.804  11.753  18.851  0.00  0.00    +0.000 N 
ATOM     10  H   UNL     1      -3.277  11.868  19.739  0.00  0.00    +0.000 HD
BRANCH   8  11
ATOM     11  C   UNL     1      -5.045  11.738  17.867  0.00  0.00    +0.000 A 
ATOM     12  C   UNL     1      -5.846  12.637  17.177  0.00  0.00    +0.000 A 
ATOM     13  C   UNL     1      -7.157  12.500  17.679  0.00  0.00    +0.000 A 
ATOM     14  C   UNL     1      -7.083  11.529  18.649  0.00  0.00    +0.000 A 
ATOM     15  O   UNL     1      -5.809  11.048  18.769  0.00  0.00    +0.000 OA
ENDBRANCH   8  11
ENDBRANCH   1   9
BRANCH   5  16
ATOM     16  N   UNL     1       1.410   9.123  18.506  0.00  0.00    +0.000 N 
ATOM     17  C   UNL     1       1.728   8.254  19.563  0.00  0.00    +0.000 C 
ATOM     18  O   UNL     1       1.536   8.494  20.752  0.00  0.00    +0.000 OA
ATOM     19  H   UNL     1       1.702   8.819  17.585  0.00  0.00    +0.000 HD
BRANCH  17  20
ATOM     20  C   UNL     1       2.338   6.992  19.188  0.00  0.00    +0.000 A 
ATOM     21  C   UNL     1       3.151   6.696  18.103  0.00  0.00    +0.000 A 
ATOM     22  C   UNL     1       3.497   5.328  18.194  0.00  0.00    +0.000 A 
ATOM     23  C   UNL     1       4.261   4.426  17.426  0.00  0.00    +0.000 A 
ATOM     24  C   UNL     1       4.378   3.098  17.862  0.00  0.00    +0.000 A 
ATOM     25  C   UNL     1       3.766   2.673  19.044  0.00  0.00    +0.000 A 
ATOM     26  C   UNL     1       3.016   3.562  19.823  0.00  0.00    +0.000 A 
ATOM     27 BR   UNL     1       2.229   2.998  21.439  0.00  0.00    +0.000 Br
ATOM     28  C   UNL     1       2.891   4.870  19.361  0.00  0.00    +0.000 A 
ATOM     29  O   UNL     1       2.182   5.877  19.960  0.00  0.00    +0.000 OA
ENDBRANCH  17  20
ENDBRANCH   5  16
TORSDOF 4
ENDMDL
MODEL 7
REMARK VINA RESULT:      -8.4      1.196      1.426
REMARK  Name = 
REMARK  4 active torsions:
REMARK  status: ('A' for Active; 'I' for Inactive)
REMARK    1  A    between atoms: C_2  and  C_23
REMARK    2  A    between atoms: N_3  and  C_4
REMARK    3  A    between atoms: C_8  and  N_9
REMARK    4  A    between atoms: C_10  and  C_12
REMARK                            x       y       z     vdW  Elec       q    Type
REMARK                         _______ _______ _______ _____ _____    ______ ____
ROOT
ATOM      1  C   UNL     1       3.862   4.098  18.712  0.00  0.00    +0.000 A 
ATOM      2  C   UNL     1       3.581   2.929  19.424  0.00  0.00    +0.000 A 
ATOM      3  C   UNL     1       2.709   2.927  20.501  0.00  0.00    +0.000 A 
ATOM      4  C   UNL     1       2.125   4.114  20.919  0.00  0.00    +0.000 A 
ATOM      5  C   UNL     1       2.421   5.330  20.297  0.00  0.00    +0.000 A 
ATOM      6  C   UNL     1       3.312   5.316  19.187  0.00  0.00    +0.000 A 
ENDROOT
BRANCH   1   9
ATOM      7  O   UNL     1       4.410   6.240  16.857  0.00  0.00    +0.000 OA
ATOM      8  C   UNL     1       4.866   5.114  16.661  0.00  0.00    +0.000 C 
ATOM      9  N   UNL     1       4.690   4.038  17.543  0.00  0.00    +0.000 N 
ATOM     10  H   UNL     1       5.273   3.224  17.393  0.00  0.00    +0.000 HD
BRANCH   8  11
ATOM     11  C   UNL     1       5.668   4.895  15.469  0.00  0.00    +0.000 A 
ATOM     12  C   UNL     1       5.440   3.983  14.448  0.00  0.00    +0.000 A 
ATOM     13  C   UNL     1       6.503   4.108  13.530  0.00  0.00    +0.000 A 
ATOM     14  C   UNL     1       7.322   5.087  14.043  0.00  0.00    +0.000 A 
ATOM     15  O   UNL     1       6.824   5.582  15.216  0.00  0.00    +0.000 OA
ENDBRANCH   8  11
ENDBRANCH   1   9
BRANCH   5  16
ATOM     16  N   UNL     1       1.855   6.551  20.775  0.00  0.00    +0.000 N 
ATOM     17  C   UNL     1       1.736   7.749  20.051  0.00  0.00    +0.000 C 
ATOM     18  O   UNL     1       2.191   7.938  18.925  0.00  0.00    +0.000 OA
ATOM     19  H   UNL     1       1.498   6.574  21.722  0.00  0.00    +0.000 HD
BRANCH  17  20
ATOM     20  C   UNL     1       1.028   8.827  20.715  0.00  0.00    +0.000 A 
ATOM     21  C   UNL     1       0.263   8.795  21.872  0.00  0.00    +0.000 A 
ATOM     22  C   UNL     1      -0.201  10.110  22.110  0.00  0.00    +0.000 A 
ATOM     23  C   UNL     1      -1.010  10.736  23.079  0.00  0.00    +0.000 A 
ATOM     24  C   UNL     1      -1.248  12.114  22.974  0.00  0.00    +0.000 A 
ATOM     25  C   UNL     1      -0.682  12.863  21.940  0.00  0.00    +0.000 A 
ATOM     26  C   UNL     1       0.135  12.257  20.977  0.00  0.00    +0.000 A 
ATOM     27 BR   UNL     1       0.933  13.277  19.609  0.00  0.00    +0.000 Br
ATOM     28  C   UNL     1       0.339  10.883  21.085  0.00  0.00    +0.000 A 
ATOM     29  O   UNL     1       1.078  10.104  20.234  0.00  0.00    +0.000 OA
ENDBRANCH  17  20
ENDBRANCH   5  16
TORSDOF 4
ENDMDL
MODEL 8
REMARK VINA RESULT:      -8.1      5.896      8.064
REMARK  Name = 
REMARK  4 active torsions:
REMARK  status: ('A' for Active; 'I' for Inactive)
REMARK    1  A    between atoms: C_2  and  C_23
REMARK    2  A    between atoms: N_3  and  C_4
REMARK    3  A    between atoms: C_8  and  N_9
REMARK    4  A    between atoms: C_10  and  C_12
REMARK                            x       y       z     vdW  Elec       q    Type
REMARK                         _______ _______ _______ _____ _____    ______ ____
ROOT
ATOM      1  C   UNL     1       4.928   5.354  17.390  0.00  0.00    +0.000 A 
ATOM      2  C   UNL     1       5.399   4.659  16.273  0.00  0.00    +0.000 A 
ATOM      3  C   UNL     1       6.518   5.082  15.573  0.00  0.00    +0.000 A 
ATOM      4  C   UNL     1       7.172   6.244  15.953  0.00  0.00    +0.000 A 
ATOM      5  C   UNL     1       6.709   7.027  17.015  0.00  0.00    +0.000 A 
ATOM      6  C   UNL     1       5.564   6.576  17.731  0.00  0.00    +0.000 A 
ENDROOT
BRANCH   1   9
ATOM      7  O   UNL     1       5.075   3.622  19.693  0.00  0.00    +0.000 OA
ATOM      8  C   UNL     1       3.984   3.948  19.227  0.00  0.00    +0.000 C 
ATOM      9  N   UNL     1       3.831   4.828  18.146  0.00  0.00    +0.000 N 
ATOM     10  H   UNL     1       2.899   5.187  17.978  0.00  0.00    +0.000 HD
BRANCH   8  11
ATOM     11  C   UNL     1       2.785   3.424  19.857  0.00  0.00    +0.000 A 
ATOM     12  C   UNL     1       2.654   2.910  21.139  0.00  0.00    +0.000 A 
ATOM     13  C   UNL     1       1.316   2.490  21.287  0.00  0.00    +0.000 A 
ATOM     14  C   UNL     1       0.705   2.767  20.087  0.00  0.00    +0.000 A 
ATOM     15  O   UNL     1       1.581   3.344  19.210  0.00  0.00    +0.000 OA
ENDBRANCH   8  11
ENDBRANCH   1   9
BRANCH   5  16
ATOM     16  N   UNL     1       7.361   8.251  17.359  0.00  0.00    +0.000 N 
ATOM     17  C   UNL     1       8.333   8.420  18.358  0.00  0.00    +0.000 C 
ATOM     18  O   UNL     1       8.694   7.547  19.143  0.00  0.00    +0.000 OA
ATOM     19  H   UNL     1       7.113   9.086  16.842  0.00  0.00    +0.000 HD
BRANCH  17  20
ATOM     20  C   UNL     1       8.928   9.740  18.450  0.00  0.00    +0.000 A 
ATOM     21  C   UNL     1       9.514  10.512  17.457  0.00  0.00    +0.000 A 
ATOM     22  C   UNL     1       9.929  11.725  18.053  0.00  0.00    +0.000 A 
ATOM     23  C   UNL     1      10.582  12.895  17.615  0.00  0.00    +0.000 A 
ATOM     24  C   UNL     1      10.823  13.921  18.540  0.00  0.00    +0.000 A 
ATOM     25  C   UNL     1      10.410  13.803  19.869  0.00  0.00    +0.000 A 
ATOM     26  C   UNL     1       9.749  12.652  20.315  0.00  0.00    +0.000 A 
ATOM     27 BR   UNL     1       9.154  12.512  22.097  0.00  0.00    +0.000 Br
ATOM     28  C   UNL     1       9.541  11.633  19.388  0.00  0.00    +0.000 A 
ATOM     29  O   UNL     1       8.941  10.426  19.630  0.00  0.00    +0.000 OA
ENDBRANCH  17  20
ENDBRANCH   5  16
TORSDOF 4
ENDMDL
MODEL 9
REMARK VINA RESULT:      -8.1      4.170     10.075
REMARK  Name = 
REMARK  4 active torsions:
REMARK  status: ('A' for Active; 'I' for Inactive)
REMARK    1  A    between atoms: C_2  and  C_23
REMARK    2  A    between atoms: N_3  and  C_4
REMARK    3  A    between atoms: C_8  and  N_9
REMARK    4  A    between atoms: C_10  and  C_12
REMARK                            x       y       z     vdW  Elec       q    Type
REMARK                         _______ _______ _______ _____ _____    ______ ____
ROOT
ATOM      1  C   UNL     1      -1.395  11.914  18.920  0.00  0.00    +0.000 A 
ATOM      2  C   UNL     1      -0.611  13.069  18.873  0.00  0.00    +0.000 A 
ATOM      3  C   UNL     1       0.769  13.008  18.763  0.00  0.00    +0.000 A 
ATOM      4  C   UNL     1       1.404  11.775  18.739  0.00  0.00    +0.000 A 
ATOM      5  C   UNL     1       0.686  10.582  18.857  0.00  0.00    +0.000 A 
ATOM      6  C   UNL     1      -0.731  10.661  18.961  0.00  0.00    +0.000 A 
ENDROOT
BRANCH   1   9
ATOM      7  O   UNL     1      -3.209  11.214  16.788  0.00  0.00    +0.000 OA
ATOM      8  C   UNL     1      -3.635  11.707  17.832  0.00  0.00    +0.000 C 
ATOM      9  N   UNL     1      -2.824  12.023  18.932  0.00  0.00    +0.000 N 
ATOM     10  H   UNL     1      -3.296  12.226  19.804  0.00  0.00    +0.000 HD
BRANCH   8  11
ATOM     11  C   UNL     1      -5.064  11.940  17.949  0.00  0.00    +0.000 A 
ATOM     12  C   UNL     1      -5.916  11.503  18.955  0.00  0.00    +0.000 A 
ATOM     13  C   UNL     1      -7.215  11.937  18.620  0.00  0.00    +0.000 A 
ATOM     14  C   UNL     1      -7.086  12.610  17.428  0.00  0.00    +0.000 A 
ATOM     15  O   UNL     1      -5.784  12.630  17.012  0.00  0.00    +0.000 OA
ENDBRANCH   8  11
ENDBRANCH   1   9
BRANCH   5  16
ATOM     16  N   UNL     1       1.360   9.323  18.887  0.00  0.00    +0.000 N 
ATOM     17  C   UNL     1       1.522   8.495  20.010  0.00  0.00    +0.000 C 
ATOM     18  O   UNL     1       1.180   8.787  21.153  0.00  0.00    +0.000 OA
ATOM     19  H   UNL     1       1.765   8.977  18.025  0.00  0.00    +0.000 HD
BRANCH  17  20
ATOM     20  C   UNL     1       2.153   7.211  19.770  0.00  0.00    +0.000 A 
ATOM     21  C   UNL     1       1.988   6.010  20.444  0.00  0.00    +0.000 A 
ATOM     22  C   UNL     1       2.817   5.053  19.814  0.00  0.00    +0.000 A 
ATOM     23  C   UNL     1       3.115   3.690  20.011  0.00  0.00    +0.000 A 
ATOM     24  C   UNL     1       4.021   3.064  19.141  0.00  0.00    +0.000 A 
ATOM     25  C   UNL     1       4.605   3.767  18.085  0.00  0.00    +0.000 A 
ATOM     26  C   UNL     1       4.307   5.118  17.870  0.00  0.00    +0.000 A 
ATOM     27 BR   UNL     1       5.063   6.053  16.419  0.00  0.00    +0.000 Br
ATOM     28  C   UNL     1       3.425   5.729  18.759  0.00  0.00    +0.000 A 
ATOM     29  O   UNL     1       3.029   7.039  18.737  0.00  0.00    +0.000 OA
ENDBRANCH  17  20
ENDBRANCH   5  16
TORSDOF 4
ENDMDL
