MODEL 1
REMARK VINA RESULT:      -9.0      0.000      0.000
REMARK  Name = 
REMARK  8 active torsions:
REMARK  status: ('A' for Active; 'I' for Inactive)
REMARK    1  A    between atoms: C_1  and  C_2
REMARK    2  A    between atoms: C_2  and  N_3
REMARK    3  A    between atoms: C_2  and  C_14
REMARK    4  A    between atoms: C_4  and  C_6
REMARK    5  A    between atoms: C_6  and  O_7
REMARK    6  A    between atoms: O_7  and  C_8
REMARK    7  A    between atoms: N_22  and  C_23
REMARK    8  A    between atoms: C_23  and  C_24
REMARK                            x       y       z     vdW  Elec       q    Type
REMARK                         _______ _______ _______ _____ _____    ______ ____
ROOT
ATOM      1  C   UNL     1       5.024   5.448  18.549  0.00  0.00    +0.000 A 
ATOM      2  N   UNL     1       5.366   4.402  19.291  0.00  0.00    +0.000 NA
ATOM      3  C   UNL     1       4.343   3.539  19.000  0.00  0.00    +0.000 A 
ATOM      4  C   UNL     1       4.345   2.142  18.934  0.00  0.00    +0.000 A 
ATOM      5  C   UNL     1       3.202   1.512  18.429  0.00  0.00    +0.000 A 
ATOM      6  C   UNL     1       2.059   2.248  18.094  0.00  0.00    +0.000 A 
ATOM      7  C   UNL     1       2.024   3.646  18.198  0.00  0.00    +0.000 A 
ATOM      8  C   UNL     1       3.214   4.252  18.594  0.00  0.00    +0.000 A 
ATOM      9  N   UNL     1       3.629   5.580  18.702  0.00  0.00    +0.000 N 
ENDROOT
BRANCH   1  11
ATOM     10  C   UNL     1       4.936   5.473  16.029  0.00  0.00    +0.000 C 
ATOM     11  C   UNL     1       5.800   5.753  17.273  0.00  0.00    +0.000 C 
BRANCH  11  12
ATOM     12  N   UNL     1       6.424   7.057  17.324  0.00  0.00    +0.000 N 
ATOM     13  C   UNL     1       7.588   7.360  18.002  0.00  0.00    +0.000 C 
ATOM     14  O   UNL     1       8.274   6.564  18.633  0.00  0.00    +0.000 OA
ATOM     15  H   UNL     1       5.883   7.830  16.958  0.00  0.00    +0.000 HD
BRANCH  13  16
ATOM     16  C   UNL     1       7.987   8.816  17.896  0.00  0.00    +0.000 C 
BRANCH  16  17
ATOM     17  O   UNL     1       8.750   9.160  19.042  0.00  0.00    +0.000 OA
BRANCH  17  18
ATOM     18  C   UNL     1       9.243  10.435  19.052  0.00  0.00    +0.000 A 
ATOM     19  C   UNL     1       9.126  11.355  18.010  0.00  0.00    +0.000 A 
ATOM     20  C   UNL     1       9.647  12.643  18.158  0.00  0.00    +0.000 A 
ATOM     21  C   UNL     1      10.293  13.008  19.333  0.00  0.00    +0.000 A 
ATOM     22  C   UNL     1      10.424  12.088  20.368  0.00  0.00    +0.000 A 
ATOM     23  C   UNL     1       9.901  10.804  20.227  0.00  0.00    +0.000 A 
ENDBRANCH  17  18
ENDBRANCH  16  17
ENDBRANCH  13  16
ENDBRANCH  11  12
ENDBRANCH   1  11
BRANCH   9  24
ATOM     24  C   UNL     1       3.064   6.418  19.772  0.00  0.00    +0.000 C 
BRANCH  24  25
ATOM     25  C   UNL     1       2.375   7.684  19.327  0.00  0.00    +0.000 A 
ATOM     26  C   UNL     1       2.384   8.093  17.984  0.00  0.00    +0.000 A 
ATOM     27  C   UNL     1       1.586   9.152  17.542  0.00  0.00    +0.000 A 
ATOM     28  C   UNL     1       0.771   9.833  18.446  0.00  0.00    +0.000 A 
ATOM     29  C   UNL     1       0.772   9.465  19.787  0.00  0.00    +0.000 A 
ATOM     30  C   UNL     1       1.566   8.403  20.212  0.00  0.00    +0.000 A 
ATOM     31  F   UNL     1       1.497   8.021  21.495  0.00  0.00    +0.000 F 
ENDBRANCH  24  25
ENDBRANCH   9  24
TORSDOF 7
ENDMDL
MODEL 2
REMARK VINA RESULT:      -8.7      0.618      1.059
REMARK  Name = 
REMARK  8 active torsions:
REMARK  status: ('A' for Active; 'I' for Inactive)
REMARK    1  A    between atoms: C_1  and  C_2
REMARK    2  A    between atoms: C_2  and  N_3
REMARK    3  A    between atoms: C_2  and  C_14
REMARK    4  A    between atoms: C_4  and  C_6
REMARK    5  A    between atoms: C_6  and  O_7
REMARK    6  A    between atoms: O_7  and  C_8
REMARK    7  A    between atoms: N_22  and  C_23
REMARK    8  A    between atoms: C_23  and  C_24
REMARK                            x       y       z     vdW  Elec       q    Type
REMARK                         _______ _______ _______ _____ _____    ______ ____
ROOT
ATOM      1  C   UNL     1       4.752   5.610  18.917  0.00  0.00    +0.000 A 
ATOM      2  N   UNL     1       5.016   4.526  19.635  0.00  0.00    +0.000 NA
ATOM      3  C   UNL     1       4.023   3.686  19.202  0.00  0.00    +0.000 A 
ATOM      4  C   UNL     1       4.027   2.295  19.065  0.00  0.00    +0.000 A 
ATOM      5  C   UNL     1       2.936   1.701  18.420  0.00  0.00    +0.000 A 
ATOM      6  C   UNL     1       1.834   2.462  18.012  0.00  0.00    +0.000 A 
ATOM      7  C   UNL     1       1.794   3.853  18.183  0.00  0.00    +0.000 A 
ATOM      8  C   UNL     1       2.942   4.428  18.723  0.00  0.00    +0.000 A 
ATOM      9  N   UNL     1       3.350   5.746  18.938  0.00  0.00    +0.000 N 
ENDROOT
BRANCH   1  11
ATOM     10  C   UNL     1       4.924   5.729  16.404  0.00  0.00    +0.000 C 
ATOM     11  C   UNL     1       5.651   5.972  17.739  0.00  0.00    +0.000 C 
BRANCH  11  12
ATOM     12  N   UNL     1       6.247   7.280  17.902  0.00  0.00    +0.000 N 
ATOM     13  C   UNL     1       7.411   7.708  17.297  0.00  0.00    +0.000 C 
ATOM     14  O   UNL     1       8.091   7.055  16.514  0.00  0.00    +0.000 OA
ATOM     15  H   UNL     1       5.857   7.865  18.630  0.00  0.00    +0.000 HD
BRANCH  13  16
ATOM     16  C   UNL     1       7.804   9.120  17.676  0.00  0.00    +0.000 C 
BRANCH  16  17
ATOM     17  O   UNL     1       8.648   9.063  18.816  0.00  0.00    +0.000 OA
BRANCH  17  18
ATOM     18  C   UNL     1       9.343  10.209  19.084  0.00  0.00    +0.000 A 
ATOM     19  C   UNL     1       9.754  10.628  20.349  0.00  0.00    +0.000 A 
ATOM     20  C   UNL     1      10.491  11.808  20.486  0.00  0.00    +0.000 A 
ATOM     21  C   UNL     1      10.804  12.573  19.369  0.00  0.00    +0.000 A 
ATOM     22  C   UNL     1      10.382  12.165  18.107  0.00  0.00    +0.000 A 
ATOM     23  C   UNL     1       9.653  10.986  17.966  0.00  0.00    +0.000 A 
ENDBRANCH  17  18
ENDBRANCH  16  17
ENDBRANCH  13  16
ENDBRANCH  11  12
ENDBRANCH   1  11
BRANCH   9  24
ATOM     24  C   UNL     1       2.685   6.535  19.990  0.00  0.00    +0.000 C 
BRANCH  24  25
ATOM     25  C   UNL     1       2.114   7.863  19.559  0.00  0.00    +0.000 A 
ATOM     26  C   UNL     1       2.376   8.399  18.289  0.00  0.00    +0.000 A 
ATOM     27  C   UNL     1       1.693   9.525  17.820  0.00  0.00    +0.000 A 
ATOM     28  C   UNL     1       0.741  10.147  18.628  0.00  0.00    +0.000 A 
ATOM     29  C   UNL     1       0.490   9.652  19.903  0.00  0.00    +0.000 A 
ATOM     30  C   UNL     1       1.173   8.523  20.353  0.00  0.00    +0.000 A 
ATOM     31  F   UNL     1       0.864   8.023  21.558  0.00  0.00    +0.000 F 
ENDBRANCH  24  25
ENDBRANCH   9  24
TORSDOF 7
ENDMDL
MODEL 3
REMARK VINA RESULT:      -8.6      3.300      6.010
REMARK  Name = 
REMARK  8 active torsions:
REMARK  status: ('A' for Active; 'I' for Inactive)
REMARK    1  A    between atoms: C_1  and  C_2
REMARK    2  A    between atoms: C_2  and  N_3
REMARK    3  A    between atoms: C_2  and  C_14
REMARK    4  A    between atoms: C_4  and  C_6
REMARK    5  A    between atoms: C_6  and  O_7
REMARK    6  A    between atoms: O_7  and  C_8
REMARK    7  A    between atoms: N_22  and  C_23
REMARK    8  A    between atoms: C_23  and  C_24
REMARK                            x       y       z     vdW  Elec       q    Type
REMARK                         _______ _______ _______ _____ _____    ______ ____
ROOT
ATOM      1  C   UNL     1       4.917   5.491  19.116  0.00  0.00    +0.000 A 
ATOM      2  N   UNL     1       5.180   4.429  19.868  0.00  0.00    +0.000 NA
ATOM      3  C   UNL     1       4.298   3.521  19.343  0.00  0.00    +0.000 A 
ATOM      4  C   UNL     1       4.412   2.133  19.221  0.00  0.00    +0.000 A 
ATOM      5  C   UNL     1       3.440   1.462  18.472  0.00  0.00    +0.000 A 
ATOM      6  C   UNL     1       2.336   2.143  17.943  0.00  0.00    +0.000 A 
ATOM      7  C   UNL     1       2.182   3.529  18.095  0.00  0.00    +0.000 A 
ATOM      8  C   UNL     1       3.224   4.184  18.746  0.00  0.00    +0.000 A 
ATOM      9  N   UNL     1       3.514   5.528  18.989  0.00  0.00    +0.000 N 
ENDROOT
BRANCH   1  11
ATOM     10  C   UNL     1       7.356   5.677  18.501  0.00  0.00    +0.000 C 
ATOM     11  C   UNL     1       5.907   5.911  18.035  0.00  0.00    +0.000 C 
BRANCH  11  12
ATOM     12  N   UNL     1       5.563   5.351  16.746  0.00  0.00    +0.000 N 
ATOM     13  C   UNL     1       6.387   5.328  15.639  0.00  0.00    +0.000 C 
ATOM     14  O   UNL     1       7.536   5.752  15.595  0.00  0.00    +0.000 OA
ATOM     15  H   UNL     1       4.593   5.094  16.611  0.00  0.00    +0.000 HD
BRANCH  13  16
ATOM     16  C   UNL     1       5.745   4.699  14.422  0.00  0.00    +0.000 C 
BRANCH  16  17
ATOM     17  O   UNL     1       6.697   4.676  13.369  0.00  0.00    +0.000 OA
BRANCH  17  18
ATOM     18  C   UNL     1       6.583   3.625  12.502  0.00  0.00    +0.000 A 
ATOM     19  C   UNL     1       7.648   2.963  11.891  0.00  0.00    +0.000 A 
ATOM     20  C   UNL     1       7.399   1.876  11.048  0.00  0.00    +0.000 A 
ATOM     21  C   UNL     1       6.095   1.462  10.803  0.00  0.00    +0.000 A 
ATOM     22  C   UNL     1       5.031   2.131  11.400  0.00  0.00    +0.000 A 
ATOM     23  C   UNL     1       5.275   3.211  12.247  0.00  0.00    +0.000 A 
ENDBRANCH  17  18
ENDBRANCH  16  17
ENDBRANCH  13  16
ENDBRANCH  11  12
ENDBRANCH   1  11
BRANCH   9  24
ATOM     24  C   UNL     1       2.690   6.271  19.958  0.00  0.00    +0.000 C 
BRANCH  24  25
ATOM     25  C   UNL     1       2.216   7.633  19.515  0.00  0.00    +0.000 A 
ATOM     26  C   UNL     1       2.351   8.062  18.186  0.00  0.00    +0.000 A 
ATOM     27  C   UNL     1       1.738   9.235  17.735  0.00  0.00    +0.000 A 
ATOM     28  C   UNL     1       0.989  10.011  18.619  0.00  0.00    +0.000 A 
ATOM     29  C   UNL     1       0.869   9.621  19.948  0.00  0.00    +0.000 A 
ATOM     30  C   UNL     1       1.478   8.445  20.381  0.00  0.00    +0.000 A 
ATOM     31  F   UNL     1       1.291   8.053  21.648  0.00  0.00    +0.000 F 
ENDBRANCH  24  25
ENDBRANCH   9  24
TORSDOF 7
ENDMDL
MODEL 4
REMARK VINA RESULT:      -8.5      4.168      7.541
REMARK  Name = 
REMARK  8 active torsions:
REMARK  status: ('A' for Active; 'I' for Inactive)
REMARK    1  A    between atoms: C_1  and  C_2
REMARK    2  A    between atoms: C_2  and  N_3
REMARK    3  A    between atoms: C_2  and  C_14
REMARK    4  A    between atoms: C_4  and  C_6
REMARK    5  A    between atoms: C_6  and  O_7
REMARK    6  A    between atoms: O_7  and  C_8
REMARK    7  A    between atoms: N_22  and  C_23
REMARK    8  A    between atoms: C_23  and  C_24
REMARK                            x       y       z     vdW  Elec       q    Type
REMARK                         _______ _______ _______ _____ _____    ______ ____
ROOT
ATOM      1  C   UNL     1       3.035   5.457  17.844  0.00  0.00    +0.000 A 
ATOM      2  N   UNL     1       1.763   5.105  17.983  0.00  0.00    +0.000 NA
ATOM      3  C   UNL     1       1.843   4.294  19.085  0.00  0.00    +0.000 A 
ATOM      4  C   UNL     1       0.907   4.070  20.098  0.00  0.00    +0.000 A 
ATOM      5  C   UNL     1       1.317   3.331  21.214  0.00  0.00    +0.000 A 
ATOM      6  C   UNL     1       2.592   2.754  21.270  0.00  0.00    +0.000 A 
ATOM      7  C   UNL     1       3.529   2.931  20.242  0.00  0.00    +0.000 A 
ATOM      8  C   UNL     1       3.130   3.765  19.200  0.00  0.00    +0.000 A 
ATOM      9  N   UNL     1       3.781   4.285  18.080  0.00  0.00    +0.000 N 
ENDROOT
BRANCH   1  11
ATOM     10  C   UNL     1       4.923   7.127  17.781  0.00  0.00    +0.000 C 
ATOM     11  C   UNL     1       3.472   6.867  18.226  0.00  0.00    +0.000 C 
BRANCH  11  12
ATOM     12  N   UNL     1       2.502   7.858  17.816  0.00  0.00    +0.000 N 
ATOM     13  C   UNL     1       1.713   8.604  18.669  0.00  0.00    +0.000 C 
ATOM     14  O   UNL     1       1.740   8.555  19.893  0.00  0.00    +0.000 OA
ATOM     15  H   UNL     1       2.285   7.895  16.828  0.00  0.00    +0.000 HD
BRANCH  13  16
ATOM     16  C   UNL     1       0.771   9.546  17.951  0.00  0.00    +0.000 C 
BRANCH  16  17
ATOM     17  O   UNL     1      -0.196  10.014  18.879  0.00  0.00    +0.000 OA
BRANCH  17  18
ATOM     18  C   UNL     1      -1.391  10.392  18.335  0.00  0.00    +0.000 A 
ATOM     19  C   UNL     1      -2.262  11.338  18.876  0.00  0.00    +0.000 A 
ATOM     20  C   UNL     1      -3.443  11.661  18.203  0.00  0.00    +0.000 A 
ATOM     21  C   UNL     1      -3.761  11.035  17.003  0.00  0.00    +0.000 A 
ATOM     22  C   UNL     1      -2.902  10.080  16.470  0.00  0.00    +0.000 A 
ATOM     23  C   UNL     1      -1.719   9.759  17.135  0.00  0.00    +0.000 A 
ENDBRANCH  17  18
ENDBRANCH  16  17
ENDBRANCH  13  16
ENDBRANCH  11  12
ENDBRANCH   1  11
BRANCH   9  24
ATOM     24  C   UNL     1       4.128   3.378  16.973  0.00  0.00    +0.000 C 
BRANCH  24  25
ATOM     25  C   UNL     1       5.292   3.800  16.111  0.00  0.00    +0.000 A 
ATOM     26  C   UNL     1       5.177   3.896  14.715  0.00  0.00    +0.000 A 
ATOM     27  C   UNL     1       6.188   4.473  13.941  0.00  0.00    +0.000 A 
ATOM     28  C   UNL     1       7.345   4.953  14.555  0.00  0.00    +0.000 A 
ATOM     29  C   UNL     1       7.493   4.838  15.932  0.00  0.00    +0.000 A 
ATOM     30  C   UNL     1       6.474   4.268  16.692  0.00  0.00    +0.000 A 
ATOM     31  F   UNL     1       6.609   4.233  18.025  0.00  0.00    +0.000 F 
ENDBRANCH  24  25
ENDBRANCH   9  24
TORSDOF 7
ENDMDL
MODEL 5
REMARK VINA RESULT:      -8.2      4.150      6.568
REMARK  Name = 
REMARK  8 active torsions:
REMARK  status: ('A' for Active; 'I' for Inactive)
REMARK    1  A    between atoms: C_1  and  C_2
REMARK    2  A    between atoms: C_2  and  N_3
REMARK    3  A    between atoms: C_2  and  C_14
REMARK    4  A    between atoms: C_4  and  C_6
REMARK    5  A    between atoms: C_6  and  O_7
REMARK    6  A    between atoms: O_7  and  C_8
REMARK    7  A    between atoms: N_22  and  C_23
REMARK    8  A    between atoms: C_23  and  C_24
REMARK                            x       y       z     vdW  Elec       q    Type
REMARK                         _______ _______ _______ _____ _____    ______ ____
ROOT
ATOM      1  C   UNL     1       4.860   4.964  18.380  0.00  0.00    +0.000 A 
ATOM      2  N   UNL     1       6.135   4.594  18.373  0.00  0.00    +0.000 NA
ATOM      3  C   UNL     1       6.355   4.465  17.027  0.00  0.00    +0.000 A 
ATOM      4  C   UNL     1       7.522   4.683  16.289  0.00  0.00    +0.000 A 
ATOM      5  C   UNL     1       7.425   4.659  14.893  0.00  0.00    +0.000 A 
ATOM      6  C   UNL     1       6.220   4.332  14.258  0.00  0.00    +0.000 A 
ATOM      7  C   UNL     1       5.051   4.066  14.984  0.00  0.00    +0.000 A 
ATOM      8  C   UNL     1       5.152   4.210  16.365  0.00  0.00    +0.000 A 
ATOM      9  N   UNL     1       4.228   4.160  17.410  0.00  0.00    +0.000 N 
ENDROOT
BRANCH   1  11
ATOM     10  C   UNL     1       4.338   7.226  17.395  0.00  0.00    +0.000 C 
ATOM     11  C   UNL     1       4.498   6.412  18.692  0.00  0.00    +0.000 C 
BRANCH  11  12
ATOM     12  N   UNL     1       3.398   6.498  19.628  0.00  0.00    +0.000 N 
ATOM     13  C   UNL     1       2.338   7.377  19.536  0.00  0.00    +0.000 C 
ATOM     14  O   UNL     1       2.160   8.190  18.636  0.00  0.00    +0.000 OA
ATOM     15  H   UNL     1       3.497   5.976  20.490  0.00  0.00    +0.000 HD
BRANCH  13  16
ATOM     16  C   UNL     1       1.351   7.253  20.676  0.00  0.00    +0.000 C 
BRANCH  16  17
ATOM     17  O   UNL     1       1.669   8.229  21.658  0.00  0.00    +0.000 OA
BRANCH  17  18
ATOM     18  C   UNL     1       0.777   9.259  21.766  0.00  0.00    +0.000 A 
ATOM     19  C   UNL     1       0.488  10.186  20.764  0.00  0.00    +0.000 A 
ATOM     20  C   UNL     1      -0.473  11.176  20.989  0.00  0.00    +0.000 A 
ATOM     21  C   UNL     1      -1.132  11.250  22.210  0.00  0.00    +0.000 A 
ATOM     22  C   UNL     1      -0.835  10.335  23.216  0.00  0.00    +0.000 A 
ATOM     23  C   UNL     1       0.118   9.342  22.994  0.00  0.00    +0.000 A 
ENDBRANCH  17  18
ENDBRANCH  16  17
ENDBRANCH  13  16
ENDBRANCH  11  12
ENDBRANCH   1  11
BRANCH   9  24
ATOM     24  C   UNL     1       3.636   2.862  17.776  0.00  0.00    +0.000 C 
BRANCH  24  25
ATOM     25  C   UNL     1       2.802   2.847  19.033  0.00  0.00    +0.000 A 
ATOM     26  C   UNL     1       3.315   2.374  20.251  0.00  0.00    +0.000 A 
ATOM     27  C   UNL     1       2.615   2.541  21.449  0.00  0.00    +0.000 A 
ATOM     28  C   UNL     1       1.372   3.176  21.445  0.00  0.00    +0.000 A 
ATOM     29  C   UNL     1       0.831   3.622  20.245  0.00  0.00    +0.000 A 
ATOM     30  C   UNL     1       1.544   3.456  19.060  0.00  0.00    +0.000 A 
ATOM     31  F   UNL     1       1.034   3.958  17.926  0.00  0.00    +0.000 F 
ENDBRANCH  24  25
ENDBRANCH   9  24
TORSDOF 7
ENDMDL
MODEL 6
REMARK VINA RESULT:      -8.1      4.266      7.428
REMARK  Name = 
REMARK  8 active torsions:
REMARK  status: ('A' for Active; 'I' for Inactive)
REMARK    1  A    between atoms: C_1  and  C_2
REMARK    2  A    between atoms: C_2  and  N_3
REMARK    3  A    between atoms: C_2  and  C_14
REMARK    4  A    between atoms: C_4  and  C_6
REMARK    5  A    between atoms: C_6  and  O_7
REMARK    6  A    between atoms: O_7  and  C_8
REMARK    7  A    between atoms: N_22  and  C_23
REMARK    8  A    between atoms: C_23  and  C_24
REMARK                            x       y       z     vdW  Elec       q    Type
REMARK                         _______ _______ _______ _____ _____    ______ ____
ROOT
ATOM      1  C   UNL     1       3.045   5.263  18.029  0.00  0.00    +0.000 A 
ATOM      2  N   UNL     1       1.781   4.866  18.115  0.00  0.00    +0.000 NA
ATOM      3  C   UNL     1       1.839   4.076  19.234  0.00  0.00    +0.000 A 
ATOM      4  C   UNL     1       0.865   3.833  20.206  0.00  0.00    +0.000 A 
ATOM      5  C   UNL     1       1.249   3.128  21.352  0.00  0.00    +0.000 A 
ATOM      6  C   UNL     1       2.540   2.599  21.477  0.00  0.00    +0.000 A 
ATOM      7  C   UNL     1       3.516   2.795  20.490  0.00  0.00    +0.000 A 
ATOM      8  C   UNL     1       3.138   3.597  19.416  0.00  0.00    +0.000 A 
ATOM      9  N   UNL     1       3.821   4.123  18.319  0.00  0.00    +0.000 N 
ENDROOT
BRANCH   1  11
ATOM     10  C   UNL     1       4.391   7.294  17.380  0.00  0.00    +0.000 C 
ATOM     11  C   UNL     1       3.413   6.694  18.406  0.00  0.00    +0.000 C 
BRANCH  11  12
ATOM     12  N   UNL     1       2.239   7.489  18.698  0.00  0.00    +0.000 N 
ATOM     13  C   UNL     1       1.902   8.673  18.073  0.00  0.00    +0.000 C 
ATOM     14  O   UNL     1       2.530   9.206  17.165  0.00  0.00    +0.000 OA
ATOM     15  H   UNL     1       1.713   7.230  19.522  0.00  0.00    +0.000 HD
BRANCH  13  16
ATOM     16  C   UNL     1       0.629   9.294  18.605  0.00  0.00    +0.000 C 
BRANCH  16  17
ATOM     17  O   UNL     1      -0.202   9.636  17.506  0.00  0.00    +0.000 OA
BRANCH  17  18
ATOM     18  C   UNL     1      -1.372  10.262  17.832  0.00  0.00    +0.000 A 
ATOM     19  C   UNL     1      -2.634   9.924  17.340  0.00  0.00    +0.000 A 
ATOM     20  C   UNL     1      -3.761  10.624  17.780  0.00  0.00    +0.000 A 
ATOM     21  C   UNL     1      -3.631  11.662  18.694  0.00  0.00    +0.000 A 
ATOM     22  C   UNL     1      -2.372  12.010  19.175  0.00  0.00    +0.000 A 
ATOM     23  C   UNL     1      -1.246  11.311  18.744  0.00  0.00    +0.000 A 
ENDBRANCH  17  18
ENDBRANCH  16  17
ENDBRANCH  13  16
ENDBRANCH  11  12
ENDBRANCH   1  11
BRANCH   9  24
ATOM     24  C   UNL     1       4.252   3.212  17.245  0.00  0.00    +0.000 C 
BRANCH  24  25
ATOM     25  C   UNL     1       5.334   3.732  16.331  0.00  0.00    +0.000 A 
ATOM     26  C   UNL     1       5.149   3.810  14.942  0.00  0.00    +0.000 A 
ATOM     27  C   UNL     1       6.069   4.471  14.122  0.00  0.00    +0.000 A 
ATOM     28  C   UNL     1       7.205   5.054  14.683  0.00  0.00    +0.000 A 
ATOM     29  C   UNL     1       7.424   4.960  16.052  0.00  0.00    +0.000 A 
ATOM     30  C   UNL     1       6.495   4.306  16.858  0.00  0.00    +0.000 A 
ATOM     31  F   UNL     1       6.692   4.289  18.184  0.00  0.00    +0.000 F 
ENDBRANCH  24  25
ENDBRANCH   9  24
TORSDOF 7
ENDMDL
MODEL 7
REMARK VINA RESULT:      -8.1      3.403      6.160
REMARK  Name = 
REMARK  8 active torsions:
REMARK  status: ('A' for Active; 'I' for Inactive)
REMARK    1  A    between atoms: C_1  and  C_2
REMARK    2  A    between atoms: C_2  and  N_3
REMARK    3  A    between atoms: C_2  and  C_14
REMARK    4  A    between atoms: C_4  and  C_6
REMARK    5  A    between atoms: C_6  and  O_7
REMARK    6  A    between atoms: O_7  and  C_8
REMARK    7  A    between atoms: N_22  and  C_23
REMARK    8  A    between atoms: C_23  and  C_24
REMARK                            x       y       z     vdW  Elec       q    Type
REMARK                         _______ _______ _______ _____ _____    ______ ____
ROOT
ATOM      1  C   UNL     1       5.118   5.420  18.985  0.00  0.00    +0.000 A 
ATOM      2  N   UNL     1       5.294   4.289  19.656  0.00  0.00    +0.000 NA
ATOM      3  C   UNL     1       4.304   3.514  19.113  0.00  0.00    +0.000 A 
ATOM      4  C   UNL     1       4.267   2.133  18.898  0.00  0.00    +0.000 A 
ATOM      5  C   UNL     1       3.202   1.617  18.151  0.00  0.00    +0.000 A 
ATOM      6  C   UNL     1       2.157   2.443  17.715  0.00  0.00    +0.000 A 
ATOM      7  C   UNL     1       2.156   3.823  17.961  0.00  0.00    +0.000 A 
ATOM      8  C   UNL     1       3.284   4.323  18.607  0.00  0.00    +0.000 A 
ATOM      9  N   UNL     1       3.723   5.610  18.922  0.00  0.00    +0.000 N 
ENDROOT
BRANCH   1  11
ATOM     10  C   UNL     1       7.548   5.801  18.431  0.00  0.00    +0.000 C 
ATOM     11  C   UNL     1       6.106   5.809  17.891  0.00  0.00    +0.000 C 
BRANCH  11  12
ATOM     12  N   UNL     1       5.885   5.055  16.676  0.00  0.00    +0.000 N 
ATOM     13  C   UNL     1       5.492   5.588  15.465  0.00  0.00    +0.000 C 
ATOM     14  O   UNL     1       5.301   6.777  15.236  0.00  0.00    +0.000 OA
ATOM     15  H   UNL     1       5.875   4.047  16.767  0.00  0.00    +0.000 HD
BRANCH  13  16
ATOM     16  C   UNL     1       5.316   4.551  14.378  0.00  0.00    +0.000 C 
BRANCH  16  17
ATOM     17  O   UNL     1       6.485   4.537  13.572  0.00  0.00    +0.000 OA
BRANCH  17  18
ATOM     18  C   UNL     1       6.515   3.571  12.606  0.00  0.00    +0.000 A 
ATOM     19  C   UNL     1       7.656   3.140  11.929  0.00  0.00    +0.000 A 
ATOM     20  C   UNL     1       7.559   2.117  10.982  0.00  0.00    +0.000 A 
ATOM     21  C   UNL     1       6.328   1.535  10.701  0.00  0.00    +0.000 A 
ATOM     22  C   UNL     1       5.186   1.974  11.364  0.00  0.00    +0.000 A 
ATOM     23  C   UNL     1       5.280   2.990  12.314  0.00  0.00    +0.000 A 
ENDBRANCH  17  18
ENDBRANCH  16  17
ENDBRANCH  13  16
ENDBRANCH  11  12
ENDBRANCH   1  11
BRANCH   9  24
ATOM     24  C   UNL     1       3.017   6.366  19.971  0.00  0.00    +0.000 C 
BRANCH  24  25
ATOM     25  C   UNL     1       2.220   7.559  19.503  0.00  0.00    +0.000 A 
ATOM     26  C   UNL     1       1.384   8.272  20.376  0.00  0.00    +0.000 A 
ATOM     27  C   UNL     1       0.802   9.485  19.996  0.00  0.00    +0.000 A 
ATOM     28  C   UNL     1       1.039  10.000  18.721  0.00  0.00    +0.000 A 
ATOM     29  C   UNL     1       1.838   9.293  17.830  0.00  0.00    +0.000 A 
ATOM     30  C   UNL     1       2.417   8.089  18.225  0.00  0.00    +0.000 A 
ATOM     31  F   UNL     1       3.240   7.461  17.374  0.00  0.00    +0.000 F 
ENDBRANCH  24  25
ENDBRANCH   9  24
TORSDOF 7
ENDMDL
MODEL 8
REMARK VINA RESULT:      -8.1      4.347      6.828
REMARK  Name = 
REMARK  8 active torsions:
REMARK  status: ('A' for Active; 'I' for Inactive)
REMARK    1  A    between atoms: C_1  and  C_2
REMARK    2  A    between atoms: C_2  and  N_3
REMARK    3  A    between atoms: C_2  and  C_14
REMARK    4  A    between atoms: C_4  and  C_6
REMARK    5  A    between atoms: C_6  and  O_7
REMARK    6  A    between atoms: O_7  and  C_8
REMARK    7  A    between atoms: N_22  and  C_23
REMARK    8  A    between atoms: C_23  and  C_24
REMARK                            x       y       z     vdW  Elec       q    Type
REMARK                         _______ _______ _______ _____ _____    ______ ____
ROOT
ATOM      1  C   UNL     1       3.225   5.201  17.978  0.00  0.00    +0.000 A 
ATOM      2  N   UNL     1       1.958   4.807  18.021  0.00  0.00    +0.000 NA
ATOM      3  C   UNL     1       1.965   4.055  19.167  0.00  0.00    +0.000 A 
ATOM      4  C   UNL     1       0.949   3.844  20.103  0.00  0.00    +0.000 A 
ATOM      5  C   UNL     1       1.281   3.177  21.287  0.00  0.00    +0.000 A 
ATOM      6  C   UNL     1       2.564   2.653  21.487  0.00  0.00    +0.000 A 
ATOM      7  C   UNL     1       3.584   2.816  20.538  0.00  0.00    +0.000 A 
ATOM      8  C   UNL     1       3.254   3.582  19.423  0.00  0.00    +0.000 A 
ATOM      9  N   UNL     1       3.986   4.072  18.340  0.00  0.00    +0.000 N 
ENDROOT
BRANCH   1  11
ATOM     10  C   UNL     1       4.243   7.345  17.125  0.00  0.00    +0.000 C 
ATOM     11  C   UNL     1       3.578   6.644  18.324  0.00  0.00    +0.000 C 
BRANCH  11  12
ATOM     12  N   UNL     1       2.458   7.341  18.919  0.00  0.00    +0.000 N 
ATOM     13  C   UNL     1       1.906   8.514  18.447  0.00  0.00    +0.000 C 
ATOM     14  O   UNL     1       2.264   9.120  17.443  0.00  0.00    +0.000 OA
ATOM     15  H   UNL     1       2.160   7.019  19.831  0.00  0.00    +0.000 HD
BRANCH  13  16
ATOM     16  C   UNL     1       0.758   9.024  19.292  0.00  0.00    +0.000 C 
BRANCH  16  17
ATOM     17  O   UNL     1       1.100  10.307  19.793  0.00  0.00    +0.000 OA
BRANCH  17  18
ATOM     18  C   UNL     1       0.382  10.718  20.882  0.00  0.00    +0.000 A 
ATOM     19  C   UNL     1      -0.010  12.031  21.143  0.00  0.00    +0.000 A 
ATOM     20  C   UNL     1      -0.772  12.316  22.279  0.00  0.00    +0.000 A 
ATOM     21  C   UNL     1      -1.130  11.300  23.157  0.00  0.00    +0.000 A 
ATOM     22  C   UNL     1      -0.727   9.992  22.907  0.00  0.00    +0.000 A 
ATOM     23  C   UNL     1       0.028   9.702  21.771  0.00  0.00    +0.000 A 
ENDBRANCH  17  18
ENDBRANCH  16  17
ENDBRANCH  13  16
ENDBRANCH  11  12
ENDBRANCH   1  11
BRANCH   9  24
ATOM     24  C   UNL     1       4.463   3.126  17.317  0.00  0.00    +0.000 C 
BRANCH  24  25
ATOM     25  C   UNL     1       5.431   3.682  16.302  0.00  0.00    +0.000 A 
ATOM     26  C   UNL     1       5.090   3.791  14.944  0.00  0.00    +0.000 A 
ATOM     27  C   UNL     1       5.906   4.483  14.044  0.00  0.00    +0.000 A 
ATOM     28  C   UNL     1       7.092   5.068  14.489  0.00  0.00    +0.000 A 
ATOM     29  C   UNL     1       7.464   4.943  15.823  0.00  0.00    +0.000 A 
ATOM     30  C   UNL     1       6.637   4.258  16.710  0.00  0.00    +0.000 A 
ATOM     31  F   UNL     1       6.981   4.211  18.004  0.00  0.00    +0.000 F 
ENDBRANCH  24  25
ENDBRANCH   9  24
TORSDOF 7
ENDMDL
MODEL 9
REMARK VINA RESULT:      -8.1      3.657      5.144
REMARK  Name = 
REMARK  8 active torsions:
REMARK  status: ('A' for Active; 'I' for Inactive)
REMARK    1  A    between atoms: C_1  and  C_2
REMARK    2  A    between atoms: C_2  and  N_3
REMARK    3  A    between atoms: C_2  and  C_14
REMARK    4  A    between atoms: C_4  and  C_6
REMARK    5  A    between atoms: C_6  and  O_7
REMARK    6  A    between atoms: O_7  and  C_8
REMARK    7  A    between atoms: N_22  and  C_23
REMARK    8  A    between atoms: C_23  and  C_24
REMARK                            x       y       z     vdW  Elec       q    Type
REMARK                         _______ _______ _______ _____ _____    ______ ____
ROOT
ATOM      1  C   UNL     1       3.470   6.269  19.092  0.00  0.00    +0.000 A 
ATOM      2  N   UNL     1       4.180   5.385  19.781  0.00  0.00    +0.000 NA
ATOM      3  C   UNL     1       3.223   4.441  20.047  0.00  0.00    +0.000 A 
ATOM      4  C   UNL     1       3.349   3.056  20.187  0.00  0.00    +0.000 A 
ATOM      5  C   UNL     1       2.175   2.299  20.272  0.00  0.00    +0.000 A 
ATOM      6  C   UNL     1       0.919   2.916  20.313  0.00  0.00    +0.000 A 
ATOM      7  C   UNL     1       0.776   4.308  20.219  0.00  0.00    +0.000 A 
ATOM      8  C   UNL     1       1.954   5.023  20.021  0.00  0.00    +0.000 A 
ATOM      9  N   UNL     1       2.234   6.366  19.762  0.00  0.00    +0.000 N 
ENDROOT
BRANCH   1  11
ATOM     10  C   UNL     1       3.624   7.850  17.134  0.00  0.00    +0.000 C 
ATOM     11  C   UNL     1       3.661   6.378  17.584  0.00  0.00    +0.000 C 
BRANCH  11  12
ATOM     12  N   UNL     1       4.801   5.610  17.131  0.00  0.00    +0.000 N 
ATOM     13  C   UNL     1       6.066   6.115  16.907  0.00  0.00    +0.000 C 
ATOM     14  O   UNL     1       6.412   7.278  17.083  0.00  0.00    +0.000 OA
ATOM     15  H   UNL     1       4.613   4.667  16.817  0.00  0.00    +0.000 HD
BRANCH  13  16
ATOM     16  C   UNL     1       7.050   5.078  16.413  0.00  0.00    +0.000 C 
BRANCH  16  17
ATOM     17  O   UNL     1       7.645   5.553  15.214  0.00  0.00    +0.000 OA
BRANCH  17  18
ATOM     18  C   UNL     1       7.228   4.931  14.070  0.00  0.00    +0.000 A 
ATOM     19  C   UNL     1       7.791   5.103  12.806  0.00  0.00    +0.000 A 
ATOM     20  C   UNL     1       7.293   4.380  11.719  0.00  0.00    +0.000 A 
ATOM     21  C   UNL     1       6.230   3.500  11.888  0.00  0.00    +0.000 A 
ATOM     22  C   UNL     1       5.658   3.338  13.146  0.00  0.00    +0.000 A 
ATOM     23  C   UNL     1       6.156   4.053  14.234  0.00  0.00    +0.000 A 
ENDBRANCH  17  18
ENDBRANCH  16  17
ENDBRANCH  13  16
ENDBRANCH  11  12
ENDBRANCH   1  11
BRANCH   9  24
ATOM     24  C   UNL     1       2.034   7.355  20.836  0.00  0.00    +0.000 C 
BRANCH  24  25
ATOM     25  C   UNL     1       1.254   8.590  20.461  0.00  0.00    +0.000 A 
ATOM     26  C   UNL     1       1.184   9.041  19.133  0.00  0.00    +0.000 A 
ATOM     27  C   UNL     1       0.308  10.063  18.758  0.00  0.00    +0.000 A 
ATOM     28  C   UNL     1      -0.508  10.666  19.716  0.00  0.00    +0.000 A 
ATOM     29  C   UNL     1      -0.431  10.256  21.043  0.00  0.00    +0.000 A 
ATOM     30  C   UNL     1       0.442   9.231  21.401  0.00  0.00    +0.000 A 
ATOM     31  F   UNL     1       0.448   8.805  22.671  0.00  0.00    +0.000 F 
ENDBRANCH  24  25
ENDBRANCH   9  24
TORSDOF 7
ENDMDL
