MODEL 1
REMARK VINA RESULT:      -9.1      0.000      0.000
REMARK  Name = 
REMARK  8 active torsions:
REMARK  status: ('A' for Active; 'I' for Inactive)
REMARK    1  A    between atoms: C_1  and  C_2
REMARK    2  A    between atoms: C_3  and  C_4
REMARK    3  A    between atoms: C_5  and  C_6
REMARK    4  A    between atoms: C_6  and  N_7
REMARK    5  A    between atoms: C_8  and  C_10
REMARK    6  A    between atoms: C_17  and  O_18
REMARK    7  A    between atoms: N_24  and  C_25
REMARK    8  A    between atoms: N_28  and  C_29
REMARK                            x       y       z     vdW  Elec       q    Type
REMARK                         _______ _______ _______ _____ _____    ______ ____
ROOT
ATOM      1  N   UNL     1       1.689   7.627  20.372  0.00  0.00    +0.000 N 
ATOM      2  C   UNL     1       1.231   8.863  19.971  0.00  0.00    +0.000 C 
ATOM      3  O   UNL     1       1.507   9.358  18.881  0.00  0.00    +0.000 OA
ATOM      4  H   UNL     1       1.263   7.235  21.215  0.00  0.00    +0.000 HD
ENDROOT
BRANCH   2   5
ATOM      5  C   UNL     1       0.388   9.632  20.935  0.00  0.00    +0.000 A 
ATOM      6  C   UNL     1       0.452   9.215  22.279  0.00  0.00    +0.000 A 
ATOM      7  C   UNL     1      -0.283   9.871  23.256  0.00  0.00    +0.000 A 
ATOM      8  C   UNL     1      -1.064  10.963  22.899  0.00  0.00    +0.000 A 
ATOM      9  C   UNL     1      -1.122  11.396  21.565  0.00  0.00    +0.000 A 
ATOM     10  C   UNL     1      -1.889  12.516  21.216  0.00  0.00    +0.000 A 
ATOM     11  C   UNL     1      -1.938  12.947  19.900  0.00  0.00    +0.000 A 
ATOM     12  C   UNL     1      -1.229  12.219  18.968  0.00  0.00    +0.000 A 
ATOM     13  N   UNL     1      -0.489  11.138  19.257  0.00  0.00    +0.000 NA
ATOM     14  C   UNL     1      -0.405  10.723  20.546  0.00  0.00    +0.000 A 
BRANCH  12  15
ATOM     15  O   UNL     1      -1.232  12.562  17.650  0.00  0.00    +0.000 OA
ATOM     16  H   UNL     1      -2.150  12.580  17.341  0.00  0.00    +0.000 HD
ENDBRANCH  12  15
ENDBRANCH   2   5
BRANCH   1  17
ATOM     17  C   UNL     1       2.448   6.758  19.497  0.00  0.00    +0.000 C 
BRANCH  17  19
ATOM     18  C   UNL     1       3.476   4.445  19.290  0.00  0.00    +0.000 C 
ATOM     19  C   UNL     1       3.021   5.556  20.241  0.00  0.00    +0.000 C 
ATOM     20  C   UNL     1       1.991   4.844  21.126  0.00  0.00    +0.000 C 
ATOM     21  C   UNL     1       2.444   3.402  21.110  0.00  0.00    +0.000 C 
ATOM     22  O   UNL     1       1.999   2.524  21.832  0.00  0.00    +0.000 OA
ATOM     23  N   UNL     1       3.391   3.254  20.110  0.00  0.00    +0.000 N 
ATOM     24  C   UNL     1       3.913   1.969  19.693  0.00  0.00    +0.000 C 
BRANCH  18  27
ATOM     25  C   UNL     1       4.570   4.032  16.158  0.00  0.00    +0.000 C 
ATOM     26  C   UNL     1       5.279   4.449  17.395  0.00  0.00    +0.000 A 
ATOM     27  C   UNL     1       4.830   4.635  18.695  0.00  0.00    +0.000 A 
ATOM     28  C   UNL     1       5.980   5.076  19.392  0.00  0.00    +0.000 A 
ATOM     29  N   UNL     1       7.060   5.151  18.617  0.00  0.00    +0.000 NA
ATOM     30  N   UNL     1       6.622   4.728  17.419  0.00  0.00    +0.000 N 
ATOM     31  C   UNL     1       7.563   4.585  16.332  0.00  0.00    +0.000 C 
ENDBRANCH  18  27
ENDBRANCH  17  19
ENDBRANCH   1  17
TORSDOF 5
ENDMDL
MODEL 2
REMARK VINA RESULT:      -9.1      1.534      2.415
REMARK  Name = 
REMARK  8 active torsions:
REMARK  status: ('A' for Active; 'I' for Inactive)
REMARK    1  A    between atoms: C_1  and  C_2
REMARK    2  A    between atoms: C_3  and  C_4
REMARK    3  A    between atoms: C_5  and  C_6
REMARK    4  A    between atoms: C_6  and  N_7
REMARK    5  A    between atoms: C_8  and  C_10
REMARK    6  A    between atoms: C_17  and  O_18
REMARK    7  A    between atoms: N_24  and  C_25
REMARK    8  A    between atoms: N_28  and  C_29
REMARK                            x       y       z     vdW  Elec       q    Type
REMARK                         _______ _______ _______ _____ _____    ______ ____
ROOT
ATOM      1  N   UNL     1       1.916   8.128  19.361  0.00  0.00    +0.000 N 
ATOM      2  C   UNL     1       1.707   9.237  18.570  0.00  0.00    +0.000 C 
ATOM      3  O   UNL     1       1.837   9.222  17.349  0.00  0.00    +0.000 OA
ATOM      4  H   UNL     1       1.614   8.200  20.335  0.00  0.00    +0.000 HD
ENDROOT
BRANCH   2   5
ATOM      5  C   UNL     1       1.340  10.512  19.254  0.00  0.00    +0.000 A 
ATOM      6  C   UNL     1       1.738  11.697  18.604  0.00  0.00    +0.000 A 
ATOM      7  C   UNL     1       1.435  12.936  19.151  0.00  0.00    +0.000 A 
ATOM      8  C   UNL     1       0.711  12.997  20.335  0.00  0.00    +0.000 A 
ATOM      9  C   UNL     1       0.298  11.822  20.983  0.00  0.00    +0.000 A 
ATOM     10  C   UNL     1      -0.457  11.890  22.162  0.00  0.00    +0.000 A 
ATOM     11  C   UNL     1      -0.871  10.729  22.795  0.00  0.00    +0.000 A 
ATOM     12  C   UNL     1      -0.491   9.529  22.231  0.00  0.00    +0.000 A 
ATOM     13  N   UNL     1       0.236   9.419  21.108  0.00  0.00    +0.000 NA
ATOM     14  C   UNL     1       0.622  10.546  20.459  0.00  0.00    +0.000 A 
BRANCH  12  15
ATOM     15  O   UNL     1      -0.842   8.339  22.792  0.00  0.00    +0.000 OA
ATOM     16  H   UNL     1      -1.641   8.477  23.323  0.00  0.00    +0.000 HD
ENDBRANCH  12  15
ENDBRANCH   2   5
BRANCH   1  17
ATOM     17  C   UNL     1       2.200   6.820  18.806  0.00  0.00    +0.000 C 
BRANCH  17  19
ATOM     18  C   UNL     1       3.370   4.605  19.220  0.00  0.00    +0.000 C 
ATOM     19  C   UNL     1       2.783   5.872  19.849  0.00  0.00    +0.000 C 
ATOM     20  C   UNL     1       1.732   5.314  20.817  0.00  0.00    +0.000 C 
ATOM     21  C   UNL     1       2.266   3.946  21.173  0.00  0.00    +0.000 C 
ATOM     22  O   UNL     1       1.820   3.232  22.057  0.00  0.00    +0.000 OA
ATOM     23  N   UNL     1       3.293   3.637  20.295  0.00  0.00    +0.000 N 
ATOM     24  C   UNL     1       3.917   2.332  20.229  0.00  0.00    +0.000 C 
BRANCH  18  27
ATOM     25  C   UNL     1       4.600   4.007  16.169  0.00  0.00    +0.000 C 
ATOM     26  C   UNL     1       5.257   4.486  17.413  0.00  0.00    +0.000 A 
ATOM     27  C   UNL     1       4.752   4.748  18.679  0.00  0.00    +0.000 A 
ATOM     28  C   UNL     1       5.875   5.217  19.402  0.00  0.00    +0.000 A 
ATOM     29  N   UNL     1       6.990   5.238  18.674  0.00  0.00    +0.000 NA
ATOM     30  N   UNL     1       6.601   4.753  17.483  0.00  0.00    +0.000 N 
ATOM     31  C   UNL     1       7.588   4.541  16.449  0.00  0.00    +0.000 C 
ENDBRANCH  18  27
ENDBRANCH  17  19
ENDBRANCH   1  17
TORSDOF 5
ENDMDL
MODEL 3
REMARK VINA RESULT:      -9.0      0.652      1.259
REMARK  Name = 
REMARK  8 active torsions:
REMARK  status: ('A' for Active; 'I' for Inactive)
REMARK    1  A    between atoms: C_1  and  C_2
REMARK    2  A    between atoms: C_3  and  C_4
REMARK    3  A    between atoms: C_5  and  C_6
REMARK    4  A    between atoms: C_6  and  N_7
REMARK    5  A    between atoms: C_8  and  C_10
REMARK    6  A    between atoms: C_17  and  O_18
REMARK    7  A    between atoms: N_24  and  C_25
REMARK    8  A    between atoms: N_28  and  C_29
REMARK                            x       y       z     vdW  Elec       q    Type
REMARK                         _______ _______ _______ _____ _____    ______ ____
ROOT
ATOM      1  N   UNL     1       1.739   7.702  20.160  0.00  0.00    +0.000 N 
ATOM      2  C   UNL     1       1.270   8.959  19.843  0.00  0.00    +0.000 C 
ATOM      3  O   UNL     1       1.539   9.527  18.788  0.00  0.00    +0.000 OA
ATOM      4  H   UNL     1       1.318   7.252  20.976  0.00  0.00    +0.000 HD
ENDROOT
BRANCH   2   5
ATOM      5  C   UNL     1       0.426   9.656  20.859  0.00  0.00    +0.000 A 
ATOM      6  C   UNL     1       0.518   9.168  22.177  0.00  0.00    +0.000 A 
ATOM      7  C   UNL     1      -0.217   9.753  23.198  0.00  0.00    +0.000 A 
ATOM      8  C   UNL     1      -1.026  10.845  22.911  0.00  0.00    +0.000 A 
ATOM      9  C   UNL     1      -1.113  11.349  21.603  0.00  0.00    +0.000 A 
ATOM     10  C   UNL     1      -1.909  12.469  21.326  0.00  0.00    +0.000 A 
ATOM     11  C   UNL     1      -1.986  12.969  20.036  0.00  0.00    +0.000 A 
ATOM     12  C   UNL     1      -1.275  12.308  19.056  0.00  0.00    +0.000 A 
ATOM     13  N   UNL     1      -0.507  11.230  19.277  0.00  0.00    +0.000 NA
ATOM     14  C   UNL     1      -0.396  10.747  20.539  0.00  0.00    +0.000 A 
BRANCH  12  15
ATOM     15  O   UNL     1      -1.304  12.722  17.759  0.00  0.00    +0.000 OA
ATOM     16  H   UNL     1      -0.412  13.011  17.512  0.00  0.00    +0.000 HD
ENDBRANCH  12  15
ENDBRANCH   2   5
BRANCH   1  17
ATOM     17  C   UNL     1       2.501   6.899  19.226  0.00  0.00    +0.000 C 
BRANCH  17  19
ATOM     18  C   UNL     1       2.850   4.426  18.768  0.00  0.00    +0.000 C 
ATOM     19  C   UNL     1       2.879   5.543  19.815  0.00  0.00    +0.000 C 
ATOM     20  C   UNL     1       1.887   5.043  20.872  0.00  0.00    +0.000 C 
ATOM     21  C   UNL     1       1.948   3.540  20.734  0.00  0.00    +0.000 C 
ATOM     22  O   UNL     1       1.439   2.748  21.511  0.00  0.00    +0.000 OA
ATOM     23  N   UNL     1       2.621   3.236  19.562  0.00  0.00    +0.000 N 
ATOM     24  C   UNL     1       2.712   1.896  19.021  0.00  0.00    +0.000 C 
BRANCH  18  27
ATOM     25  C   UNL     1       6.049   5.130  19.437  0.00  0.00    +0.000 C 
ATOM     26  C   UNL     1       5.395   4.627  18.201  0.00  0.00    +0.000 A 
ATOM     27  C   UNL     1       4.072   4.321  17.919  0.00  0.00    +0.000 A 
ATOM     28  C   UNL     1       4.108   3.850  16.585  0.00  0.00    +0.000 A 
ATOM     29  N   UNL     1       5.333   3.867  16.062  0.00  0.00    +0.000 NA
ATOM     30  N   UNL     1       6.092   4.379  17.045  0.00  0.00    +0.000 N 
ATOM     31  C   UNL     1       7.491   4.637  16.797  0.00  0.00    +0.000 C 
ENDBRANCH  18  27
ENDBRANCH  17  19
ENDBRANCH   1  17
TORSDOF 5
ENDMDL
MODEL 4
REMARK VINA RESULT:      -9.0      1.474      1.828
REMARK  Name = 
REMARK  8 active torsions:
REMARK  status: ('A' for Active; 'I' for Inactive)
REMARK    1  A    between atoms: C_1  and  C_2
REMARK    2  A    between atoms: C_3  and  C_4
REMARK    3  A    between atoms: C_5  and  C_6
REMARK    4  A    between atoms: C_6  and  N_7
REMARK    5  A    between atoms: C_8  and  C_10
REMARK    6  A    between atoms: C_17  and  O_18
REMARK    7  A    between atoms: N_24  and  C_25
REMARK    8  A    between atoms: N_28  and  C_29
REMARK                            x       y       z     vdW  Elec       q    Type
REMARK                         _______ _______ _______ _____ _____    ______ ____
ROOT
ATOM      1  N   UNL     1       1.613   8.202  19.170  0.00  0.00    +0.000 N 
ATOM      2  C   UNL     1       1.379   9.416  18.559  0.00  0.00    +0.000 C 
ATOM      3  O   UNL     1       1.983   9.788  17.557  0.00  0.00    +0.000 OA
ATOM      4  H   UNL     1       0.941   7.916  19.885  0.00  0.00    +0.000 HD
ENDROOT
BRANCH   2   5
ATOM      5  C   UNL     1       0.364  10.316  19.182  0.00  0.00    +0.000 A 
ATOM      6  C   UNL     1       0.746  10.935  20.388  0.00  0.00    +0.000 A 
ATOM      7  C   UNL     1      -0.120  11.800  21.042  0.00  0.00    +0.000 A 
ATOM      8  C   UNL     1      -1.361  12.071  20.479  0.00  0.00    +0.000 A 
ATOM      9  C   UNL     1      -1.745  11.471  19.269  0.00  0.00    +0.000 A 
ATOM     10  C   UNL     1      -2.987  11.771  18.692  0.00  0.00    +0.000 A 
ATOM     11  C   UNL     1      -3.360  11.183  17.494  0.00  0.00    +0.000 A 
ATOM     12  C   UNL     1      -2.478  10.290  16.923  0.00  0.00    +0.000 A 
ATOM     13  N   UNL     1      -1.284   9.971  17.445  0.00  0.00    +0.000 NA
ATOM     14  C   UNL     1      -0.890  10.560  18.601  0.00  0.00    +0.000 A 
BRANCH  12  15
ATOM     15  O   UNL     1      -2.768   9.657  15.753  0.00  0.00    +0.000 OA
ATOM     16  H   UNL     1      -1.973   9.661  15.199  0.00  0.00    +0.000 HD
ENDBRANCH  12  15
ENDBRANCH   2   5
BRANCH   1  17
ATOM     17  C   UNL     1       2.517   7.215  18.615  0.00  0.00    +0.000 C 
BRANCH  17  19
ATOM     18  C   UNL     1       3.388   4.860  18.988  0.00  0.00    +0.000 C 
ATOM     19  C   UNL     1       2.907   6.158  19.643  0.00  0.00    +0.000 C 
ATOM     20  C   UNL     1       1.731   5.686  20.506  0.00  0.00    +0.000 C 
ATOM     21  C   UNL     1       2.074   4.250  20.823  0.00  0.00    +0.000 C 
ATOM     22  O   UNL     1       1.484   3.555  21.635  0.00  0.00    +0.000 OA
ATOM     23  N   UNL     1       3.119   3.860  20.001  0.00  0.00    +0.000 N 
ATOM     24  C   UNL     1       3.591   2.494  19.908  0.00  0.00    +0.000 C 
BRANCH  18  27
ATOM     25  C   UNL     1       4.760   4.264  15.998  0.00  0.00    +0.000 C 
ATOM     26  C   UNL     1       5.375   4.600  17.308  0.00  0.00    +0.000 A 
ATOM     27  C   UNL     1       4.813   4.860  18.549  0.00  0.00    +0.000 A 
ATOM     28  C   UNL     1       5.927   5.155  19.372  0.00  0.00    +0.000 A 
ATOM     29  N   UNL     1       7.087   5.076  18.723  0.00  0.00    +0.000 NA
ATOM     30  N   UNL     1       6.733   4.699  17.483  0.00  0.00    +0.000 N 
ATOM     31  C   UNL     1       7.761   4.418  16.508  0.00  0.00    +0.000 C 
ENDBRANCH  18  27
ENDBRANCH  17  19
ENDBRANCH   1  17
TORSDOF 5
ENDMDL
MODEL 5
REMARK VINA RESULT:      -8.9      1.647      2.714
REMARK  Name = 
REMARK  8 active torsions:
REMARK  status: ('A' for Active; 'I' for Inactive)
REMARK    1  A    between atoms: C_1  and  C_2
REMARK    2  A    between atoms: C_3  and  C_4
REMARK    3  A    between atoms: C_5  and  C_6
REMARK    4  A    between atoms: C_6  and  N_7
REMARK    5  A    between atoms: C_8  and  C_10
REMARK    6  A    between atoms: C_17  and  O_18
REMARK    7  A    between atoms: N_24  and  C_25
REMARK    8  A    between atoms: N_28  and  C_29
REMARK                            x       y       z     vdW  Elec       q    Type
REMARK                         _______ _______ _______ _____ _____    ______ ____
ROOT
ATOM      1  N   UNL     1       1.888   8.151  19.145  0.00  0.00    +0.000 N 
ATOM      2  C   UNL     1       1.739   9.314  18.421  0.00  0.00    +0.000 C 
ATOM      3  O   UNL     1       1.905   9.373  17.206  0.00  0.00    +0.000 OA
ATOM      4  H   UNL     1       1.558   8.172  20.113  0.00  0.00    +0.000 HD
ENDROOT
BRANCH   2   5
ATOM      5  C   UNL     1       1.392  10.556  19.176  0.00  0.00    +0.000 A 
ATOM      6  C   UNL     1       1.804  11.768  18.590  0.00  0.00    +0.000 A 
ATOM      7  C   UNL     1       1.521  12.980  19.205  0.00  0.00    +0.000 A 
ATOM      8  C   UNL     1       0.802  12.986  20.393  0.00  0.00    +0.000 A 
ATOM      9  C   UNL     1       0.373  11.783  20.977  0.00  0.00    +0.000 A 
ATOM     10  C   UNL     1      -0.377  11.798  22.161  0.00  0.00    +0.000 A 
ATOM     11  C   UNL     1      -0.806  10.609  22.731  0.00  0.00    +0.000 A 
ATOM     12  C   UNL     1      -0.444   9.437  22.101  0.00  0.00    +0.000 A 
ATOM     13  N   UNL     1       0.278   9.378  20.971  0.00  0.00    +0.000 NA
ATOM     14  C   UNL     1       0.678  10.533  20.384  0.00  0.00    +0.000 A 
BRANCH  12  15
ATOM     15  O   UNL     1      -0.810   8.223  22.598  0.00  0.00    +0.000 OA
ATOM     16  H   UNL     1      -1.538   8.357  23.224  0.00  0.00    +0.000 HD
ENDBRANCH  12  15
ENDBRANCH   2   5
BRANCH   1  17
ATOM     17  C   UNL     1       2.147   6.873  18.516  0.00  0.00    +0.000 C 
BRANCH  17  19
ATOM     18  C   UNL     1       3.042   4.518  18.835  0.00  0.00    +0.000 C 
ATOM     19  C   UNL     1       2.839   5.899  19.465  0.00  0.00    +0.000 C 
ATOM     20  C   UNL     1       2.014   5.582  20.718  0.00  0.00    +0.000 C 
ATOM     21  C   UNL     1       2.414   4.166  21.059  0.00  0.00    +0.000 C 
ATOM     22  O   UNL     1       2.119   3.589  22.094  0.00  0.00    +0.000 OA
ATOM     23  N   UNL     1       3.111   3.639  19.984  0.00  0.00    +0.000 N 
ATOM     24  C   UNL     1       3.493   2.245  19.891  0.00  0.00    +0.000 C 
BRANCH  18  27
ATOM     25  C   UNL     1       6.253   5.283  19.363  0.00  0.00    +0.000 C 
ATOM     26  C   UNL     1       5.563   4.726  18.171  0.00  0.00    +0.000 A 
ATOM     27  C   UNL     1       4.234   4.394  17.948  0.00  0.00    +0.000 A 
ATOM     28  C   UNL     1       4.230   3.872  16.632  0.00  0.00    +0.000 A 
ATOM     29  N   UNL     1       5.435   3.883  16.066  0.00  0.00    +0.000 NA
ATOM     30  N   UNL     1       6.222   4.442  17.001  0.00  0.00    +0.000 N 
ATOM     31  C   UNL     1       7.608   4.706  16.695  0.00  0.00    +0.000 C 
ENDBRANCH  18  27
ENDBRANCH  17  19
ENDBRANCH   1  17
TORSDOF 5
ENDMDL
MODEL 6
REMARK VINA RESULT:      -8.9      1.561      2.151
REMARK  Name = 
REMARK  8 active torsions:
REMARK  status: ('A' for Active; 'I' for Inactive)
REMARK    1  A    between atoms: C_1  and  C_2
REMARK    2  A    between atoms: C_3  and  C_4
REMARK    3  A    between atoms: C_5  and  C_6
REMARK    4  A    between atoms: C_6  and  N_7
REMARK    5  A    between atoms: C_8  and  C_10
REMARK    6  A    between atoms: C_17  and  O_18
REMARK    7  A    between atoms: N_24  and  C_25
REMARK    8  A    between atoms: N_28  and  C_29
REMARK                            x       y       z     vdW  Elec       q    Type
REMARK                         _______ _______ _______ _____ _____    ______ ____
ROOT
ATOM      1  N   UNL     1       1.638   8.171  18.957  0.00  0.00    +0.000 N 
ATOM      2  C   UNL     1       1.399   9.431  18.452  0.00  0.00    +0.000 C 
ATOM      3  O   UNL     1       1.984   9.881  17.470  0.00  0.00    +0.000 OA
ATOM      4  H   UNL     1       0.979   7.831  19.661  0.00  0.00    +0.000 HD
ENDROOT
BRANCH   2   5
ATOM      5  C   UNL     1       0.402  10.283  19.167  0.00  0.00    +0.000 A 
ATOM      6  C   UNL     1       0.818  10.812  20.404  0.00  0.00    +0.000 A 
ATOM      7  C   UNL     1      -0.029  11.626  21.143  0.00  0.00    +0.000 A 
ATOM      8  C   UNL     1      -1.285  11.936  20.637  0.00  0.00    +0.000 A 
ATOM      9  C   UNL     1      -1.703  11.425  19.398  0.00  0.00    +0.000 A 
ATOM     10  C   UNL     1      -2.961  11.765  18.879  0.00  0.00    +0.000 A 
ATOM     11  C   UNL     1      -3.368  11.266  17.652  0.00  0.00    +0.000 A 
ATOM     12  C   UNL     1      -2.502  10.419  16.993  0.00  0.00    +0.000 A 
ATOM     13  N   UNL     1      -1.294  10.063  17.456  0.00  0.00    +0.000 NA
ATOM     14  C   UNL     1      -0.868  10.567  18.641  0.00  0.00    +0.000 A 
BRANCH  12  15
ATOM     15  O   UNL     1      -2.826   9.872  15.788  0.00  0.00    +0.000 OA
ATOM     16  H   UNL     1      -2.092   9.307  15.503  0.00  0.00    +0.000 HD
ENDBRANCH  12  15
ENDBRANCH   2   5
BRANCH   1  17
ATOM     17  C   UNL     1       2.524   7.229  18.305  0.00  0.00    +0.000 C 
BRANCH  17  19
ATOM     18  C   UNL     1       3.032   4.752  18.543  0.00  0.00    +0.000 C 
ATOM     19  C   UNL     1       2.961   6.111  19.247  0.00  0.00    +0.000 C 
ATOM     20  C   UNL     1       1.965   5.852  20.384  0.00  0.00    +0.000 C 
ATOM     21  C   UNL     1       2.118   4.375  20.662  0.00  0.00    +0.000 C 
ATOM     22  O   UNL     1       1.631   3.791  21.617  0.00  0.00    +0.000 OA
ATOM     23  N   UNL     1       2.847   3.810  19.628  0.00  0.00    +0.000 N 
ATOM     24  C   UNL     1       3.035   2.382  19.474  0.00  0.00    +0.000 C 
BRANCH  18  27
ATOM     25  C   UNL     1       6.233   5.304  19.335  0.00  0.00    +0.000 C 
ATOM     26  C   UNL     1       5.611   4.745  18.107  0.00  0.00    +0.000 A 
ATOM     27  C   UNL     1       4.286   4.501  17.775  0.00  0.00    +0.000 A 
ATOM     28  C   UNL     1       4.359   3.922  16.486  0.00  0.00    +0.000 A 
ATOM     29  N   UNL     1       5.606   3.820  16.033  0.00  0.00    +0.000 NA
ATOM     30  N   UNL     1       6.347   4.361  17.014  0.00  0.00    +0.000 N 
ATOM     31  C   UNL     1       7.772   4.509  16.827  0.00  0.00    +0.000 C 
ENDBRANCH  18  27
ENDBRANCH  17  19
ENDBRANCH   1  17
TORSDOF 5
ENDMDL
MODEL 7
REMARK VINA RESULT:      -8.7      1.353      2.503
REMARK  Name = 
REMARK  8 active torsions:
REMARK  status: ('A' for Active; 'I' for Inactive)
REMARK    1  A    between atoms: C_1  and  C_2
REMARK    2  A    between atoms: C_3  and  C_4
REMARK    3  A    between atoms: C_5  and  C_6
REMARK    4  A    between atoms: C_6  and  N_7
REMARK    5  A    between atoms: C_8  and  C_10
REMARK    6  A    between atoms: C_17  and  O_18
REMARK    7  A    between atoms: N_24  and  C_25
REMARK    8  A    between atoms: N_28  and  C_29
REMARK                            x       y       z     vdW  Elec       q    Type
REMARK                         _______ _______ _______ _____ _____    ______ ____
ROOT
ATOM      1  N   UNL     1       1.496   8.259  18.994  0.00  0.00    +0.000 N 
ATOM      2  C   UNL     1       1.310   9.496  18.414  0.00  0.00    +0.000 C 
ATOM      3  O   UNL     1       2.019   9.923  17.507  0.00  0.00    +0.000 OA
ATOM      4  H   UNL     1       0.751   7.931  19.613  0.00  0.00    +0.000 HD
ENDROOT
BRANCH   2   5
ATOM      5  C   UNL     1       0.211  10.352  18.953  0.00  0.00    +0.000 A 
ATOM      6  C   UNL     1      -0.590  11.001  17.995  0.00  0.00    +0.000 A 
ATOM      7  C   UNL     1      -1.646  11.811  18.391  0.00  0.00    +0.000 A 
ATOM      8  C   UNL     1      -1.921  11.952  19.745  0.00  0.00    +0.000 A 
ATOM      9  C   UNL     1      -1.137  11.296  20.708  0.00  0.00    +0.000 A 
ATOM     10  C   UNL     1      -1.438  11.421  22.071  0.00  0.00    +0.000 A 
ATOM     11  C   UNL     1      -0.668  10.766  23.019  0.00  0.00    +0.000 A 
ATOM     12  C   UNL     1       0.400  10.022  22.564  0.00  0.00    +0.000 A 
ATOM     13  N   UNL     1       0.727   9.882  21.270  0.00  0.00    +0.000 NA
ATOM     14  C   UNL     1      -0.035  10.491  20.328  0.00  0.00    +0.000 A 
BRANCH  12  15
ATOM     15  O   UNL     1       1.219   9.356  23.425  0.00  0.00    +0.000 OA
ATOM     16  H   UNL     1       1.915   9.964  23.715  0.00  0.00    +0.000 HD
ENDBRANCH  12  15
ENDBRANCH   2   5
BRANCH   1  17
ATOM     17  C   UNL     1       2.478   7.312  18.507  0.00  0.00    +0.000 C 
BRANCH  17  19
ATOM     18  C   UNL     1       3.298   4.943  18.909  0.00  0.00    +0.000 C 
ATOM     19  C   UNL     1       2.809   6.247  19.547  0.00  0.00    +0.000 C 
ATOM     20  C   UNL     1       1.590   5.791  20.358  0.00  0.00    +0.000 C 
ATOM     21  C   UNL     1       1.899   4.349  20.685  0.00  0.00    +0.000 C 
ATOM     22  O   UNL     1       1.265   3.661  21.470  0.00  0.00    +0.000 OA
ATOM     23  N   UNL     1       2.972   3.946  19.907  0.00  0.00    +0.000 N 
ATOM     24  C   UNL     1       3.427   2.573  19.830  0.00  0.00    +0.000 C 
BRANCH  18  27
ATOM     25  C   UNL     1       4.787   4.306  15.985  0.00  0.00    +0.000 C 
ATOM     26  C   UNL     1       5.351   4.646  17.317  0.00  0.00    +0.000 A 
ATOM     27  C   UNL     1       4.740   4.924  18.531  0.00  0.00    +0.000 A 
ATOM     28  C   UNL     1       5.821   5.213  19.398  0.00  0.00    +0.000 A 
ATOM     29  N   UNL     1       7.007   5.115  18.799  0.00  0.00    +0.000 NA
ATOM     30  N   UNL     1       6.701   4.732  17.548  0.00  0.00    +0.000 N 
ATOM     31  C   UNL     1       7.766   4.431  16.620  0.00  0.00    +0.000 C 
ENDBRANCH  18  27
ENDBRANCH  17  19
ENDBRANCH   1  17
TORSDOF 5
ENDMDL
MODEL 8
REMARK VINA RESULT:      -8.6      2.483      9.174
REMARK  Name = 
REMARK  8 active torsions:
REMARK  status: ('A' for Active; 'I' for Inactive)
REMARK    1  A    between atoms: C_1  and  C_2
REMARK    2  A    between atoms: C_3  and  C_4
REMARK    3  A    between atoms: C_5  and  C_6
REMARK    4  A    between atoms: C_6  and  N_7
REMARK    5  A    between atoms: C_8  and  C_10
REMARK    6  A    between atoms: C_17  and  O_18
REMARK    7  A    between atoms: N_24  and  C_25
REMARK    8  A    between atoms: N_28  and  C_29
REMARK                            x       y       z     vdW  Elec       q    Type
REMARK                         _______ _______ _______ _____ _____    ______ ____
ROOT
ATOM      1  N   UNL     1       1.588   8.580  17.795  0.00  0.00    +0.000 N 
ATOM      2  C   UNL     1       2.210   7.671  18.624  0.00  0.00    +0.000 C 
ATOM      3  O   UNL     1       2.115   7.707  19.848  0.00  0.00    +0.000 OA
ATOM      4  H   UNL     1       1.587   8.360  16.797  0.00  0.00    +0.000 HD
ENDROOT
BRANCH   2   5
ATOM      5  C   UNL     1       3.059   6.623  17.983  0.00  0.00    +0.000 A 
ATOM      6  C   UNL     1       4.174   7.090  17.261  0.00  0.00    +0.000 A 
ATOM      7  C   UNL     1       5.035   6.197  16.638  0.00  0.00    +0.000 A 
ATOM      8  C   UNL     1       4.799   4.833  16.756  0.00  0.00    +0.000 A 
ATOM      9  C   UNL     1       3.698   4.357  17.486  0.00  0.00    +0.000 A 
ATOM     10  C   UNL     1       3.482   2.979  17.625  0.00  0.00    +0.000 A 
ATOM     11  C   UNL     1       2.399   2.512  18.354  0.00  0.00    +0.000 A 
ATOM     12  C   UNL     1       1.551   3.451  18.902  0.00  0.00    +0.000 A 
ATOM     13  N   UNL     1       1.717   4.778  18.787  0.00  0.00    +0.000 NA
ATOM     14  C   UNL     1       2.789   5.251  18.104  0.00  0.00    +0.000 A 
BRANCH  12  15
ATOM     15  O   UNL     1       0.455   3.082  19.622  0.00  0.00    +0.000 OA
ATOM     16  H   UNL     1       0.272   2.148  19.441  0.00  0.00    +0.000 HD
ENDBRANCH  12  15
ENDBRANCH   2   5
BRANCH   1  17
ATOM     17  C   UNL     1       0.680   9.592  18.295  0.00  0.00    +0.000 C 
BRANCH  17  19
ATOM     18  C   UNL     1       0.479  11.896  19.343  0.00  0.00    +0.000 C 
ATOM     19  C   UNL     1       1.424  10.766  18.924  0.00  0.00    +0.000 C 
ATOM     20  C   UNL     1       2.382  11.468  17.954  0.00  0.00    +0.000 C 
ATOM     21  C   UNL     1       2.380  12.903  18.426  0.00  0.00    +0.000 C 
ATOM     22  O   UNL     1       3.148  13.767  18.034  0.00  0.00    +0.000 OA
ATOM     23  N   UNL     1       1.334  13.066  19.320  0.00  0.00    +0.000 N 
ATOM     24  C   UNL     1       0.923  14.355  19.837  0.00  0.00    +0.000 C 
BRANCH  18  27
ATOM     25  C   UNL     1      -2.567  12.786  20.397  0.00  0.00    +0.000 C 
ATOM     26  C   UNL     1      -1.454  12.089  21.093  0.00  0.00    +0.000 A 
ATOM     27  C   UNL     1      -0.193  11.706  20.660  0.00  0.00    +0.000 A 
ATOM     28  C   UNL     1       0.366  11.047  21.781  0.00  0.00    +0.000 A 
ATOM     29  N   UNL     1      -0.452  11.025  22.832  0.00  0.00    +0.000 NA
ATOM     30  N   UNL     1      -1.535  11.697  22.406  0.00  0.00    +0.000 N 
ATOM     31  C   UNL     1      -2.614  11.958  23.330  0.00  0.00    +0.000 C 
ENDBRANCH  18  27
ENDBRANCH  17  19
ENDBRANCH   1  17
TORSDOF 5
ENDMDL
MODEL 9
REMARK VINA RESULT:      -8.5      1.658      1.754
REMARK  Name = 
REMARK  8 active torsions:
REMARK  status: ('A' for Active; 'I' for Inactive)
REMARK    1  A    between atoms: C_1  and  C_2
REMARK    2  A    between atoms: C_3  and  C_4
REMARK    3  A    between atoms: C_5  and  C_6
REMARK    4  A    between atoms: C_6  and  N_7
REMARK    5  A    between atoms: C_8  and  C_10
REMARK    6  A    between atoms: C_17  and  O_18
REMARK    7  A    between atoms: N_24  and  C_25
REMARK    8  A    between atoms: N_28  and  C_29
REMARK                            x       y       z     vdW  Elec       q    Type
REMARK                         _______ _______ _______ _____ _____    ______ ____
ROOT
ATOM      1  N   UNL     1       1.884   8.146  19.759  0.00  0.00    +0.000 N 
ATOM      2  C   UNL     1       1.212   9.179  19.143  0.00  0.00    +0.000 C 
ATOM      3  O   UNL     1       1.033   9.233  17.929  0.00  0.00    +0.000 OA
ATOM      4  H   UNL     1       1.826   8.109  20.779  0.00  0.00    +0.000 HD
ENDROOT
BRANCH   2   5
ATOM      5  C   UNL     1       0.716  10.291  20.008  0.00  0.00    +0.000 A 
ATOM      6  C   UNL     1      -0.131   9.917  21.069  0.00  0.00    +0.000 A 
ATOM      7  C   UNL     1      -0.636  10.873  21.939  0.00  0.00    +0.000 A 
ATOM      8  C   UNL     1      -0.276  12.203  21.768  0.00  0.00    +0.000 A 
ATOM      9  C   UNL     1       0.581  12.585  20.723  0.00  0.00    +0.000 A 
ATOM     10  C   UNL     1       0.963  13.925  20.574  0.00  0.00    +0.000 A 
ATOM     11  C   UNL     1       1.816  14.298  19.546  0.00  0.00    +0.000 A 
ATOM     12  C   UNL     1       2.238  13.309  18.683  0.00  0.00    +0.000 A 
ATOM     13  N   UNL     1       1.891  12.017  18.786  0.00  0.00    +0.000 NA
ATOM     14  C   UNL     1       1.083  11.631  19.804  0.00  0.00    +0.000 A 
BRANCH  12  15
ATOM     15  O   UNL     1       3.066  13.588  17.638  0.00  0.00    +0.000 OA
ATOM     16  H   UNL     1       3.733  12.887  17.583  0.00  0.00    +0.000 HD
ENDBRANCH  12  15
ENDBRANCH   2   5
BRANCH   1  17
ATOM     17  C   UNL     1       2.343   6.978  19.036  0.00  0.00    +0.000 C 
BRANCH  17  19
ATOM     18  C   UNL     1       3.371   4.663  19.216  0.00  0.00    +0.000 C 
ATOM     19  C   UNL     1       2.869   5.896  19.974  0.00  0.00    +0.000 C 
ATOM     20  C   UNL     1       1.790   5.312  20.894  0.00  0.00    +0.000 C 
ATOM     21  C   UNL     1       2.237   3.885  21.107  0.00  0.00    +0.000 C 
ATOM     22  O   UNL     1       1.751   3.117  21.922  0.00  0.00    +0.000 OA
ATOM     23  N   UNL     1       3.237   3.600  20.191  0.00  0.00    +0.000 N 
ATOM     24  C   UNL     1       3.775   2.271  19.990  0.00  0.00    +0.000 C 
BRANCH  18  27
ATOM     25  C   UNL     1       4.577   4.087  16.152  0.00  0.00    +0.000 C 
ATOM     26  C   UNL     1       5.250   4.518  17.404  0.00  0.00    +0.000 A 
ATOM     27  C   UNL     1       4.756   4.771  18.675  0.00  0.00    +0.000 A 
ATOM     28  C   UNL     1       5.894   5.187  19.406  0.00  0.00    +0.000 A 
ATOM     29  N   UNL     1       7.008   5.186  18.677  0.00  0.00    +0.000 NA
ATOM     30  N   UNL     1       6.603   4.739  17.477  0.00  0.00    +0.000 N 
ATOM     31  C   UNL     1       7.581   4.515  16.438  0.00  0.00    +0.000 C 
ENDBRANCH  18  27
ENDBRANCH  17  19
ENDBRANCH   1  17
TORSDOF 5
ENDMDL
