MODEL 1
REMARK VINA RESULT:      -7.8      0.000      0.000
REMARK  Name = 
REMARK  4 active torsions:
REMARK  status: ('A' for Active; 'I' for Inactive)
REMARK    1  A    between atoms: C_2  and  C_3
REMARK    2  A    between atoms: N_15  and  C_16
REMARK    3  A    between atoms: C_16  and  C_17
REMARK    4  A    between atoms: C_17  and  C_18
REMARK                            x       y       z     vdW  Elec       q    Type
REMARK                         _______ _______ _______ _____ _____    ______ ____
ROOT
ATOM      1  O   UNL     1      -1.673  11.895  17.671  0.00  0.00    +0.000 OA
ATOM      2  C   UNL     1      -1.324  11.528  18.790  0.00  0.00    +0.000 C 
ATOM      3  N   UNL     1      -0.634  10.339  19.005  0.00  0.00    +0.000 N 
ATOM      4  C   UNL     1      -0.410   9.716  20.314  0.00  0.00    +0.000 C 
ATOM      5  C   UNL     1       1.094   9.716  20.658  0.00  0.00    +0.000 C 
ATOM      6  N   UNL     1       1.934   9.055  19.614  0.00  0.00    +0.000 NA
ATOM      7  C   UNL     1       1.650   9.718  18.313  0.00  0.00    +0.000 C 
ATOM      8  C   UNL     1       0.154   9.764  17.917  0.00  0.00    +0.000 C 
ENDROOT
BRANCH   2   9
ATOM      9  C   UNL     1      -1.601  12.345  19.982  0.00  0.00    +0.000 A 
ATOM     10  C   UNL     1      -0.692  13.095  20.704  0.00  0.00    +0.000 A 
ATOM     11  N   UNL     1      -1.418  13.660  21.707  0.00  0.00    +0.000 N 
ATOM     12  C   UNL     1      -2.708  13.226  21.612  0.00  0.00    +0.000 A 
ATOM     13  N   UNL     1      -2.852  12.426  20.581  0.00  0.00    +0.000 NA
ATOM     14  C   UNL     1      -3.743  13.659  22.585  0.00  0.00    +0.000 C 
ATOM     15  O   UNL     1      -3.103  13.964  23.834  0.00  0.00    +0.000 OA
ATOM     16  C   UNL     1      -2.078  14.954  23.696  0.00  0.00    +0.000 C 
ATOM     17  C   UNL     1      -0.939  14.492  22.784  0.00  0.00    +0.000 C 
ENDBRANCH   2   9
BRANCH   6  18
ATOM     18  C   UNL     1       1.630   7.614  19.608  0.00  0.00    +0.000 C 
BRANCH  18  19
ATOM     19  C   UNL     1       2.638   6.714  18.886  0.00  0.00    +0.000 C 
BRANCH  19  20
ATOM     20  C   UNL     1       2.440   5.206  19.194  0.00  0.00    +0.000 C 
ATOM     21  C   UNL     1       3.785   4.514  19.554  0.00  0.00    +0.000 C 
ATOM     22  C   UNL     1       3.566   3.031  19.888  0.00  0.00    +0.000 C 
ATOM     23  C   UNL     1       2.618   2.921  21.089  0.00  0.00    +0.000 C 
ATOM     24  C   UNL     1       1.268   3.576  20.756  0.00  0.00    +0.000 C 
ATOM     25  C   UNL     1       0.648   2.866  19.542  0.00  0.00    +0.000 C 
ATOM     26  C   UNL     1       1.585   2.978  18.330  0.00  0.00    +0.000 C 
ATOM     27  C   UNL     1       2.940   2.335  18.668  0.00  0.00    +0.000 C 
ATOM     28  C   UNL     1       1.802   4.461  17.994  0.00  0.00    +0.000 C 
ATOM     29  C   UNL     1       1.493   5.059  20.415  0.00  0.00    +0.000 C 
ENDBRANCH  19  20
ENDBRANCH  18  19
ENDBRANCH   6  18
TORSDOF 4
ENDMDL
MODEL 2
REMARK VINA RESULT:      -7.8      0.182      1.411
REMARK  Name = 
REMARK  4 active torsions:
REMARK  status: ('A' for Active; 'I' for Inactive)
REMARK    1  A    between atoms: C_2  and  C_3
REMARK    2  A    between atoms: N_15  and  C_16
REMARK    3  A    between atoms: C_16  and  C_17
REMARK    4  A    between atoms: C_17  and  C_18
REMARK                            x       y       z     vdW  Elec       q    Type
REMARK                         _______ _______ _______ _____ _____    ______ ____
ROOT
ATOM      1  O   UNL     1      -1.955  11.779  17.833  0.00  0.00    +0.000 OA
ATOM      2  C   UNL     1      -1.476  11.471  18.922  0.00  0.00    +0.000 C 
ATOM      3  N   UNL     1      -0.736  10.308  19.110  0.00  0.00    +0.000 N 
ATOM      4  C   UNL     1      -0.355   9.750  20.413  0.00  0.00    +0.000 C 
ATOM      5  C   UNL     1       1.177   9.798  20.588  0.00  0.00    +0.000 C 
ATOM      6  N   UNL     1       1.916   9.108  19.488  0.00  0.00    +0.000 NA
ATOM      7  C   UNL     1       1.474   9.705  18.199  0.00  0.00    +0.000 C 
ATOM      8  C   UNL     1      -0.056   9.701  17.969  0.00  0.00    +0.000 C 
ENDROOT
BRANCH   2   9
ATOM      9  C   UNL     1      -1.644  12.335  20.100  0.00  0.00    +0.000 A 
ATOM     10  C   UNL     1      -0.677  13.123  20.696  0.00  0.00    +0.000 A 
ATOM     11  N   UNL     1      -1.306  13.723  21.742  0.00  0.00    +0.000 N 
ATOM     12  C   UNL     1      -2.593  13.275  21.796  0.00  0.00    +0.000 A 
ATOM     13  N   UNL     1      -2.829  12.431  20.819  0.00  0.00    +0.000 NA
ATOM     14  C   UNL     1      -3.531  13.740  22.850  0.00  0.00    +0.000 C 
ATOM     15  O   UNL     1      -2.773  14.103  24.014  0.00  0.00    +0.000 OA
ATOM     16  C   UNL     1      -1.780  15.095  23.733  0.00  0.00    +0.000 C 
ATOM     17  C   UNL     1      -0.732  14.605  22.731  0.00  0.00    +0.000 C 
ENDBRANCH   2   9
BRANCH   6  18
ATOM     18  C   UNL     1       1.651   7.662  19.578  0.00  0.00    +0.000 C 
BRANCH  18  19
ATOM     19  C   UNL     1       2.662   6.746  18.881  0.00  0.00    +0.000 C 
BRANCH  19  20
ATOM     20  C   UNL     1       2.459   5.245  19.219  0.00  0.00    +0.000 C 
ATOM     21  C   UNL     1       1.500   5.056  20.427  0.00  0.00    +0.000 C 
ATOM     22  C   UNL     1       1.284   3.565  20.728  0.00  0.00    +0.000 C 
ATOM     23  C   UNL     1       0.666   2.889  19.497  0.00  0.00    +0.000 C 
ATOM     24  C   UNL     1       1.605   3.038  18.289  0.00  0.00    +0.000 C 
ATOM     25  C   UNL     1       2.956   2.382  18.614  0.00  0.00    +0.000 C 
ATOM     26  C   UNL     1       3.588   3.058  19.840  0.00  0.00    +0.000 C 
ATOM     27  C   UNL     1       2.643   2.921  21.045  0.00  0.00    +0.000 C 
ATOM     28  C   UNL     1       3.806   4.548  19.539  0.00  0.00    +0.000 C 
ATOM     29  C   UNL     1       1.824   4.532  17.996  0.00  0.00    +0.000 C 
ENDBRANCH  19  20
ENDBRANCH  18  19
ENDBRANCH   6  18
TORSDOF 4
ENDMDL
MODEL 3
REMARK VINA RESULT:      -7.8      0.680      1.796
REMARK  Name = 
REMARK  4 active torsions:
REMARK  status: ('A' for Active; 'I' for Inactive)
REMARK    1  A    between atoms: C_2  and  C_3
REMARK    2  A    between atoms: N_15  and  C_16
REMARK    3  A    between atoms: C_16  and  C_17
REMARK    4  A    between atoms: C_17  and  C_18
REMARK                            x       y       z     vdW  Elec       q    Type
REMARK                         _______ _______ _______ _____ _____    ______ ____
ROOT
ATOM      1  O   UNL     1      -1.821  11.787  17.658  0.00  0.00    +0.000 OA
ATOM      2  C   UNL     1      -1.456  11.472  18.789  0.00  0.00    +0.000 C 
ATOM      3  N   UNL     1      -0.733  10.311  19.043  0.00  0.00    +0.000 N 
ATOM      4  C   UNL     1      -0.485   9.744  20.373  0.00  0.00    +0.000 C 
ATOM      5  C   UNL     1       1.020   9.798  20.708  0.00  0.00    +0.000 C 
ATOM      6  N   UNL     1       1.873   9.121  19.685  0.00  0.00    +0.000 NA
ATOM      7  C   UNL     1       1.564   9.728  18.362  0.00  0.00    +0.000 C 
ATOM      8  C   UNL     1       0.066   9.717  17.973  0.00  0.00    +0.000 C 
ENDROOT
BRANCH   2   9
ATOM      9  C   UNL     1      -1.751  12.325  19.950  0.00  0.00    +0.000 A 
ATOM     10  C   UNL     1      -2.994  12.589  20.492  0.00  0.00    +0.000 A 
ATOM     11  N   UNL     1      -2.754  13.425  21.538  0.00  0.00    +0.000 N 
ATOM     12  C   UNL     1      -1.415  13.687  21.591  0.00  0.00    +0.000 A 
ATOM     13  N   UNL     1      -0.780  13.039  20.642  0.00  0.00    +0.000 NA
ATOM     14  C   UNL     1      -0.844  14.588  22.624  0.00  0.00    +0.000 C 
ATOM     15  O   UNL     1      -1.849  15.537  23.015  0.00  0.00    +0.000 OA
ATOM     16  C   UNL     1      -3.044  14.905  23.486  0.00  0.00    +0.000 C 
ATOM     17  C   UNL     1      -3.719  14.053  22.408  0.00  0.00    +0.000 C 
ENDBRANCH   2   9
BRANCH   6  18
ATOM     18  C   UNL     1       1.609   7.674  19.734  0.00  0.00    +0.000 C 
BRANCH  18  19
ATOM     19  C   UNL     1       2.592   6.781  18.969  0.00  0.00    +0.000 C 
BRANCH  19  20
ATOM     20  C   UNL     1       2.386   5.268  19.248  0.00  0.00    +0.000 C 
ATOM     21  C   UNL     1       1.815   4.530  18.005  0.00  0.00    +0.000 C 
ATOM     22  C   UNL     1       1.649   3.030  18.286  0.00  0.00    +0.000 C 
ATOM     23  C   UNL     1       3.018   2.429  18.630  0.00  0.00    +0.000 C 
ATOM     24  C   UNL     1       3.600   3.122  19.873  0.00  0.00    +0.000 C 
ATOM     25  C   UNL     1       2.639   2.928  21.056  0.00  0.00    +0.000 C 
ATOM     26  C   UNL     1       1.267   3.535  20.726  0.00  0.00    +0.000 C 
ATOM     27  C   UNL     1       0.691   2.851  19.475  0.00  0.00    +0.000 C 
ATOM     28  C   UNL     1       1.432   5.036  20.447  0.00  0.00    +0.000 C 
ATOM     29  C   UNL     1       3.757   4.626  19.589  0.00  0.00    +0.000 C 
ENDBRANCH  19  20
ENDBRANCH  18  19
ENDBRANCH   6  18
TORSDOF 4
ENDMDL
MODEL 4
REMARK VINA RESULT:      -7.7      0.407      1.457
REMARK  Name = 
REMARK  4 active torsions:
REMARK  status: ('A' for Active; 'I' for Inactive)
REMARK    1  A    between atoms: C_2  and  C_3
REMARK    2  A    between atoms: N_15  and  C_16
REMARK    3  A    between atoms: C_16  and  C_17
REMARK    4  A    between atoms: C_17  and  C_18
REMARK                            x       y       z     vdW  Elec       q    Type
REMARK                         _______ _______ _______ _____ _____    ______ ____
ROOT
ATOM      1  O   UNL     1      -1.289  12.230  18.027  0.00  0.00    +0.000 OA
ATOM      2  C   UNL     1      -1.110  11.694  19.118  0.00  0.00    +0.000 C 
ATOM      3  N   UNL     1      -0.509  10.445  19.246  0.00  0.00    +0.000 N 
ATOM      4  C   UNL     1      -0.491   9.637  20.470  0.00  0.00    +0.000 C 
ATOM      5  C   UNL     1       0.952   9.495  20.998  0.00  0.00    +0.000 C 
ATOM      6  N   UNL     1       1.893   8.930  19.986  0.00  0.00    +0.000 NA
ATOM      7  C   UNL     1       1.817   9.781  18.768  0.00  0.00    +0.000 C 
ATOM      8  C   UNL     1       0.391   9.974  18.196  0.00  0.00    +0.000 C 
ENDROOT
BRANCH   2   9
ATOM      9  C   UNL     1      -1.508  12.357  20.369  0.00  0.00    +0.000 A 
ATOM     10  C   UNL     1      -0.677  12.996  21.269  0.00  0.00    +0.000 A 
ATOM     11  N   UNL     1      -1.502  13.440  22.257  0.00  0.00    +0.000 N 
ATOM     12  C   UNL     1      -2.776  13.040  21.977  0.00  0.00    +0.000 A 
ATOM     13  N   UNL     1      -2.814  12.380  20.843  0.00  0.00    +0.000 NA
ATOM     14  C   UNL     1      -3.905  13.362  22.887  0.00  0.00    +0.000 C 
ATOM     15  O   UNL     1      -3.397  13.497  24.223  0.00  0.00    +0.000 OA
ATOM     16  C   UNL     1      -2.361  14.482  24.317  0.00  0.00    +0.000 C 
ATOM     17  C   UNL     1      -1.135  14.123  23.475  0.00  0.00    +0.000 C 
ENDBRANCH   2   9
BRANCH   6  18
ATOM     18  C   UNL     1       1.529   7.526  19.735  0.00  0.00    +0.000 C 
BRANCH  18  19
ATOM     19  C   UNL     1       2.599   6.659  19.063  0.00  0.00    +0.000 C 
BRANCH  19  20
ATOM     20  C   UNL     1       2.387   5.139  19.294  0.00  0.00    +0.000 C 
ATOM     21  C   UNL     1       1.795   4.446  18.034  0.00  0.00    +0.000 C 
ATOM     22  C   UNL     1       1.623   2.938  18.268  0.00  0.00    +0.000 C 
ATOM     23  C   UNL     1       2.992   2.318  18.574  0.00  0.00    +0.000 C 
ATOM     24  C   UNL     1       3.594   2.966  19.831  0.00  0.00    +0.000 C 
ATOM     25  C   UNL     1       2.647   2.738  21.020  0.00  0.00    +0.000 C 
ATOM     26  C   UNL     1       1.275   3.364  20.728  0.00  0.00    +0.000 C 
ATOM     27  C   UNL     1       0.679   2.726  19.463  0.00  0.00    +0.000 C 
ATOM     28  C   UNL     1       1.446   4.873  20.497  0.00  0.00    +0.000 C 
ATOM     29  C   UNL     1       3.758   4.478  19.596  0.00  0.00    +0.000 C 
ENDBRANCH  19  20
ENDBRANCH  18  19
ENDBRANCH   6  18
TORSDOF 4
ENDMDL
MODEL 5
REMARK VINA RESULT:      -7.7      0.970      1.950
REMARK  Name = 
REMARK  4 active torsions:
REMARK  status: ('A' for Active; 'I' for Inactive)
REMARK    1  A    between atoms: C_2  and  C_3
REMARK    2  A    between atoms: N_15  and  C_16
REMARK    3  A    between atoms: C_16  and  C_17
REMARK    4  A    between atoms: C_17  and  C_18
REMARK                            x       y       z     vdW  Elec       q    Type
REMARK                         _______ _______ _______ _____ _____    ______ ____
ROOT
ATOM      1  O   UNL     1      -2.034  11.295  17.139  0.00  0.00    +0.000 OA
ATOM      2  C   UNL     1      -1.622  11.196  18.292  0.00  0.00    +0.000 C 
ATOM      3  N   UNL     1      -0.796  10.154  18.702  0.00  0.00    +0.000 N 
ATOM      4  C   UNL     1      -0.474   9.829  20.096  0.00  0.00    +0.000 C 
ATOM      5  C   UNL     1       1.027  10.059  20.367  0.00  0.00    +0.000 C 
ATOM      6  N   UNL     1       1.914   9.299  19.436  0.00  0.00    +0.000 NA
ATOM      7  C   UNL     1       1.529   9.659  18.045  0.00  0.00    +0.000 C 
ATOM      8  C   UNL     1       0.029   9.464  17.713  0.00  0.00    +0.000 C 
ENDROOT
BRANCH   2   9
ATOM      9  C   UNL     1      -1.965  12.197  19.313  0.00  0.00    +0.000 A 
ATOM     10  C   UNL     1      -3.155  12.298  20.008  0.00  0.00    +0.000 A 
ATOM     11  N   UNL     1      -2.995  13.374  20.827  0.00  0.00    +0.000 N 
ATOM     12  C   UNL     1      -1.767  13.922  20.596  0.00  0.00    +0.000 A 
ATOM     13  N   UNL     1      -1.120  13.236  19.683  0.00  0.00    +0.000 NA
ATOM     14  C   UNL     1      -1.308  15.128  21.331  0.00  0.00    +0.000 C 
ATOM     15  O   UNL     1      -2.457  15.899  21.716  0.00  0.00    +0.000 OA
ATOM     16  C   UNL     1      -3.388  15.142  22.496  0.00  0.00    +0.000 C 
ATOM     17  C   UNL     1      -3.965  13.953  21.726  0.00  0.00    +0.000 C 
ENDBRANCH   2   9
BRANCH   6  18
ATOM     18  C   UNL     1       1.777   7.862  19.722  0.00  0.00    +0.000 C 
BRANCH  18  19
ATOM     19  C   UNL     1       2.594   6.916  18.836  0.00  0.00    +0.000 C 
BRANCH  19  20
ATOM     20  C   UNL     1       2.405   5.420  19.204  0.00  0.00    +0.000 C 
ATOM     21  C   UNL     1       1.422   5.244  20.396  0.00  0.00    +0.000 C 
ATOM     22  C   UNL     1       1.221   3.757  20.725  0.00  0.00    +0.000 C 
ATOM     23  C   UNL     1       0.639   3.045  19.498  0.00  0.00    +0.000 C 
ATOM     24  C   UNL     1       1.601   3.180  18.306  0.00  0.00    +0.000 C 
ATOM     25  C   UNL     1       2.954   2.551  18.675  0.00  0.00    +0.000 C 
ATOM     26  C   UNL     1       3.550   3.264  19.898  0.00  0.00    +0.000 C 
ATOM     27  C   UNL     1       2.582   3.141  21.086  0.00  0.00    +0.000 C 
ATOM     28  C   UNL     1       3.754   4.750  19.568  0.00  0.00    +0.000 C 
ATOM     29  C   UNL     1       1.806   4.671  17.984  0.00  0.00    +0.000 C 
ENDBRANCH  19  20
ENDBRANCH  18  19
ENDBRANCH   6  18
TORSDOF 4
ENDMDL
MODEL 6
REMARK VINA RESULT:      -7.7      0.707      1.148
REMARK  Name = 
REMARK  4 active torsions:
REMARK  status: ('A' for Active; 'I' for Inactive)
REMARK    1  A    between atoms: C_2  and  C_3
REMARK    2  A    between atoms: N_15  and  C_16
REMARK    3  A    between atoms: C_16  and  C_17
REMARK    4  A    between atoms: C_17  and  C_18
REMARK                            x       y       z     vdW  Elec       q    Type
REMARK                         _______ _______ _______ _____ _____    ______ ____
ROOT
ATOM      1  O   UNL     1      -1.899  11.648  17.599  0.00  0.00    +0.000 OA
ATOM      2  C   UNL     1      -1.529  11.385  18.741  0.00  0.00    +0.000 C 
ATOM      3  N   UNL     1      -0.758  10.265  19.037  0.00  0.00    +0.000 N 
ATOM      4  C   UNL     1      -0.495   9.752  20.386  0.00  0.00    +0.000 C 
ATOM      5  C   UNL     1       1.004   9.881  20.726  0.00  0.00    +0.000 C 
ATOM      6  N   UNL     1       1.891   9.209  19.730  0.00  0.00    +0.000 NA
ATOM      7  C   UNL     1       1.566   9.759  18.387  0.00  0.00    +0.000 C 
ATOM      8  C   UNL     1       0.072   9.672  17.991  0.00  0.00    +0.000 C 
ENDROOT
BRANCH   2   9
ATOM      9  C   UNL     1      -1.867  12.262  19.873  0.00  0.00    +0.000 A 
ATOM     10  C   UNL     1      -3.132  12.625  20.291  0.00  0.00    +0.000 A 
ATOM     11  N   UNL     1      -2.930  13.443  21.360  0.00  0.00    +0.000 N 
ATOM     12  C   UNL     1      -1.586  13.597  21.545  0.00  0.00    +0.000 A 
ATOM     13  N   UNL     1      -0.915  12.899  20.660  0.00  0.00    +0.000 NA
ATOM     14  C   UNL     1      -1.049  14.454  22.633  0.00  0.00    +0.000 C 
ATOM     15  O   UNL     1      -2.010  15.480  22.930  0.00  0.00    +0.000 OA
ATOM     16  C   UNL     1      -3.291  14.945  23.278  0.00  0.00    +0.000 C 
ATOM     17  C   UNL     1      -3.923  14.147  22.136  0.00  0.00    +0.000 C 
ENDBRANCH   2   9
BRANCH   6  18
ATOM     18  C   UNL     1       1.689   7.754  19.825  0.00  0.00    +0.000 C 
BRANCH  18  19
ATOM     19  C   UNL     1       2.643   6.884  19.001  0.00  0.00    +0.000 C 
BRANCH  19  20
ATOM     20  C   UNL     1       2.451   5.364  19.249  0.00  0.00    +0.000 C 
ATOM     21  C   UNL     1       3.797   4.666  19.592  0.00  0.00    +0.000 C 
ATOM     22  C   UNL     1       3.584   3.170  19.867  0.00  0.00    +0.000 C 
ATOM     23  C   UNL     1       2.629   3.008  21.056  0.00  0.00    +0.000 C 
ATOM     24  C   UNL     1       1.277   3.668  20.737  0.00  0.00    +0.000 C 
ATOM     25  C   UNL     1       0.670   3.002  19.493  0.00  0.00    +0.000 C 
ATOM     26  C   UNL     1       1.616   3.166  18.293  0.00  0.00    +0.000 C 
ATOM     27  C   UNL     1       2.972   2.518  18.617  0.00  0.00    +0.000 C 
ATOM     28  C   UNL     1       1.826   4.662  18.016  0.00  0.00    +0.000 C 
ATOM     29  C   UNL     1       1.496   5.165  20.455  0.00  0.00    +0.000 C 
ENDBRANCH  19  20
ENDBRANCH  18  19
ENDBRANCH   6  18
TORSDOF 4
ENDMDL
MODEL 7
REMARK VINA RESULT:      -7.6      0.844      1.863
REMARK  Name = 
REMARK  4 active torsions:
REMARK  status: ('A' for Active; 'I' for Inactive)
REMARK    1  A    between atoms: C_2  and  C_3
REMARK    2  A    between atoms: N_15  and  C_16
REMARK    3  A    between atoms: C_16  and  C_17
REMARK    4  A    between atoms: C_17  and  C_18
REMARK                            x       y       z     vdW  Elec       q    Type
REMARK                         _______ _______ _______ _____ _____    ______ ____
ROOT
ATOM      1  O   UNL     1      -2.288  11.839  18.315  0.00  0.00    +0.000 OA
ATOM      2  C   UNL     1      -1.636  11.511  19.303  0.00  0.00    +0.000 C 
ATOM      3  N   UNL     1      -0.872  10.349  19.342  0.00  0.00    +0.000 N 
ATOM      4  C   UNL     1      -0.280   9.766  20.551  0.00  0.00    +0.000 C 
ATOM      5  C   UNL     1       1.260   9.820  20.474  0.00  0.00    +0.000 C 
ATOM      6  N   UNL     1       1.809   9.158  19.253  0.00  0.00    +0.000 NA
ATOM      7  C   UNL     1       1.161   9.780  18.067  0.00  0.00    +0.000 C 
ATOM      8  C   UNL     1      -0.387   9.771  18.091  0.00  0.00    +0.000 C 
ENDROOT
BRANCH   2   9
ATOM      9  C   UNL     1      -1.610  12.349  20.512  0.00  0.00    +0.000 A 
ATOM     10  C   UNL     1      -2.579  12.416  21.496  0.00  0.00    +0.000 A 
ATOM     11  N   UNL     1      -2.108  13.326  22.392  0.00  0.00    +0.000 N 
ATOM     12  C   UNL     1      -0.920  13.817  21.936  0.00  0.00    +0.000 A 
ATOM     13  N   UNL     1      -0.592  13.250  20.798  0.00  0.00    +0.000 NA
ATOM     14  C   UNL     1      -0.167  14.848  22.695  0.00  0.00    +0.000 C 
ATOM     15  O   UNL     1      -1.097  15.624  23.467  0.00  0.00    +0.000 OA
ATOM     16  C   UNL     1      -1.890  14.814  24.343  0.00  0.00    +0.000 C 
ATOM     17  C   UNL     1      -2.763  13.813  23.583  0.00  0.00    +0.000 C 
ENDBRANCH   2   9
BRANCH   6  18
ATOM     18  C   UNL     1       1.567   7.710  19.352  0.00  0.00    +0.000 C 
BRANCH  18  19
ATOM     19  C   UNL     1       2.684   6.801  18.830  0.00  0.00    +0.000 C 
BRANCH  19  20
ATOM     20  C   UNL     1       2.476   5.306  19.196  0.00  0.00    +0.000 C 
ATOM     21  C   UNL     1       1.519   5.143  20.411  0.00  0.00    +0.000 C 
ATOM     22  C   UNL     1       1.298   3.659  20.739  0.00  0.00    +0.000 C 
ATOM     23  C   UNL     1       0.674   2.963  19.522  0.00  0.00    +0.000 C 
ATOM     24  C   UNL     1       1.610   3.086  18.309  0.00  0.00    +0.000 C 
ATOM     25  C   UNL     1       2.959   2.431  18.643  0.00  0.00    +0.000 C 
ATOM     26  C   UNL     1       3.597   3.127  19.854  0.00  0.00    +0.000 C 
ATOM     27  C   UNL     1       2.655   3.016  21.064  0.00  0.00    +0.000 C 
ATOM     28  C   UNL     1       3.821   4.610  19.526  0.00  0.00    +0.000 C 
ATOM     29  C   UNL     1       1.834   4.574  17.988  0.00  0.00    +0.000 C 
ENDBRANCH  19  20
ENDBRANCH  18  19
ENDBRANCH   6  18
TORSDOF 4
ENDMDL
MODEL 8
REMARK VINA RESULT:      -7.3      1.821      2.594
REMARK  Name = 
REMARK  4 active torsions:
REMARK  status: ('A' for Active; 'I' for Inactive)
REMARK    1  A    between atoms: C_2  and  C_3
REMARK    2  A    between atoms: N_15  and  C_16
REMARK    3  A    between atoms: C_16  and  C_17
REMARK    4  A    between atoms: C_17  and  C_18
REMARK                            x       y       z     vdW  Elec       q    Type
REMARK                         _______ _______ _______ _____ _____    ______ ____
ROOT
ATOM      1  O   UNL     1       0.410  13.215  21.104  0.00  0.00    +0.000 OA
ATOM      2  C   UNL     1      -0.345  12.254  21.233  0.00  0.00    +0.000 C 
ATOM      3  N   UNL     1       0.004  10.971  20.822  0.00  0.00    +0.000 N 
ATOM      4  C   UNL     1      -0.923   9.839  20.709  0.00  0.00    +0.000 C 
ATOM      5  C   UNL     1      -0.559   8.744  21.732  0.00  0.00    +0.000 C 
ATOM      6  N   UNL     1       0.855   8.275  21.612  0.00  0.00    +0.000 NA
ATOM      7  C   UNL     1       1.739   9.467  21.718  0.00  0.00    +0.000 C 
ATOM      8  C   UNL     1       1.416  10.609  20.725  0.00  0.00    +0.000 C 
ENDROOT
BRANCH   2   9
ATOM      9  C   UNL     1      -1.669  12.402  21.855  0.00  0.00    +0.000 A 
ATOM     10  C   UNL     1      -1.976  12.263  23.195  0.00  0.00    +0.000 A 
ATOM     11  N   UNL     1      -3.316  12.488  23.276  0.00  0.00    +0.000 N 
ATOM     12  C   UNL     1      -3.799  12.710  22.019  0.00  0.00    +0.000 A 
ATOM     13  N   UNL     1      -2.829  12.662  21.136  0.00  0.00    +0.000 NA
ATOM     14  C   UNL     1      -5.242  12.970  21.781  0.00  0.00    +0.000 C 
ATOM     15  O   UNL     1      -6.004  12.332  22.818  0.00  0.00    +0.000 OA
ATOM     16  C   UNL     1      -5.611  12.759  24.127  0.00  0.00    +0.000 C 
ATOM     17  C   UNL     1      -4.157  12.406  24.446  0.00  0.00    +0.000 C 
ENDBRANCH   2   9
BRANCH   6  18
ATOM     18  C   UNL     1       1.005   7.553  20.337  0.00  0.00    +0.000 C 
BRANCH  18  19
ATOM     19  C   UNL     1       2.402   7.003  20.034  0.00  0.00    +0.000 C 
BRANCH  19  20
ATOM     20  C   UNL     1       2.391   5.507  19.617  0.00  0.00    +0.000 C 
ATOM     21  C   UNL     1       1.986   5.332  18.126  0.00  0.00    +0.000 C 
ATOM     22  C   UNL     1       2.013   3.851  17.722  0.00  0.00    +0.000 C 
ATOM     23  C   UNL     1       3.433   3.302  17.915  0.00  0.00    +0.000 C 
ATOM     24  C   UNL     1       3.853   3.439  19.387  0.00  0.00    +0.000 C 
ATOM     25  C   UNL     1       2.872   2.652  20.268  0.00  0.00    +0.000 C 
ATOM     26  C   UNL     1       1.448   3.199  20.090  0.00  0.00    +0.000 C 
ATOM     27  C   UNL     1       1.032   3.075  18.615  0.00  0.00    +0.000 C 
ATOM     28  C   UNL     1       1.420   4.680  20.497  0.00  0.00    +0.000 C 
ATOM     29  C   UNL     1       3.818   4.924  19.790  0.00  0.00    +0.000 C 
ENDBRANCH  19  20
ENDBRANCH  18  19
ENDBRANCH   6  18
TORSDOF 4
ENDMDL
MODEL 9
REMARK VINA RESULT:      -7.3      1.362      2.152
REMARK  Name = 
REMARK  4 active torsions:
REMARK  status: ('A' for Active; 'I' for Inactive)
REMARK    1  A    between atoms: C_2  and  C_3
REMARK    2  A    between atoms: N_15  and  C_16
REMARK    3  A    between atoms: C_16  and  C_17
REMARK    4  A    between atoms: C_17  and  C_18
REMARK                            x       y       z     vdW  Elec       q    Type
REMARK                         _______ _______ _______ _____ _____    ______ ____
ROOT
ATOM      1  O   UNL     1      -0.788  13.090  18.051  0.00  0.00    +0.000 OA
ATOM      2  C   UNL     1      -1.158  12.220  18.835  0.00  0.00    +0.000 C 
ATOM      3  N   UNL     1      -0.550  10.970  18.905  0.00  0.00    +0.000 N 
ATOM      4  C   UNL     1      -1.086   9.808  19.622  0.00  0.00    +0.000 C 
ATOM      5  C   UNL     1      -0.164   9.433  20.801  0.00  0.00    +0.000 C 
ATOM      6  N   UNL     1       1.249   9.183  20.384  0.00  0.00    +0.000 NA
ATOM      7  C   UNL     1       1.726  10.387  19.652  0.00  0.00    +0.000 C 
ATOM      8  C   UNL     1       0.835  10.824  18.464  0.00  0.00    +0.000 C 
ENDROOT
BRANCH   2   9
ATOM      9  C   UNL     1      -2.267  12.458  19.771  0.00  0.00    +0.000 A 
ATOM     10  C   UNL     1      -2.168  12.857  21.091  0.00  0.00    +0.000 A 
ATOM     11  N   UNL     1      -3.452  12.936  21.534  0.00  0.00    +0.000 N 
ATOM     12  C   UNL     1      -4.288  12.554  20.525  0.00  0.00    +0.000 A 
ATOM     13  N   UNL     1      -3.602  12.255  19.446  0.00  0.00    +0.000 NA
ATOM     14  C   UNL     1      -5.761  12.519  20.712  0.00  0.00    +0.000 C 
ATOM     15  O   UNL     1      -6.044  12.288  22.101  0.00  0.00    +0.000 OA
ATOM     16  C   UNL     1      -5.438  13.266  22.953  0.00  0.00    +0.000 C 
ATOM     17  C   UNL     1      -3.911  13.252  22.865  0.00  0.00    +0.000 C 
ENDBRANCH   2   9
BRANCH   6  18
ATOM     18  C   UNL     1       1.290   7.956  19.572  0.00  0.00    +0.000 C 
BRANCH  18  19
ATOM     19  C   UNL     1       2.635   7.224  19.523  0.00  0.00    +0.000 C 
BRANCH  19  20
ATOM     20  C   UNL     1       2.488   5.683  19.418  0.00  0.00    +0.000 C 
ATOM     21  C   UNL     1       1.930   5.255  18.031  0.00  0.00    +0.000 C 
ATOM     22  C   UNL     1       1.821   3.726  17.932  0.00  0.00    +0.000 C 
ATOM     23  C   UNL     1       3.215   3.110  18.114  0.00  0.00    +0.000 C 
ATOM     24  C   UNL     1       3.785   3.496  19.488  0.00  0.00    +0.000 C 
ATOM     25  C   UNL     1       2.844   2.978  20.588  0.00  0.00    +0.000 C 
ATOM     26  C   UNL     1       1.448   3.596  20.421  0.00  0.00    +0.000 C 
ATOM     27  C   UNL     1       0.884   3.222  19.041  0.00  0.00    +0.000 C 
ATOM     28  C   UNL     1       1.555   5.125  20.523  0.00  0.00    +0.000 C 
ATOM     29  C   UNL     1       3.885   5.028  19.586  0.00  0.00    +0.000 C 
ENDBRANCH  19  20
ENDBRANCH  18  19
ENDBRANCH   6  18
TORSDOF 4
ENDMDL
