MODEL 1
REMARK VINA RESULT:      -9.1      0.000      0.000
REMARK  Name = 
REMARK  8 active torsions:
REMARK  status: ('A' for Active; 'I' for Inactive)
REMARK    1  A    between atoms: C_1  and  C_2
REMARK    2  A    between atoms: N_5  and  S_6
REMARK    3  A    between atoms: S_6  and  C_9
REMARK    4  A    between atoms: C_12  and  N_13
REMARK    5  A    between atoms: C_14  and  C_16
REMARK    6  A    between atoms: C_21  and  O_22
REMARK    7  A    between atoms: O_22  and  C_23
REMARK    8  A    between atoms: C_23  and  C_24
REMARK                            x       y       z     vdW  Elec       q    Type
REMARK                         _______ _______ _______ _____ _____    ______ ____
ROOT
ATOM      1  N   UNL     1       3.293   6.691  17.773  0.00  0.00    +0.000 N 
ATOM      2  C   UNL     1       4.443   5.970  18.108  0.00  0.00    +0.000 C 
ATOM      3  O   UNL     1       4.876   5.819  19.243  0.00  0.00    +0.000 OA
ATOM      4  H   UNL     1       2.970   6.651  16.817  0.00  0.00    +0.000 HD
ENDROOT
BRANCH   1   8
ATOM      5  C   UNL     1       1.022   9.223  20.285  0.00  0.00    +0.000 A 
ATOM      6  C   UNL     1       1.468   7.991  20.769  0.00  0.00    +0.000 A 
ATOM      7  C   UNL     1       2.209   7.137  19.940  0.00  0.00    +0.000 A 
ATOM      8  C   UNL     1       2.518   7.503  18.633  0.00  0.00    +0.000 A 
ATOM      9  C   UNL     1       2.074   8.747  18.156  0.00  0.00    +0.000 A 
ATOM     10  C   UNL     1       1.311   9.601  18.972  0.00  0.00    +0.000 A 
BRANCH   5  11
ATOM     11  S   UNL     1      -0.043  10.220  21.318  0.00  0.00    +0.000 S 
ATOM     12  O   UNL     1       0.776  11.266  21.898  0.00  0.00    +0.000 OA
ATOM     13  O   UNL     1      -0.798   9.315  22.170  0.00  0.00    +0.000 OA
BRANCH  11  18
ATOM     14  C   UNL     1      -0.129  15.606  18.726  0.00  0.00    +0.000 C 
ATOM     15  C   UNL     1      -0.584  14.354  19.358  0.00  0.00    +0.000 A 
ATOM     16  C   UNL     1      -0.280  13.031  19.169  0.00  0.00    +0.000 A 
ATOM     17  C   UNL     1      -1.062  12.355  20.122  0.00  0.00    +0.000 A 
ATOM     18  N   UNL     1      -1.098  10.978  20.260  0.00  0.00    +0.000 N 
ATOM     19  N   UNL     1      -1.847  13.191  20.804  0.00  0.00    +0.000 NA
ATOM     20  O   UNL     1      -1.512  14.462  20.349  0.00  0.00    +0.000 OA
ATOM     21  H   UNL     1      -2.000  10.516  20.192  0.00  0.00    +0.000 HD
ENDBRANCH  11  18
ENDBRANCH   5  11
ENDBRANCH   1   8
BRANCH   2  22
ATOM     22  C   UNL     1       5.145   5.324  16.945  0.00  0.00    +0.000 A 
ATOM     23  C   UNL     1       6.304   5.938  16.426  0.00  0.00    +0.000 A 
ATOM     24  C   UNL     1       7.059   5.321  15.431  0.00  0.00    +0.000 A 
ATOM     25  C   UNL     1       6.666   4.084  14.933  0.00  0.00    +0.000 A 
ATOM     26  C   UNL     1       5.490   3.493  15.395  0.00  0.00    +0.000 A 
ATOM     27  C   UNL     1       4.690   4.123  16.363  0.00  0.00    +0.000 A 
BRANCH  27  28
ATOM     28  O   UNL     1       3.496   3.575  16.775  0.00  0.00    +0.000 OA
BRANCH  28  29
ATOM     29  C   UNL     1       3.602   2.550  17.777  0.00  0.00    +0.000 C 
BRANCH  29  30
ATOM     30  C   UNL     1       2.835   2.882  19.038  0.00  0.00    +0.000 A 
ATOM     31  C   UNL     1       1.574   3.487  18.980  0.00  0.00    +0.000 A 
ATOM     32  C   UNL     1       0.846   3.722  20.149  0.00  0.00    +0.000 A 
ATOM     33  C   UNL     1       1.363   3.342  21.387  0.00  0.00    +0.000 A 
ATOM     34  C   UNL     1       2.608   2.723  21.459  0.00  0.00    +0.000 A 
ATOM     35  C   UNL     1       3.337   2.485  20.289  0.00  0.00    +0.000 A 
ENDBRANCH  29  30
ENDBRANCH  28  29
ENDBRANCH  27  28
ENDBRANCH   2  22
TORSDOF 7
ENDMDL
MODEL 2
REMARK VINA RESULT:      -9.1      1.300      1.543
REMARK  Name = 
REMARK  8 active torsions:
REMARK  status: ('A' for Active; 'I' for Inactive)
REMARK    1  A    between atoms: C_1  and  C_2
REMARK    2  A    between atoms: N_5  and  S_6
REMARK    3  A    between atoms: S_6  and  C_9
REMARK    4  A    between atoms: C_12  and  N_13
REMARK    5  A    between atoms: C_14  and  C_16
REMARK    6  A    between atoms: C_21  and  O_22
REMARK    7  A    between atoms: O_22  and  C_23
REMARK    8  A    between atoms: C_23  and  C_24
REMARK                            x       y       z     vdW  Elec       q    Type
REMARK                         _______ _______ _______ _____ _____    ______ ____
ROOT
ATOM      1  N   UNL     1       3.383   6.190  17.815  0.00  0.00    +0.000 N 
ATOM      2  C   UNL     1       4.732   5.830  17.889  0.00  0.00    +0.000 C 
ATOM      3  O   UNL     1       5.444   5.959  18.877  0.00  0.00    +0.000 OA
ATOM      4  H   UNL     1       2.868   5.931  16.985  0.00  0.00    +0.000 HD
ENDROOT
BRANCH   1   8
ATOM      5  C   UNL     1       1.207   8.439  20.659  0.00  0.00    +0.000 A 
ATOM      6  C   UNL     1       1.632   7.147  20.980  0.00  0.00    +0.000 A 
ATOM      7  C   UNL     1       2.341   6.387  20.039  0.00  0.00    +0.000 A 
ATOM      8  C   UNL     1       2.640   6.905  18.781  0.00  0.00    +0.000 A 
ATOM      9  C   UNL     1       2.216   8.207  18.469  0.00  0.00    +0.000 A 
ATOM     10  C   UNL     1       1.485   8.970  19.397  0.00  0.00    +0.000 A 
BRANCH   5  11
ATOM     11  S   UNL     1       0.180   9.322  21.824  0.00  0.00    +0.000 S 
ATOM     12  O   UNL     1       1.042   9.781  22.896  0.00  0.00    +0.000 OA
ATOM     13  O   UNL     1      -0.975   8.485  22.112  0.00  0.00    +0.000 OA
BRANCH  11  18
ATOM     14  C   UNL     1       2.695  14.623  20.680  0.00  0.00    +0.000 C 
ATOM     15  C   UNL     1       1.682  13.596  20.982  0.00  0.00    +0.000 A 
ATOM     16  C   UNL     1       1.398  12.360  20.460  0.00  0.00    +0.000 A 
ATOM     17  C   UNL     1       0.312  11.900  21.224  0.00  0.00    +0.000 A 
ATOM     18  N   UNL     1      -0.332  10.694  21.010  0.00  0.00    +0.000 N 
ATOM     19  N   UNL     1      -0.096  12.813  22.108  0.00  0.00    +0.000 NA
ATOM     20  O   UNL     1       0.800  13.869  21.983  0.00  0.00    +0.000 OA
ATOM     21  H   UNL     1      -1.333  10.711  20.842  0.00  0.00    +0.000 HD
ENDBRANCH  11  18
ENDBRANCH   5  11
ENDBRANCH   1   8
BRANCH   2  22
ATOM     22  C   UNL     1       5.291   5.211  16.638  0.00  0.00    +0.000 A 
ATOM     23  C   UNL     1       6.315   5.890  15.944  0.00  0.00    +0.000 A 
ATOM     24  C   UNL     1       6.950   5.306  14.850  0.00  0.00    +0.000 A 
ATOM     25  C   UNL     1       6.569   4.038  14.427  0.00  0.00    +0.000 A 
ATOM     26  C   UNL     1       5.518   3.380  15.067  0.00  0.00    +0.000 A 
ATOM     27  C   UNL     1       4.834   3.973  16.140  0.00  0.00    +0.000 A 
BRANCH  27  28
ATOM     28  O   UNL     1       3.755   3.357  16.733  0.00  0.00    +0.000 OA
BRANCH  28  29
ATOM     29  C   UNL     1       4.065   2.525  17.863  0.00  0.00    +0.000 C 
BRANCH  29  30
ATOM     30  C   UNL     1       3.043   2.639  18.973  0.00  0.00    +0.000 A 
ATOM     31  C   UNL     1       3.430   2.615  20.319  0.00  0.00    +0.000 A 
ATOM     32  C   UNL     1       2.484   2.793  21.331  0.00  0.00    +0.000 A 
ATOM     33  C   UNL     1       1.145   3.012  21.011  0.00  0.00    +0.000 A 
ATOM     34  C   UNL     1       0.749   3.057  19.678  0.00  0.00    +0.000 A 
ATOM     35  C   UNL     1       1.695   2.881  18.662  0.00  0.00    +0.000 A 
ENDBRANCH  29  30
ENDBRANCH  28  29
ENDBRANCH  27  28
ENDBRANCH   2  22
TORSDOF 7
ENDMDL
MODEL 3
REMARK VINA RESULT:      -9.1      1.772      2.204
REMARK  Name = 
REMARK  8 active torsions:
REMARK  status: ('A' for Active; 'I' for Inactive)
REMARK    1  A    between atoms: C_1  and  C_2
REMARK    2  A    between atoms: N_5  and  S_6
REMARK    3  A    between atoms: S_6  and  C_9
REMARK    4  A    between atoms: C_12  and  N_13
REMARK    5  A    between atoms: C_14  and  C_16
REMARK    6  A    between atoms: C_21  and  O_22
REMARK    7  A    between atoms: O_22  and  C_23
REMARK    8  A    between atoms: C_23  and  C_24
REMARK                            x       y       z     vdW  Elec       q    Type
REMARK                         _______ _______ _______ _____ _____    ______ ____
ROOT
ATOM      1  N   UNL     1       3.409   6.571  17.499  0.00  0.00    +0.000 N 
ATOM      2  C   UNL     1       4.774   6.587  17.197  0.00  0.00    +0.000 C 
ATOM      3  O   UNL     1       5.591   7.371  17.663  0.00  0.00    +0.000 OA
ATOM      4  H   UNL     1       2.853   5.807  17.142  0.00  0.00    +0.000 HD
ENDROOT
BRANCH   1   8
ATOM      5  C   UNL     1       1.326   9.535  19.680  0.00  0.00    +0.000 A 
ATOM      6  C   UNL     1       1.641   8.320  20.294  0.00  0.00    +0.000 A 
ATOM      7  C   UNL     1       2.318   7.325  19.576  0.00  0.00    +0.000 A 
ATOM      8  C   UNL     1       2.693   7.531  18.251  0.00  0.00    +0.000 A 
ATOM      9  C   UNL     1       2.380   8.757  17.642  0.00  0.00    +0.000 A 
ATOM     10  C   UNL     1       1.681   9.754  18.347  0.00  0.00    +0.000 A 
BRANCH   5  11
ATOM     11  S   UNL     1       0.334  10.721  20.576  0.00  0.00    +0.000 S 
ATOM     12  O   UNL     1       0.593  12.024  19.996  0.00  0.00    +0.000 OA
ATOM     13  O   UNL     1       0.548  10.488  21.996  0.00  0.00    +0.000 OA
BRANCH  11  18
ATOM     14  C   UNL     1      -2.732  10.445  15.452  0.00  0.00    +0.000 C 
ATOM     15  C   UNL     1      -2.407  10.662  16.873  0.00  0.00    +0.000 A 
ATOM     16  C   UNL     1      -1.749   9.920  17.820  0.00  0.00    +0.000 A 
ATOM     17  C   UNL     1      -1.777  10.724  18.973  0.00  0.00    +0.000 A 
ATOM     18  N   UNL     1      -1.254  10.344  20.196  0.00  0.00    +0.000 N 
ATOM     19  N   UNL     1      -2.464  11.851  18.776  0.00  0.00    +0.000 NA
ATOM     20  O   UNL     1      -2.827  11.830  17.434  0.00  0.00    +0.000 OA
ATOM     21  H   UNL     1      -1.872  10.351  21.002  0.00  0.00    +0.000 HD
ENDBRANCH  11  18
ENDBRANCH   5  11
ENDBRANCH   1   8
BRANCH   2  22
ATOM     22  C   UNL     1       5.223   5.515  16.244  0.00  0.00    +0.000 A 
ATOM     23  C   UNL     1       5.620   5.887  14.942  0.00  0.00    +0.000 A 
ATOM     24  C   UNL     1       6.157   4.951  14.060  0.00  0.00    +0.000 A 
ATOM     25  C   UNL     1       6.302   3.628  14.461  0.00  0.00    +0.000 A 
ATOM     26  C   UNL     1       5.859   3.234  15.725  0.00  0.00    +0.000 A 
ATOM     27  C   UNL     1       5.270   4.153  16.609  0.00  0.00    +0.000 A 
BRANCH  27  28
ATOM     28  O   UNL     1       4.773   3.758  17.831  0.00  0.00    +0.000 OA
BRANCH  28  29
ATOM     29  C   UNL     1       3.558   2.992  17.782  0.00  0.00    +0.000 C 
BRANCH  29  30
ATOM     30  C   UNL     1       2.777   3.051  19.076  0.00  0.00    +0.000 A 
ATOM     31  C   UNL     1       3.322   2.571  20.273  0.00  0.00    +0.000 A 
ATOM     32  C   UNL     1       2.618   2.697  21.473  0.00  0.00    +0.000 A 
ATOM     33  C   UNL     1       1.369   3.316  21.493  0.00  0.00    +0.000 A 
ATOM     34  C   UNL     1       0.823   3.816  20.315  0.00  0.00    +0.000 A 
ATOM     35  C   UNL     1       1.527   3.692  19.112  0.00  0.00    +0.000 A 
ENDBRANCH  29  30
ENDBRANCH  28  29
ENDBRANCH  27  28
ENDBRANCH   2  22
TORSDOF 7
ENDMDL
MODEL 4
REMARK VINA RESULT:      -9.1      2.686      9.704
REMARK  Name = 
REMARK  8 active torsions:
REMARK  status: ('A' for Active; 'I' for Inactive)
REMARK    1  A    between atoms: C_1  and  C_2
REMARK    2  A    between atoms: N_5  and  S_6
REMARK    3  A    between atoms: S_6  and  C_9
REMARK    4  A    between atoms: C_12  and  N_13
REMARK    5  A    between atoms: C_14  and  C_16
REMARK    6  A    between atoms: C_21  and  O_22
REMARK    7  A    between atoms: O_22  and  C_23
REMARK    8  A    between atoms: C_23  and  C_24
REMARK                            x       y       z     vdW  Elec       q    Type
REMARK                         _______ _______ _______ _____ _____    ______ ____
ROOT
ATOM      1  N   UNL     1       0.532   9.840  20.316  0.00  0.00    +0.000 N 
ATOM      2  C   UNL     1       0.485  10.273  21.644  0.00  0.00    +0.000 C 
ATOM      3  O   UNL     1       1.272   9.944  22.522  0.00  0.00    +0.000 OA
ATOM      4  H   UNL     1      -0.100  10.268  19.654  0.00  0.00    +0.000 HD
ENDROOT
BRANCH   1   8
ATOM      5  C   UNL     1       3.001   6.873  18.588  0.00  0.00    +0.000 A 
ATOM      6  C   UNL     1       2.493   6.684  19.877  0.00  0.00    +0.000 A 
ATOM      7  C   UNL     1       1.687   7.668  20.464  0.00  0.00    +0.000 A 
ATOM      8  C   UNL     1       1.372   8.838  19.778  0.00  0.00    +0.000 A 
ATOM      9  C   UNL     1       1.879   9.017  18.480  0.00  0.00    +0.000 A 
ATOM     10  C   UNL     1       2.708   8.046  17.889  0.00  0.00    +0.000 A 
BRANCH   5  11
ATOM     11  S   UNL     1       4.145   5.668  17.929  0.00  0.00    +0.000 S 
ATOM     12  O   UNL     1       3.357   4.618  17.315  0.00  0.00    +0.000 OA
ATOM     13  O   UNL     1       5.104   5.356  18.976  0.00  0.00    +0.000 OA
BRANCH  11  18
ATOM     14  C   UNL     1       6.824   3.801  12.921  0.00  0.00    +0.000 C 
ATOM     15  C   UNL     1       6.520   4.586  14.131  0.00  0.00    +0.000 A 
ATOM     16  C   UNL     1       5.372   5.132  14.645  0.00  0.00    +0.000 A 
ATOM     17  C   UNL     1       5.781   5.739  15.844  0.00  0.00    +0.000 A 
ATOM     18  N   UNL     1       4.939   6.453  16.679  0.00  0.00    +0.000 N 
ATOM     19  N   UNL     1       7.099   5.640  16.027  0.00  0.00    +0.000 NA
ATOM     20  O   UNL     1       7.560   4.872  14.963  0.00  0.00    +0.000 OA
ATOM     21  H   UNL     1       5.189   7.412  16.902  0.00  0.00    +0.000 HD
ENDBRANCH  11  18
ENDBRANCH   5  11
ENDBRANCH   1   8
BRANCH   2  22
ATOM     22  C   UNL     1      -0.621  11.243  21.953  0.00  0.00    +0.000 A 
ATOM     23  C   UNL     1      -1.427  11.015  23.088  0.00  0.00    +0.000 A 
ATOM     24  C   UNL     1      -2.385  11.945  23.488  0.00  0.00    +0.000 A 
ATOM     25  C   UNL     1      -2.559  13.114  22.757  0.00  0.00    +0.000 A 
ATOM     26  C   UNL     1      -1.810  13.326  21.599  0.00  0.00    +0.000 A 
ATOM     27  C   UNL     1      -0.874  12.378  21.154  0.00  0.00    +0.000 A 
BRANCH  27  28
ATOM     28  O   UNL     1      -0.179  12.551  19.977  0.00  0.00    +0.000 OA
BRANCH  28  29
ATOM     29  C   UNL     1      -0.975  12.932  18.843  0.00  0.00    +0.000 C 
BRANCH  29  30
ATOM     30  C   UNL     1      -1.828  11.798  18.319  0.00  0.00    +0.000 A 
ATOM     31  C   UNL     1      -3.217  11.794  18.499  0.00  0.00    +0.000 A 
ATOM     32  C   UNL     1      -4.000  10.777  17.947  0.00  0.00    +0.000 A 
ATOM     33  C   UNL     1      -3.407   9.762  17.198  0.00  0.00    +0.000 A 
ATOM     34  C   UNL     1      -2.030   9.763  16.994  0.00  0.00    +0.000 A 
ATOM     35  C   UNL     1      -1.245  10.782  17.544  0.00  0.00    +0.000 A 
ENDBRANCH  29  30
ENDBRANCH  28  29
ENDBRANCH  27  28
ENDBRANCH   2  22
TORSDOF 7
ENDMDL
MODEL 5
REMARK VINA RESULT:      -9.0      1.597      2.105
REMARK  Name = 
REMARK  8 active torsions:
REMARK  status: ('A' for Active; 'I' for Inactive)
REMARK    1  A    between atoms: C_1  and  C_2
REMARK    2  A    between atoms: N_5  and  S_6
REMARK    3  A    between atoms: S_6  and  C_9
REMARK    4  A    between atoms: C_12  and  N_13
REMARK    5  A    between atoms: C_14  and  C_16
REMARK    6  A    between atoms: C_21  and  O_22
REMARK    7  A    between atoms: O_22  and  C_23
REMARK    8  A    between atoms: C_23  and  C_24
REMARK                            x       y       z     vdW  Elec       q    Type
REMARK                         _______ _______ _______ _____ _____    ______ ____
ROOT
ATOM      1  N   UNL     1       3.361   6.535  17.547  0.00  0.00    +0.000 N 
ATOM      2  C   UNL     1       4.713   6.609  17.200  0.00  0.00    +0.000 C 
ATOM      3  O   UNL     1       5.509   7.432  17.633  0.00  0.00    +0.000 OA
ATOM      4  H   UNL     1       2.828   5.744  17.214  0.00  0.00    +0.000 HD
ENDROOT
BRANCH   1   8
ATOM      5  C   UNL     1       1.222   9.421  19.779  0.00  0.00    +0.000 A 
ATOM      6  C   UNL     1       1.603   8.221  20.387  0.00  0.00    +0.000 A 
ATOM      7  C   UNL     1       2.299   7.252  19.652  0.00  0.00    +0.000 A 
ATOM      8  C   UNL     1       2.629   7.468  18.316  0.00  0.00    +0.000 A 
ATOM      9  C   UNL     1       2.250   8.679  17.714  0.00  0.00    +0.000 A 
ATOM     10  C   UNL     1       1.532   9.649  18.436  0.00  0.00    +0.000 A 
BRANCH   5  11
ATOM     11  S   UNL     1       0.209  10.569  20.700  0.00  0.00    +0.000 S 
ATOM     12  O   UNL     1       1.088  11.296  21.595  0.00  0.00    +0.000 OA
ATOM     13  O   UNL     1      -0.928   9.829  21.222  0.00  0.00    +0.000 OA
BRANCH  11  18
ATOM     14  C   UNL     1      -5.206  12.049  18.646  0.00  0.00    +0.000 C 
ATOM     15  C   UNL     1      -3.757  11.787  18.695  0.00  0.00    +0.000 A 
ATOM     16  C   UNL     1      -2.756  12.146  19.561  0.00  0.00    +0.000 A 
ATOM     17  C   UNL     1      -1.603  11.544  19.029  0.00  0.00    +0.000 A 
ATOM     18  N   UNL     1      -0.336  11.680  19.570  0.00  0.00    +0.000 N 
ATOM     19  N   UNL     1      -1.855  10.917  17.878  0.00  0.00    +0.000 NA
ATOM     20  O   UNL     1      -3.228  11.035  17.690  0.00  0.00    +0.000 OA
ATOM     21  H   UNL     1       0.401  12.040  18.972  0.00  0.00    +0.000 HD
ENDBRANCH  11  18
ENDBRANCH   5  11
ENDBRANCH   1   8
BRANCH   2  22
ATOM     22  C   UNL     1       5.177   5.550  16.239  0.00  0.00    +0.000 A 
ATOM     23  C   UNL     1       5.524   5.930  14.925  0.00  0.00    +0.000 A 
ATOM     24  C   UNL     1       6.073   5.012  14.032  0.00  0.00    +0.000 A 
ATOM     25  C   UNL     1       6.279   3.697  14.435  0.00  0.00    +0.000 A 
ATOM     26  C   UNL     1       5.887   3.293  15.711  0.00  0.00    +0.000 A 
ATOM     27  C   UNL     1       5.287   4.193  16.608  0.00  0.00    +0.000 A 
BRANCH  27  28
ATOM     28  O   UNL     1       4.839   3.784  17.844  0.00  0.00    +0.000 OA
BRANCH  28  29
ATOM     29  C   UNL     1       3.724   2.879  17.826  0.00  0.00    +0.000 C 
BRANCH  29  30
ATOM     30  C   UNL     1       2.868   2.979  19.069  0.00  0.00    +0.000 A 
ATOM     31  C   UNL     1       3.338   2.532  20.310  0.00  0.00    +0.000 A 
ATOM     32  C   UNL     1       2.565   2.697  21.462  0.00  0.00    +0.000 A 
ATOM     33  C   UNL     1       1.321   3.322  21.390  0.00  0.00    +0.000 A 
ATOM     34  C   UNL     1       0.849   3.789  20.167  0.00  0.00    +0.000 A 
ATOM     35  C   UNL     1       1.622   3.626  19.012  0.00  0.00    +0.000 A 
ENDBRANCH  29  30
ENDBRANCH  28  29
ENDBRANCH  27  28
ENDBRANCH   2  22
TORSDOF 7
ENDMDL
MODEL 6
REMARK VINA RESULT:      -8.9      2.311      2.778
REMARK  Name = 
REMARK  8 active torsions:
REMARK  status: ('A' for Active; 'I' for Inactive)
REMARK    1  A    between atoms: C_1  and  C_2
REMARK    2  A    between atoms: N_5  and  S_6
REMARK    3  A    between atoms: S_6  and  C_9
REMARK    4  A    between atoms: C_12  and  N_13
REMARK    5  A    between atoms: C_14  and  C_16
REMARK    6  A    between atoms: C_21  and  O_22
REMARK    7  A    between atoms: O_22  and  C_23
REMARK    8  A    between atoms: C_23  and  C_24
REMARK                            x       y       z     vdW  Elec       q    Type
REMARK                         _______ _______ _______ _____ _____    ______ ____
ROOT
ATOM      1  N   UNL     1       3.578   7.440  17.881  0.00  0.00    +0.000 N 
ATOM      2  C   UNL     1       3.461   6.100  17.503  0.00  0.00    +0.000 C 
ATOM      3  O   UNL     1       2.411   5.474  17.434  0.00  0.00    +0.000 OA
ATOM      4  H   UNL     1       4.482   7.882  17.791  0.00  0.00    +0.000 HD
ENDROOT
BRANCH   1   8
ATOM      5  C   UNL     1       0.578  10.017  19.380  0.00  0.00    +0.000 A 
ATOM      6  C   UNL     1       0.986   8.917  20.140  0.00  0.00    +0.000 A 
ATOM      7  C   UNL     1       1.969   8.048  19.646  0.00  0.00    +0.000 A 
ATOM      8  C   UNL     1       2.558   8.268  18.404  0.00  0.00    +0.000 A 
ATOM      9  C   UNL     1       2.148   9.379  17.649  0.00  0.00    +0.000 A 
ATOM     10  C   UNL     1       1.147  10.245  18.125  0.00  0.00    +0.000 A 
BRANCH   5  11
ATOM     11  S   UNL     1      -0.779  11.017  19.973  0.00  0.00    +0.000 S 
ATOM     12  O   UNL     1      -0.687  12.303  19.310  0.00  0.00    +0.000 OA
ATOM     13  O   UNL     1      -0.784  10.933  21.425  0.00  0.00    +0.000 OA
BRANCH  11  18
ATOM     14  C   UNL     1      -2.972  10.162  14.478  0.00  0.00    +0.000 C 
ATOM     15  C   UNL     1      -2.903  10.408  15.929  0.00  0.00    +0.000 A 
ATOM     16  C   UNL     1      -2.217   9.820  16.960  0.00  0.00    +0.000 A 
ATOM     17  C   UNL     1      -2.593  10.558  18.095  0.00  0.00    +0.000 A 
ATOM     18  N   UNL     1      -2.162  10.279  19.380  0.00  0.00    +0.000 N 
ATOM     19  N   UNL     1      -3.501  11.491  17.803  0.00  0.00    +0.000 NA
ATOM     20  O   UNL     1      -3.665  11.424  16.423  0.00  0.00    +0.000 OA
ATOM     21  H   UNL     1      -2.865  10.113  20.094  0.00  0.00    +0.000 HD
ENDBRANCH  11  18
ENDBRANCH   5  11
ENDBRANCH   1   8
BRANCH   2  22
ATOM     22  C   UNL     1       4.757   5.433  17.132  0.00  0.00    +0.000 A 
ATOM     23  C   UNL     1       5.110   5.349  15.769  0.00  0.00    +0.000 A 
ATOM     24  C   UNL     1       6.352   4.850  15.378  0.00  0.00    +0.000 A 
ATOM     25  C   UNL     1       7.258   4.422  16.342  0.00  0.00    +0.000 A 
ATOM     26  C   UNL     1       6.899   4.446  17.690  0.00  0.00    +0.000 A 
ATOM     27  C   UNL     1       5.634   4.899  18.099  0.00  0.00    +0.000 A 
BRANCH  27  28
ATOM     28  O   UNL     1       5.251   4.864  19.421  0.00  0.00    +0.000 OA
BRANCH  28  29
ATOM     29  C   UNL     1       4.871   3.569  19.918  0.00  0.00    +0.000 C 
BRANCH  29  30
ATOM     30  C   UNL     1       3.378   3.337  19.866  0.00  0.00    +0.000 A 
ATOM     31  C   UNL     1       2.502   4.079  20.668  0.00  0.00    +0.000 A 
ATOM     32  C   UNL     1       1.120   3.905  20.558  0.00  0.00    +0.000 A 
ATOM     33  C   UNL     1       0.598   2.998  19.637  0.00  0.00    +0.000 A 
ATOM     34  C   UNL     1       1.455   2.268  18.820  0.00  0.00    +0.000 A 
ATOM     35  C   UNL     1       2.839   2.442  18.927  0.00  0.00    +0.000 A 
ENDBRANCH  29  30
ENDBRANCH  28  29
ENDBRANCH  27  28
ENDBRANCH   2  22
TORSDOF 7
ENDMDL
MODEL 7
REMARK VINA RESULT:      -8.9      1.346      1.663
REMARK  Name = 
REMARK  8 active torsions:
REMARK  status: ('A' for Active; 'I' for Inactive)
REMARK    1  A    between atoms: C_1  and  C_2
REMARK    2  A    between atoms: N_5  and  S_6
REMARK    3  A    between atoms: S_6  and  C_9
REMARK    4  A    between atoms: C_12  and  N_13
REMARK    5  A    between atoms: C_14  and  C_16
REMARK    6  A    between atoms: C_21  and  O_22
REMARK    7  A    between atoms: O_22  and  C_23
REMARK    8  A    between atoms: C_23  and  C_24
REMARK                            x       y       z     vdW  Elec       q    Type
REMARK                         _______ _______ _______ _____ _____    ______ ____
ROOT
ATOM      1  N   UNL     1       3.303   6.474  17.616  0.00  0.00    +0.000 N 
ATOM      2  C   UNL     1       4.646   6.607  17.255  0.00  0.00    +0.000 C 
ATOM      3  O   UNL     1       5.410   7.464  17.681  0.00  0.00    +0.000 OA
ATOM      4  H   UNL     1       2.801   5.661  17.288  0.00  0.00    +0.000 HD
ENDROOT
BRANCH   1   8
ATOM      5  C   UNL     1       1.056   9.265  19.862  0.00  0.00    +0.000 A 
ATOM      6  C   UNL     1       1.550   8.116  20.485  0.00  0.00    +0.000 A 
ATOM      7  C   UNL     1       2.283   7.177  19.746  0.00  0.00    +0.000 A 
ATOM      8  C   UNL     1       2.538   7.375  18.392  0.00  0.00    +0.000 A 
ATOM      9  C   UNL     1       2.045   8.537  17.774  0.00  0.00    +0.000 A 
ATOM     10  C   UNL     1       1.289   9.475  18.501  0.00  0.00    +0.000 A 
BRANCH   5  11
ATOM     11  S   UNL     1       0.002  10.366  20.796  0.00  0.00    +0.000 S 
ATOM     12  O   UNL     1      -0.211   9.757  22.095  0.00  0.00    +0.000 OA
ATOM     13  O   UNL     1      -1.128  10.714  19.949  0.00  0.00    +0.000 OA
BRANCH  11  18
ATOM     14  C   UNL     1      -0.234  15.969  18.728  0.00  0.00    +0.000 C 
ATOM     15  C   UNL     1       0.296  14.687  19.225  0.00  0.00    +0.000 A 
ATOM     16  C   UNL     1      -0.022  13.875  20.282  0.00  0.00    +0.000 A 
ATOM     17  C   UNL     1       0.867  12.792  20.169  0.00  0.00    +0.000 A 
ATOM     18  N   UNL     1       0.925  11.738  21.065  0.00  0.00    +0.000 N 
ATOM     19  N   UNL     1       1.722  12.954  19.158  0.00  0.00    +0.000 NA
ATOM     20  O   UNL     1       1.332  14.134  18.534  0.00  0.00    +0.000 OA
ATOM     21  H   UNL     1       1.815  11.542  21.514  0.00  0.00    +0.000 HD
ENDBRANCH  11  18
ENDBRANCH   5  11
ENDBRANCH   1   8
BRANCH   2  22
ATOM     22  C   UNL     1       5.147   5.568  16.290  0.00  0.00    +0.000 A 
ATOM     23  C   UNL     1       5.493   5.968  14.982  0.00  0.00    +0.000 A 
ATOM     24  C   UNL     1       6.075   5.072  14.087  0.00  0.00    +0.000 A 
ATOM     25  C   UNL     1       6.314   3.761  14.482  0.00  0.00    +0.000 A 
ATOM     26  C   UNL     1       5.924   3.336  15.752  0.00  0.00    +0.000 A 
ATOM     27  C   UNL     1       5.292   4.212  16.650  0.00  0.00    +0.000 A 
BRANCH  27  28
ATOM     28  O   UNL     1       4.846   3.782  17.880  0.00  0.00    +0.000 OA
BRANCH  28  29
ATOM     29  C   UNL     1       3.732   2.876  17.848  0.00  0.00    +0.000 C 
BRANCH  29  30
ATOM     30  C   UNL     1       2.868   2.966  19.087  0.00  0.00    +0.000 A 
ATOM     31  C   UNL     1       3.353   2.564  20.338  0.00  0.00    +0.000 A 
ATOM     32  C   UNL     1       2.570   2.719  21.484  0.00  0.00    +0.000 A 
ATOM     33  C   UNL     1       1.301   3.290  21.397  0.00  0.00    +0.000 A 
ATOM     34  C   UNL     1       0.814   3.712  20.163  0.00  0.00    +0.000 A 
ATOM     35  C   UNL     1       1.597   3.559  19.014  0.00  0.00    +0.000 A 
ENDBRANCH  29  30
ENDBRANCH  28  29
ENDBRANCH  27  28
ENDBRANCH   2  22
TORSDOF 7
ENDMDL
MODEL 8
REMARK VINA RESULT:      -8.9      1.366      1.631
REMARK  Name = 
REMARK  8 active torsions:
REMARK  status: ('A' for Active; 'I' for Inactive)
REMARK    1  A    between atoms: C_1  and  C_2
REMARK    2  A    between atoms: N_5  and  S_6
REMARK    3  A    between atoms: S_6  and  C_9
REMARK    4  A    between atoms: C_12  and  N_13
REMARK    5  A    between atoms: C_14  and  C_16
REMARK    6  A    between atoms: C_21  and  O_22
REMARK    7  A    between atoms: O_22  and  C_23
REMARK    8  A    between atoms: C_23  and  C_24
REMARK                            x       y       z     vdW  Elec       q    Type
REMARK                         _______ _______ _______ _____ _____    ______ ____
ROOT
ATOM      1  N   UNL     1       3.307   6.221  18.057  0.00  0.00    +0.000 N 
ATOM      2  C   UNL     1       4.637   5.808  18.178  0.00  0.00    +0.000 C 
ATOM      3  O   UNL     1       5.311   5.886  19.198  0.00  0.00    +0.000 OA
ATOM      4  H   UNL     1       2.818   6.001  17.201  0.00  0.00    +0.000 HD
ENDROOT
BRANCH   1   8
ATOM      5  C   UNL     1       1.100   8.484  20.866  0.00  0.00    +0.000 A 
ATOM      6  C   UNL     1       1.442   7.161  21.162  0.00  0.00    +0.000 A 
ATOM      7  C   UNL     1       2.160   6.397  20.232  0.00  0.00    +0.000 A 
ATOM      8  C   UNL     1       2.551   6.941  19.010  0.00  0.00    +0.000 A 
ATOM      9  C   UNL     1       2.210   8.273  18.724  0.00  0.00    +0.000 A 
ATOM     10  C   UNL     1       1.470   9.041  19.641  0.00  0.00    +0.000 A 
BRANCH   5  11
ATOM     11  S   UNL     1       0.058   9.379  22.009  0.00  0.00    +0.000 S 
ATOM     12  O   UNL     1       0.925   9.956  23.019  0.00  0.00    +0.000 OA
ATOM     13  O   UNL     1      -1.034   8.497  22.390  0.00  0.00    +0.000 OA
BRANCH  11  18
ATOM     14  C   UNL     1      -0.719  15.191  23.175  0.00  0.00    +0.000 C 
ATOM     15  C   UNL     1      -0.933  13.835  22.640  0.00  0.00    +0.000 A 
ATOM     16  C   UNL     1      -0.123  12.921  22.016  0.00  0.00    +0.000 A 
ATOM     17  C   UNL     1      -0.960  11.816  21.782  0.00  0.00    +0.000 A 
ATOM     18  N   UNL     1      -0.560  10.664  21.129  0.00  0.00    +0.000 N 
ATOM     19  N   UNL     1      -2.216  12.053  22.168  0.00  0.00    +0.000 NA
ATOM     20  O   UNL     1      -2.188  13.316  22.750  0.00  0.00    +0.000 OA
ATOM     21  H   UNL     1      -1.085  10.373  20.310  0.00  0.00    +0.000 HD
ENDBRANCH  11  18
ENDBRANCH   5  11
ENDBRANCH   1   8
BRANCH   2  22
ATOM     22  C   UNL     1       5.225   5.198  16.936  0.00  0.00    +0.000 A 
ATOM     23  C   UNL     1       6.381   5.780  16.375  0.00  0.00    +0.000 A 
ATOM     24  C   UNL     1       7.035   5.186  15.298  0.00  0.00    +0.000 A 
ATOM     25  C   UNL     1       6.541   4.003  14.759  0.00  0.00    +0.000 A 
ATOM     26  C   UNL     1       5.366   3.448  15.265  0.00  0.00    +0.000 A 
ATOM     27  C   UNL     1       4.667   4.059  16.319  0.00  0.00    +0.000 A 
BRANCH  27  28
ATOM     28  O   UNL     1       3.472   3.551  16.779  0.00  0.00    +0.000 OA
BRANCH  28  29
ATOM     29  C   UNL     1       3.582   2.397  17.629  0.00  0.00    +0.000 C 
BRANCH  29  30
ATOM     30  C   UNL     1       2.793   2.538  18.913  0.00  0.00    +0.000 A 
ATOM     31  C   UNL     1       3.438   2.618  20.153  0.00  0.00    +0.000 A 
ATOM     32  C   UNL     1       2.702   2.821  21.323  0.00  0.00    +0.000 A 
ATOM     33  C   UNL     1       1.316   2.960  21.265  0.00  0.00    +0.000 A 
ATOM     34  C   UNL     1       0.663   2.902  20.038  0.00  0.00    +0.000 A 
ATOM     35  C   UNL     1       1.399   2.701  18.865  0.00  0.00    +0.000 A 
ENDBRANCH  29  30
ENDBRANCH  28  29
ENDBRANCH  27  28
ENDBRANCH   2  22
TORSDOF 7
ENDMDL
MODEL 9
REMARK VINA RESULT:      -8.8      0.598      1.327
REMARK  Name = 
REMARK  8 active torsions:
REMARK  status: ('A' for Active; 'I' for Inactive)
REMARK    1  A    between atoms: C_1  and  C_2
REMARK    2  A    between atoms: N_5  and  S_6
REMARK    3  A    between atoms: S_6  and  C_9
REMARK    4  A    between atoms: C_12  and  N_13
REMARK    5  A    between atoms: C_14  and  C_16
REMARK    6  A    between atoms: C_21  and  O_22
REMARK    7  A    between atoms: O_22  and  C_23
REMARK    8  A    between atoms: C_23  and  C_24
REMARK                            x       y       z     vdW  Elec       q    Type
REMARK                         _______ _______ _______ _____ _____    ______ ____
ROOT
ATOM      1  N   UNL     1       3.390   6.490  17.524  0.00  0.00    +0.000 N 
ATOM      2  C   UNL     1       4.768   6.523  17.295  0.00  0.00    +0.000 C 
ATOM      3  O   UNL     1       5.565   7.241  17.885  0.00  0.00    +0.000 OA
ATOM      4  H   UNL     1       2.848   5.776  17.058  0.00  0.00    +0.000 HD
ENDROOT
BRANCH   1   8
ATOM      5  C   UNL     1       1.111   9.018  20.034  0.00  0.00    +0.000 A 
ATOM      6  C   UNL     1       1.356   9.397  18.711  0.00  0.00    +0.000 A 
ATOM      7  C   UNL     1       2.123   8.574  17.875  0.00  0.00    +0.000 A 
ATOM      8  C   UNL     1       2.643   7.369  18.341  0.00  0.00    +0.000 A 
ATOM      9  C   UNL     1       2.386   6.991  19.669  0.00  0.00    +0.000 A 
ATOM     10  C   UNL     1       1.637   7.820  20.523  0.00  0.00    +0.000 A 
BRANCH   5  11
ATOM     11  S   UNL     1       0.258  10.159  21.113  0.00  0.00    +0.000 S 
ATOM     12  O   UNL     1       1.212  11.179  21.502  0.00  0.00    +0.000 OA
ATOM     13  O   UNL     1      -0.436   9.373  22.121  0.00  0.00    +0.000 OA
BRANCH  11  18
ATOM     14  C   UNL     1      -0.100  15.608  18.680  0.00  0.00    +0.000 C 
ATOM     15  C   UNL     1      -0.489  14.330  19.303  0.00  0.00    +0.000 A 
ATOM     16  C   UNL     1      -0.169  13.020  19.060  0.00  0.00    +0.000 A 
ATOM     17  C   UNL     1      -0.877  12.301  20.039  0.00  0.00    +0.000 A 
ATOM     18  N   UNL     1      -0.875  10.921  20.141  0.00  0.00    +0.000 N 
ATOM     19  N   UNL     1      -1.637  13.100  20.790  0.00  0.00    +0.000 NA
ATOM     20  O   UNL     1      -1.358  14.390  20.350  0.00  0.00    +0.000 OA
ATOM     21  H   UNL     1      -1.769  10.440  20.114  0.00  0.00    +0.000 HD
ENDBRANCH  11  18
ENDBRANCH   5  11
ENDBRANCH   1   8
BRANCH   2  22
ATOM     22  C   UNL     1       5.258   5.557  16.252  0.00  0.00    +0.000 A 
ATOM     23  C   UNL     1       6.225   5.995  15.322  0.00  0.00    +0.000 A 
ATOM     24  C   UNL     1       6.800   5.109  14.413  0.00  0.00    +0.000 A 
ATOM     25  C   UNL     1       6.416   3.773  14.414  0.00  0.00    +0.000 A 
ATOM     26  C   UNL     1       5.420   3.338  15.289  0.00  0.00    +0.000 A 
ATOM     27  C   UNL     1       4.794   4.227  16.179  0.00  0.00    +0.000 A 
BRANCH  27  28
ATOM     28  O   UNL     1       3.766   3.818  16.998  0.00  0.00    +0.000 OA
BRANCH  28  29
ATOM     29  C   UNL     1       4.157   3.012  18.121  0.00  0.00    +0.000 C 
BRANCH  29  30
ATOM     30  C   UNL     1       3.118   2.993  19.220  0.00  0.00    +0.000 A 
ATOM     31  C   UNL     1       3.453   2.621  20.528  0.00  0.00    +0.000 A 
ATOM     32  C   UNL     1       2.500   2.677  21.547  0.00  0.00    +0.000 A 
ATOM     33  C   UNL     1       1.206   3.118  21.275  0.00  0.00    +0.000 A 
ATOM     34  C   UNL     1       0.863   3.509  19.984  0.00  0.00    +0.000 A 
ATOM     35  C   UNL     1       1.817   3.455  18.962  0.00  0.00    +0.000 A 
ENDBRANCH  29  30
ENDBRANCH  28  29
ENDBRANCH  27  28
ENDBRANCH   2  22
TORSDOF 7
ENDMDL
