MODEL 1
REMARK VINA RESULT:      -8.2      0.000      0.000
REMARK  Name = 
REMARK  8 active torsions:
REMARK  status: ('A' for Active; 'I' for Inactive)
REMARK    1  A    between atoms: C_1  and  N_2
REMARK    2  A    between atoms: N_2  and  C_3
REMARK    3  A    between atoms: N_2  and  C_18
REMARK    4  A    between atoms: C_3  and  C_4
REMARK    5  A    between atoms: C_7  and  C_8
REMARK    6  A    between atoms: N_10  and  C_11
REMARK    7  A    between atoms: C_11  and  C_12
REMARK    8  A    between atoms: C_18  and  C_19
REMARK                            x       y       z     vdW  Elec       q    Type
REMARK                         _______ _______ _______ _____ _____    ______ ____
ROOT
ATOM      1  C   UNL     1       2.255   4.181  20.577  0.00  0.00    +0.000 C 
ENDROOT
BRANCH   1   2
ATOM      2  C   UNL     1       2.168   5.604  20.053  0.00  0.00    +0.000 A 
ATOM      3  C   UNL     1       2.529   5.924  18.737  0.00  0.00    +0.000 A 
ATOM      4  C   UNL     1       2.366   7.231  18.247  0.00  0.00    +0.000 A 
ATOM      5  C   UNL     1       1.874   8.244  19.083  0.00  0.00    +0.000 A 
ATOM      6  C   UNL     1       1.533   7.935  20.398  0.00  0.00    +0.000 A 
ATOM      7  C   UNL     1       1.662   6.628  20.866  0.00  0.00    +0.000 A 
BRANCH   5   8
ATOM      8  C   UNL     1       1.632   9.636  18.619  0.00  0.00    +0.000 C 
ATOM      9  O   UNL     1       1.944   9.990  17.488  0.00  0.00    +0.000 OA
ATOM     10  N   UNL     1       1.023  10.496  19.514  0.00  0.00    +0.000 N 
ATOM     11  H   UNL     1       0.526  10.095  20.299  0.00  0.00    +0.000 HD
BRANCH  10  12
ATOM     12  C   UNL     1       0.648  11.843  19.078  0.00  0.00    +0.000 C 
BRANCH  12  13
ATOM     13  C   UNL     1      -0.857  12.083  18.887  0.00  0.00    +0.000 C 
ATOM     14  F   UNL     1      -1.235  11.984  17.592  0.00  0.00    +0.000 F 
ATOM     15  F   UNL     1      -1.563  11.146  19.572  0.00  0.00    +0.000 F 
ATOM     16  F   UNL     1      -1.243  13.290  19.349  0.00  0.00    +0.000 F 
ENDBRANCH  12  13
ENDBRANCH  10  12
ENDBRANCH   5   8
ENDBRANCH   1   2
BRANCH   1  18
ATOM     17  C   UNL     1       1.275   2.138  19.743  0.00  0.00    +0.000 C 
ATOM     18  N   UNL     1       2.338   3.124  19.553  0.00  0.00    +0.000 NA
BRANCH  18  19
ATOM     19  C   UNL     1       3.660   2.489  19.432  0.00  0.00    +0.000 C 
BRANCH  19  20
ATOM     20  C   UNL     1       4.695   3.296  18.654  0.00  0.00    +0.000 A 
ATOM     21  N   UNL     1       5.613   3.948  19.286  0.00  0.00    +0.000 NA
ATOM     22  C   UNL     1       6.414   4.845  18.576  0.00  0.00    +0.000 A 
ATOM     23  C   UNL     1       7.253   5.696  19.299  0.00  0.00    +0.000 A 
ATOM     24  C   UNL     1       7.873   6.770  18.664  0.00  0.00    +0.000 A 
ATOM     25  C   UNL     1       7.684   6.978  17.295  0.00  0.00    +0.000 A 
ATOM     26  C   UNL     1       6.919   6.081  16.549  0.00  0.00    +0.000 A 
ATOM     27  C   UNL     1       6.289   5.018  17.197  0.00  0.00    +0.000 A 
ATOM     28  C   UNL     1       5.390   4.092  16.487  0.00  0.00    +0.000 A 
ATOM     29  O   UNL     1       5.378   4.000  15.268  0.00  0.00    +0.000 OA
ATOM     30  N   UNL     1       4.561   3.344  17.290  0.00  0.00    +0.000 N 
ATOM     31  H   UNL     1       3.907   2.745  16.812  0.00  0.00    +0.000 HD
ENDBRANCH  19  20
ENDBRANCH  18  19
ENDBRANCH   1  18
TORSDOF 7
ENDMDL
MODEL 2
REMARK VINA RESULT:      -8.2      2.493      4.777
REMARK  Name = 
REMARK  8 active torsions:
REMARK  status: ('A' for Active; 'I' for Inactive)
REMARK    1  A    between atoms: C_1  and  N_2
REMARK    2  A    between atoms: N_2  and  C_3
REMARK    3  A    between atoms: N_2  and  C_18
REMARK    4  A    between atoms: C_3  and  C_4
REMARK    5  A    between atoms: C_7  and  C_8
REMARK    6  A    between atoms: N_10  and  C_11
REMARK    7  A    between atoms: C_11  and  C_12
REMARK    8  A    between atoms: C_18  and  C_19
REMARK                            x       y       z     vdW  Elec       q    Type
REMARK                         _______ _______ _______ _____ _____    ______ ____
ROOT
ATOM      1  C   UNL     1       4.725   6.608  16.699  0.00  0.00    +0.000 C 
ENDROOT
BRANCH   1   2
ATOM      2  C   UNL     1       3.691   7.293  17.575  0.00  0.00    +0.000 A 
ATOM      3  C   UNL     1       3.086   8.498  17.191  0.00  0.00    +0.000 A 
ATOM      4  C   UNL     1       2.075   9.074  17.978  0.00  0.00    +0.000 A 
ATOM      5  C   UNL     1       1.684   8.471  19.182  0.00  0.00    +0.000 A 
ATOM      6  C   UNL     1       2.296   7.283  19.579  0.00  0.00    +0.000 A 
ATOM      7  C   UNL     1       3.272   6.697  18.774  0.00  0.00    +0.000 A 
BRANCH   5   8
ATOM      8  C   UNL     1       0.590   8.998  20.039  0.00  0.00    +0.000 C 
ATOM      9  O   UNL     1      -0.147   9.897  19.646  0.00  0.00    +0.000 OA
ATOM     10  N   UNL     1       0.434   8.417  21.283  0.00  0.00    +0.000 N 
ATOM     11  H   UNL     1       0.853   7.508  21.442  0.00  0.00    +0.000 HD
BRANCH  10  12
ATOM     12  C   UNL     1      -0.698   8.808  22.127  0.00  0.00    +0.000 C 
BRANCH  12  13
ATOM     13  C   UNL     1      -0.420   9.942  23.124  0.00  0.00    +0.000 C 
ATOM     14  F   UNL     1       0.337   9.538  24.169  0.00  0.00    +0.000 F 
ATOM     15  F   UNL     1       0.268  10.939  22.507  0.00  0.00    +0.000 F 
ATOM     16  F   UNL     1      -1.557  10.483  23.610  0.00  0.00    +0.000 F 
ENDBRANCH  12  13
ENDBRANCH  10  12
ENDBRANCH   5   8
ENDBRANCH   1   2
BRANCH   1  18
ATOM     17  C   UNL     1       7.085   6.293  17.103  0.00  0.00    +0.000 C 
ATOM     18  N   UNL     1       5.740   5.809  17.411  0.00  0.00    +0.000 NA
BRANCH  18  19
ATOM     19  C   UNL     1       5.622   4.354  17.215  0.00  0.00    +0.000 C 
BRANCH  19  20
ATOM     20  C   UNL     1       4.752   3.635  18.241  0.00  0.00    +0.000 A 
ATOM     21  N   UNL     1       3.465   3.699  18.153  0.00  0.00    +0.000 NA
ATOM     22  C   UNL     1       2.691   3.217  19.211  0.00  0.00    +0.000 A 
ATOM     23  C   UNL     1       1.320   3.483  19.201  0.00  0.00    +0.000 A 
ATOM     24  C   UNL     1       0.556   3.252  20.342  0.00  0.00    +0.000 A 
ATOM     25  C   UNL     1       1.153   2.721  21.489  0.00  0.00    +0.000 A 
ATOM     26  C   UNL     1       2.504   2.370  21.478  0.00  0.00    +0.000 A 
ATOM     27  C   UNL     1       3.264   2.620  20.336  0.00  0.00    +0.000 A 
ATOM     28  C   UNL     1       4.713   2.365  20.290  0.00  0.00    +0.000 A 
ATOM     29  O   UNL     1       5.277   1.650  21.107  0.00  0.00    +0.000 OA
ATOM     30  N   UNL     1       5.390   2.990  19.270  0.00  0.00    +0.000 N 
ATOM     31  H   UNL     1       6.390   2.863  19.260  0.00  0.00    +0.000 HD
ENDBRANCH  19  20
ENDBRANCH  18  19
ENDBRANCH   1  18
TORSDOF 7
ENDMDL
MODEL 3
REMARK VINA RESULT:      -8.1      0.840      1.165
REMARK  Name = 
REMARK  8 active torsions:
REMARK  status: ('A' for Active; 'I' for Inactive)
REMARK    1  A    between atoms: C_1  and  N_2
REMARK    2  A    between atoms: N_2  and  C_3
REMARK    3  A    between atoms: N_2  and  C_18
REMARK    4  A    between atoms: C_3  and  C_4
REMARK    5  A    between atoms: C_7  and  C_8
REMARK    6  A    between atoms: N_10  and  C_11
REMARK    7  A    between atoms: C_11  and  C_12
REMARK    8  A    between atoms: C_18  and  C_19
REMARK                            x       y       z     vdW  Elec       q    Type
REMARK                         _______ _______ _______ _____ _____    ______ ____
ROOT
ATOM      1  C   UNL     1       2.695   4.546  20.536  0.00  0.00    +0.000 C 
ENDROOT
BRANCH   1   2
ATOM      2  C   UNL     1       2.361   5.942  20.039  0.00  0.00    +0.000 A 
ATOM      3  C   UNL     1       2.648   6.343  18.727  0.00  0.00    +0.000 A 
ATOM      4  C   UNL     1       2.259   7.610  18.264  0.00  0.00    +0.000 A 
ATOM      5  C   UNL     1       1.611   8.510  19.123  0.00  0.00    +0.000 A 
ATOM      6  C   UNL     1       1.341   8.125  20.434  0.00  0.00    +0.000 A 
ATOM      7  C   UNL     1       1.696   6.851  20.876  0.00  0.00    +0.000 A 
BRANCH   5   8
ATOM      8  C   UNL     1       1.130   9.848  18.687  0.00  0.00    +0.000 C 
ATOM      9  O   UNL     1       1.843  10.594  18.024  0.00  0.00    +0.000 OA
ATOM     10  N   UNL     1      -0.158  10.197  19.047  0.00  0.00    +0.000 N 
ATOM     11  H   UNL     1      -0.794   9.459  19.323  0.00  0.00    +0.000 HD
BRANCH  10  12
ATOM     12  C   UNL     1      -0.733  11.448  18.549  0.00  0.00    +0.000 C 
BRANCH  12  13
ATOM     13  C   UNL     1      -2.117  11.327  17.893  0.00  0.00    +0.000 C 
ATOM     14  F   UNL     1      -3.058  12.058  18.534  0.00  0.00    +0.000 F 
ATOM     15  F   UNL     1      -2.063  11.794  16.618  0.00  0.00    +0.000 F 
ATOM     16  F   UNL     1      -2.543  10.049  17.834  0.00  0.00    +0.000 F 
ENDBRANCH  12  13
ENDBRANCH  10  12
ENDBRANCH   5   8
ENDBRANCH   1   2
BRANCH   1  18
ATOM     17  C   UNL     1       1.387   2.557  20.132  0.00  0.00    +0.000 C 
ATOM     18  N   UNL     1       2.414   3.447  19.594  0.00  0.00    +0.000 NA
BRANCH  18  19
ATOM     19  C   UNL     1       3.605   2.704  19.147  0.00  0.00    +0.000 C 
BRANCH  19  20
ATOM     20  C   UNL     1       4.658   3.546  18.432  0.00  0.00    +0.000 A 
ATOM     21  N   UNL     1       5.631   4.067  19.102  0.00  0.00    +0.000 NA
ATOM     22  C   UNL     1       6.458   5.000  18.475  0.00  0.00    +0.000 A 
ATOM     23  C   UNL     1       7.368   5.711  19.261  0.00  0.00    +0.000 A 
ATOM     24  C   UNL     1       8.026   6.821  18.737  0.00  0.00    +0.000 A 
ATOM     25  C   UNL     1       7.806   7.203  17.411  0.00  0.00    +0.000 A 
ATOM     26  C   UNL     1       6.968   6.445  16.592  0.00  0.00    +0.000 A 
ATOM     27  C   UNL     1       6.300   5.346  17.132  0.00  0.00    +0.000 A 
ATOM     28  C   UNL     1       5.328   4.563  16.351  0.00  0.00    +0.000 A 
ATOM     29  O   UNL     1       5.271   4.620  15.131  0.00  0.00    +0.000 OA
ATOM     30  N   UNL     1       4.484   3.767  17.090  0.00  0.00    +0.000 N 
ATOM     31  H   UNL     1       3.781   3.265  16.569  0.00  0.00    +0.000 HD
ENDBRANCH  19  20
ENDBRANCH  18  19
ENDBRANCH   1  18
TORSDOF 7
ENDMDL
MODEL 4
REMARK VINA RESULT:      -8.0      1.889      2.083
REMARK  Name = 
REMARK  8 active torsions:
REMARK  status: ('A' for Active; 'I' for Inactive)
REMARK    1  A    between atoms: C_1  and  N_2
REMARK    2  A    between atoms: N_2  and  C_3
REMARK    3  A    between atoms: N_2  and  C_18
REMARK    4  A    between atoms: C_3  and  C_4
REMARK    5  A    between atoms: C_7  and  C_8
REMARK    6  A    between atoms: N_10  and  C_11
REMARK    7  A    between atoms: C_11  and  C_12
REMARK    8  A    between atoms: C_18  and  C_19
REMARK                            x       y       z     vdW  Elec       q    Type
REMARK                         _______ _______ _______ _____ _____    ______ ____
ROOT
ATOM      1  C   UNL     1       3.036   4.210  19.838  0.00  0.00    +0.000 C 
ENDROOT
BRANCH   1   2
ATOM      2  C   UNL     1       2.528   5.640  19.899  0.00  0.00    +0.000 A 
ATOM      3  C   UNL     1       2.861   6.580  18.913  0.00  0.00    +0.000 A 
ATOM      4  C   UNL     1       2.317   7.874  18.945  0.00  0.00    +0.000 A 
ATOM      5  C   UNL     1       1.462   8.258  19.988  0.00  0.00    +0.000 A 
ATOM      6  C   UNL     1       1.144   7.334  20.982  0.00  0.00    +0.000 A 
ATOM      7  C   UNL     1       1.657   6.039  20.923  0.00  0.00    +0.000 A 
BRANCH   5   8
ATOM      8  C   UNL     1       0.813   9.594  20.060  0.00  0.00    +0.000 C 
ATOM      9  O   UNL     1       0.952  10.415  19.160  0.00  0.00    +0.000 OA
ATOM     10  N   UNL     1       0.036   9.853  21.173  0.00  0.00    +0.000 N 
ATOM     11  H   UNL     1      -0.285   9.067  21.725  0.00  0.00    +0.000 HD
BRANCH  10  12
ATOM     12  C   UNL     1      -0.725  11.102  21.248  0.00  0.00    +0.000 C 
BRANCH  12  13
ATOM     13  C   UNL     1      -1.202  11.505  22.651  0.00  0.00    +0.000 C 
ATOM     14  F   UNL     1      -2.548  11.619  22.726  0.00  0.00    +0.000 F 
ATOM     15  F   UNL     1      -0.841  10.552  23.550  0.00  0.00    +0.000 F 
ATOM     16  F   UNL     1      -0.656  12.668  23.060  0.00  0.00    +0.000 F 
ENDBRANCH  12  13
ENDBRANCH  10  12
ENDBRANCH   5   8
ENDBRANCH   1   2
BRANCH   1  18
ATOM     17  C   UNL     1       1.797   2.386  18.853  0.00  0.00    +0.000 C 
ATOM     18  N   UNL     1       2.736   3.476  18.594  0.00  0.00    +0.000 NA
BRANCH  18  19
ATOM     19  C   UNL     1       3.923   3.014  17.855  0.00  0.00    +0.000 C 
BRANCH  19  20
ATOM     20  C   UNL     1       4.941   4.103  17.525  0.00  0.00    +0.000 A 
ATOM     21  N   UNL     1       5.963   4.283  18.293  0.00  0.00    +0.000 NA
ATOM     22  C   UNL     1       6.763   5.411  18.099  0.00  0.00    +0.000 A 
ATOM     23  C   UNL     1       7.732   5.708  19.060  0.00  0.00    +0.000 A 
ATOM     24  C   UNL     1       8.372   6.945  19.046  0.00  0.00    +0.000 A 
ATOM     25  C   UNL     1       8.073   7.877  18.050  0.00  0.00    +0.000 A 
ATOM     26  C   UNL     1       7.172   7.554  17.034  0.00  0.00    +0.000 A 
ATOM     27  C   UNL     1       6.523   6.320  17.066  0.00  0.00    +0.000 A 
ATOM     28  C   UNL     1       5.491   5.954  16.082  0.00  0.00    +0.000 A 
ATOM     29  O   UNL     1       5.356   6.551  15.023  0.00  0.00    +0.000 OA
ATOM     30  N   UNL     1       4.684   4.899  16.439  0.00  0.00    +0.000 N 
ATOM     31  H   UNL     1       3.941   4.673  15.795  0.00  0.00    +0.000 HD
ENDBRANCH  19  20
ENDBRANCH  18  19
ENDBRANCH   1  18
TORSDOF 7
ENDMDL
MODEL 5
REMARK VINA RESULT:      -8.0      0.918      1.150
REMARK  Name = 
REMARK  8 active torsions:
REMARK  status: ('A' for Active; 'I' for Inactive)
REMARK    1  A    between atoms: C_1  and  N_2
REMARK    2  A    between atoms: N_2  and  C_3
REMARK    3  A    between atoms: N_2  and  C_18
REMARK    4  A    between atoms: C_3  and  C_4
REMARK    5  A    between atoms: C_7  and  C_8
REMARK    6  A    between atoms: N_10  and  C_11
REMARK    7  A    between atoms: C_11  and  C_12
REMARK    8  A    between atoms: C_18  and  C_19
REMARK                            x       y       z     vdW  Elec       q    Type
REMARK                         _______ _______ _______ _____ _____    ______ ____
ROOT
ATOM      1  C   UNL     1       2.300   4.618  20.679  0.00  0.00    +0.000 C 
ENDROOT
BRANCH   1   2
ATOM      2  C   UNL     1       2.145   6.009  20.090  0.00  0.00    +0.000 A 
ATOM      3  C   UNL     1       2.480   6.282  18.757  0.00  0.00    +0.000 A 
ATOM      4  C   UNL     1       2.254   7.556  18.209  0.00  0.00    +0.000 A 
ATOM      5  C   UNL     1       1.725   8.585  19.001  0.00  0.00    +0.000 A 
ATOM      6  C   UNL     1       1.409   8.323  20.333  0.00  0.00    +0.000 A 
ATOM      7  C   UNL     1       1.600   7.047  20.860  0.00  0.00    +0.000 A 
BRANCH   5   8
ATOM      8  C   UNL     1       1.416   9.941  18.476  0.00  0.00    +0.000 C 
ATOM      9  O   UNL     1       2.148  10.484  17.655  0.00  0.00    +0.000 OA
ATOM     10  N   UNL     1       0.262  10.544  18.939  0.00  0.00    +0.000 N 
ATOM     11  H   UNL     1      -0.444   9.958  19.368  0.00  0.00    +0.000 HD
BRANCH  10  12
ATOM     12  C   UNL     1      -0.161  11.826  18.372  0.00  0.00    +0.000 C 
BRANCH  12  13
ATOM     13  C   UNL     1       0.472  13.073  19.007  0.00  0.00    +0.000 C 
ATOM     14  F   UNL     1       1.046  12.810  20.203  0.00  0.00    +0.000 F 
ATOM     15  F   UNL     1       1.457  13.550  18.200  0.00  0.00    +0.000 F 
ATOM     16  F   UNL     1      -0.422  14.068  19.176  0.00  0.00    +0.000 F 
ENDBRANCH  12  13
ENDBRANCH  10  12
ENDBRANCH   5   8
ENDBRANCH   1   2
BRANCH   1  18
ATOM     17  C   UNL     1       1.079   2.619  20.090  0.00  0.00    +0.000 C 
ATOM     18  N   UNL     1       2.186   3.500  19.724  0.00  0.00    +0.000 NA
BRANCH  18  19
ATOM     19  C   UNL     1       3.435   2.751  19.506  0.00  0.00    +0.000 C 
BRANCH  19  20
ATOM     20  C   UNL     1       4.500   3.492  18.703  0.00  0.00    +0.000 A 
ATOM     21  N   UNL     1       5.483   4.066  19.312  0.00  0.00    +0.000 NA
ATOM     22  C   UNL     1       6.324   4.912  18.586  0.00  0.00    +0.000 A 
ATOM     23  C   UNL     1       7.247   5.689  19.291  0.00  0.00    +0.000 A 
ATOM     24  C   UNL     1       7.923   6.724  18.649  0.00  0.00    +0.000 A 
ATOM     25  C   UNL     1       7.705   6.965  17.289  0.00  0.00    +0.000 A 
ATOM     26  C   UNL     1       6.852   6.137  16.558  0.00  0.00    +0.000 A 
ATOM     27  C   UNL     1       6.167   5.114  17.214  0.00  0.00    +0.000 A 
ATOM     28  C   UNL     1       5.180   4.267  16.524  0.00  0.00    +0.000 A 
ATOM     29  O   UNL     1       5.121   4.193  15.305  0.00  0.00    +0.000 OA
ATOM     30  N   UNL     1       4.325   3.569  17.345  0.00  0.00    +0.000 N 
ATOM     31  H   UNL     1       3.613   3.026  16.882  0.00  0.00    +0.000 HD
ENDBRANCH  19  20
ENDBRANCH  18  19
ENDBRANCH   1  18
TORSDOF 7
ENDMDL
MODEL 6
REMARK VINA RESULT:      -7.8      1.254      1.530
REMARK  Name = 
REMARK  8 active torsions:
REMARK  status: ('A' for Active; 'I' for Inactive)
REMARK    1  A    between atoms: C_1  and  N_2
REMARK    2  A    between atoms: N_2  and  C_3
REMARK    3  A    between atoms: N_2  and  C_18
REMARK    4  A    between atoms: C_3  and  C_4
REMARK    5  A    between atoms: C_7  and  C_8
REMARK    6  A    between atoms: N_10  and  C_11
REMARK    7  A    between atoms: C_11  and  C_12
REMARK    8  A    between atoms: C_18  and  C_19
REMARK                            x       y       z     vdW  Elec       q    Type
REMARK                         _______ _______ _______ _____ _____    ______ ____
ROOT
ATOM      1  C   UNL     1       2.849   4.267  19.727  0.00  0.00    +0.000 C 
ENDROOT
BRANCH   1   2
ATOM      2  C   UNL     1       2.431   5.726  19.773  0.00  0.00    +0.000 A 
ATOM      3  C   UNL     1       2.722   6.606  18.722  0.00  0.00    +0.000 A 
ATOM      4  C   UNL     1       2.257   7.931  18.748  0.00  0.00    +0.000 A 
ATOM      5  C   UNL     1       1.527   8.405  19.847  0.00  0.00    +0.000 A 
ATOM      6  C   UNL     1       1.252   7.540  20.905  0.00  0.00    +0.000 A 
ATOM      7  C   UNL     1       1.684   6.215  20.855  0.00  0.00    +0.000 A 
BRANCH   5   8
ATOM      8  C   UNL     1       0.964   9.779  19.921  0.00  0.00    +0.000 C 
ATOM      9  O   UNL     1       0.850  10.360  20.995  0.00  0.00    +0.000 OA
ATOM     10  N   UNL     1       0.600  10.370  18.726  0.00  0.00    +0.000 N 
ATOM     11  H   UNL     1       0.978   9.988  17.868  0.00  0.00    +0.000 HD
BRANCH  10  12
ATOM     12  C   UNL     1       0.152  11.765  18.718  0.00  0.00    +0.000 C 
BRANCH  12  13
ATOM     13  C   UNL     1      -1.367  11.973  18.631  0.00  0.00    +0.000 C 
ATOM     14  F   UNL     1      -1.782  13.054  19.331  0.00  0.00    +0.000 F 
ATOM     15  F   UNL     1      -1.729  12.184  17.338  0.00  0.00    +0.000 F 
ATOM     16  F   UNL     1      -2.055  10.898  19.068  0.00  0.00    +0.000 F 
ENDBRANCH  12  13
ENDBRANCH  10  12
ENDBRANCH   5   8
ENDBRANCH   1   2
BRANCH   1  18
ATOM     17  C   UNL     1       1.560   2.474  18.750  0.00  0.00    +0.000 C 
ATOM     18  N   UNL     1       2.520   3.545  18.485  0.00  0.00    +0.000 NA
BRANCH  18  19
ATOM     19  C   UNL     1       3.687   3.059  17.730  0.00  0.00    +0.000 C 
BRANCH  19  20
ATOM     20  C   UNL     1       4.752   4.114  17.442  0.00  0.00    +0.000 A 
ATOM     21  N   UNL     1       5.776   4.225  18.221  0.00  0.00    +0.000 NA
ATOM     22  C   UNL     1       6.624   5.324  18.068  0.00  0.00    +0.000 A 
ATOM     23  C   UNL     1       7.599   5.548  19.044  0.00  0.00    +0.000 A 
ATOM     24  C   UNL     1       8.291   6.756  19.075  0.00  0.00    +0.000 A 
ATOM     25  C   UNL     1       8.038   7.733  18.109  0.00  0.00    +0.000 A 
ATOM     26  C   UNL     1       7.130   7.482  17.078  0.00  0.00    +0.000 A 
ATOM     27  C   UNL     1       6.429   6.276  17.066  0.00  0.00    +0.000 A 
ATOM     28  C   UNL     1       5.389   5.987  16.065  0.00  0.00    +0.000 A 
ATOM     29  O   UNL     1       5.286   6.624  15.026  0.00  0.00    +0.000 OA
ATOM     30  N   UNL     1       4.536   4.956  16.382  0.00  0.00    +0.000 N 
ATOM     31  H   UNL     1       3.789   4.783  15.727  0.00  0.00    +0.000 HD
ENDBRANCH  19  20
ENDBRANCH  18  19
ENDBRANCH   1  18
TORSDOF 7
ENDMDL
MODEL 7
REMARK VINA RESULT:      -7.8      2.479      3.543
REMARK  Name = 
REMARK  8 active torsions:
REMARK  status: ('A' for Active; 'I' for Inactive)
REMARK    1  A    between atoms: C_1  and  N_2
REMARK    2  A    between atoms: N_2  and  C_3
REMARK    3  A    between atoms: N_2  and  C_18
REMARK    4  A    between atoms: C_3  and  C_4
REMARK    5  A    between atoms: C_7  and  C_8
REMARK    6  A    between atoms: N_10  and  C_11
REMARK    7  A    between atoms: C_11  and  C_12
REMARK    8  A    between atoms: C_18  and  C_19
REMARK                            x       y       z     vdW  Elec       q    Type
REMARK                         _______ _______ _______ _____ _____    ______ ____
ROOT
ATOM      1  C   UNL     1       2.338   2.820  18.197  0.00  0.00    +0.000 C 
ENDROOT
BRANCH   1   2
ATOM      2  C   UNL     1       2.213   4.234  18.738  0.00  0.00    +0.000 A 
ATOM      3  C   UNL     1       2.322   5.352  17.900  0.00  0.00    +0.000 A 
ATOM      4  C   UNL     1       2.124   6.648  18.405  0.00  0.00    +0.000 A 
ATOM      5  C   UNL     1       1.852   6.843  19.767  0.00  0.00    +0.000 A 
ATOM      6  C   UNL     1       1.763   5.736  20.609  0.00  0.00    +0.000 A 
ATOM      7  C   UNL     1       1.923   4.450  20.093  0.00  0.00    +0.000 A 
BRANCH   5   8
ATOM      8  C   UNL     1       1.586   8.180  20.361  0.00  0.00    +0.000 C 
ATOM      9  O   UNL     1       1.371   9.157  19.652  0.00  0.00    +0.000 OA
ATOM     10  N   UNL     1       1.572   8.260  21.741  0.00  0.00    +0.000 N 
ATOM     11  H   UNL     1       1.457   7.403  22.268  0.00  0.00    +0.000 HD
BRANCH  10  12
ATOM     12  C   UNL     1       1.197   9.520  22.387  0.00  0.00    +0.000 C 
BRANCH  12  13
ATOM     13  C   UNL     1      -0.307   9.726  22.617  0.00  0.00    +0.000 C 
ATOM     14  F   UNL     1      -0.850  10.597  21.736  0.00  0.00    +0.000 F 
ATOM     15  F   UNL     1      -0.963   8.547  22.452  0.00  0.00    +0.000 F 
ATOM     16  F   UNL     1      -0.577  10.162  23.864  0.00  0.00    +0.000 F 
ENDBRANCH  12  13
ENDBRANCH  10  12
ENDBRANCH   5   8
ENDBRANCH   1   2
BRANCH   1  18
ATOM     17  C   UNL     1       4.004   1.084  18.395  0.00  0.00    +0.000 C 
ATOM     18  N   UNL     1       3.700   2.394  17.825  0.00  0.00    +0.000 NA
BRANCH  18  19
ATOM     19  C   UNL     1       4.753   3.380  18.123  0.00  0.00    +0.000 C 
BRANCH  19  20
ATOM     20  C   UNL     1       5.379   4.043  16.899  0.00  0.00    +0.000 A 
ATOM     21  N   UNL     1       5.049   3.651  15.714  0.00  0.00    +0.000 NA
ATOM     22  C   UNL     1       5.782   4.117  14.621  0.00  0.00    +0.000 A 
ATOM     23  C   UNL     1       5.557   3.528  13.374  0.00  0.00    +0.000 A 
ATOM     24  C   UNL     1       6.431   3.773  12.318  0.00  0.00    +0.000 A 
ATOM     25  C   UNL     1       7.515   4.637  12.493  0.00  0.00    +0.000 A 
ATOM     26  C   UNL     1       7.696   5.299  13.708  0.00  0.00    +0.000 A 
ATOM     27  C   UNL     1       6.825   5.034  14.765  0.00  0.00    +0.000 A 
ATOM     28  C   UNL     1       7.016   5.623  16.101  0.00  0.00    +0.000 A 
ATOM     29  O   UNL     1       7.736   6.593  16.291  0.00  0.00    +0.000 OA
ATOM     30  N   UNL     1       6.333   5.003  17.121  0.00  0.00    +0.000 N 
ATOM     31  H   UNL     1       6.496   5.367  18.047  0.00  0.00    +0.000 HD
ENDBRANCH  19  20
ENDBRANCH  18  19
ENDBRANCH   1  18
TORSDOF 7
ENDMDL
MODEL 8
REMARK VINA RESULT:      -7.8      2.044      2.920
REMARK  Name = 
REMARK  8 active torsions:
REMARK  status: ('A' for Active; 'I' for Inactive)
REMARK    1  A    between atoms: C_1  and  N_2
REMARK    2  A    between atoms: N_2  and  C_3
REMARK    3  A    between atoms: N_2  and  C_18
REMARK    4  A    between atoms: C_3  and  C_4
REMARK    5  A    between atoms: C_7  and  C_8
REMARK    6  A    between atoms: N_10  and  C_11
REMARK    7  A    between atoms: C_11  and  C_12
REMARK    8  A    between atoms: C_18  and  C_19
REMARK                            x       y       z     vdW  Elec       q    Type
REMARK                         _______ _______ _______ _____ _____    ______ ____
ROOT
ATOM      1  C   UNL     1       3.142   5.971  19.999  0.00  0.00    +0.000 C 
ENDROOT
BRANCH   1   2
ATOM      2  C   UNL     1       2.372   7.217  19.597  0.00  0.00    +0.000 A 
ATOM      3  C   UNL     1       2.348   7.670  18.271  0.00  0.00    +0.000 A 
ATOM      4  C   UNL     1       1.565   8.777  17.906  0.00  0.00    +0.000 A 
ATOM      5  C   UNL     1       0.825   9.471  18.874  0.00  0.00    +0.000 A 
ATOM      6  C   UNL     1       0.862   9.038  20.198  0.00  0.00    +0.000 A 
ATOM      7  C   UNL     1       1.611   7.915  20.547  0.00  0.00    +0.000 A 
BRANCH   5   8
ATOM      8  C   UNL     1      -0.061  10.621  18.553  0.00  0.00    +0.000 C 
ATOM      9  O   UNL     1       0.143  11.732  19.032  0.00  0.00    +0.000 OA
ATOM     10  N   UNL     1      -1.104  10.382  17.678  0.00  0.00    +0.000 N 
ATOM     11  H   UNL     1      -1.057   9.557  17.093  0.00  0.00    +0.000 HD
BRANCH  10  12
ATOM     12  C   UNL     1      -1.939  11.497  17.228  0.00  0.00    +0.000 C 
BRANCH  12  13
ATOM     13  C   UNL     1      -3.272  11.106  16.573  0.00  0.00    +0.000 C 
ATOM     14  F   UNL     1      -4.311  11.837  17.037  0.00  0.00    +0.000 F 
ATOM     15  F   UNL     1      -3.209  11.326  15.234  0.00  0.00    +0.000 F 
ATOM     16  F   UNL     1      -3.562   9.800  16.749  0.00  0.00    +0.000 F 
ENDBRANCH  12  13
ENDBRANCH  10  12
ENDBRANCH   5   8
ENDBRANCH   1   2
BRANCH   1  18
ATOM     17  C   UNL     1       1.787   4.263  21.035  0.00  0.00    +0.000 C 
ATOM     18  N   UNL     1       2.439   4.691  19.799  0.00  0.00    +0.000 NA
BRANCH  18  19
ATOM     19  C   UNL     1       3.267   3.621  19.217  0.00  0.00    +0.000 C 
BRANCH  19  20
ATOM     20  C   UNL     1       4.376   4.100  18.285  0.00  0.00    +0.000 A 
ATOM     21  N   UNL     1       4.109   4.372  17.052  0.00  0.00    +0.000 NA
ATOM     22  C   UNL     1       5.165   4.601  16.167  0.00  0.00    +0.000 A 
ATOM     23  C   UNL     1       4.879   4.683  14.803  0.00  0.00    +0.000 A 
ATOM     24  C   UNL     1       5.912   4.653  13.869  0.00  0.00    +0.000 A 
ATOM     25  C   UNL     1       7.240   4.578  14.297  0.00  0.00    +0.000 A 
ATOM     26  C   UNL     1       7.539   4.587  15.661  0.00  0.00    +0.000 A 
ATOM     27  C   UNL     1       6.497   4.599  16.587  0.00  0.00    +0.000 A 
ATOM     28  C   UNL     1       6.739   4.511  18.037  0.00  0.00    +0.000 A 
ATOM     29  O   UNL     1       7.836   4.729  18.531  0.00  0.00    +0.000 OA
ATOM     30  N   UNL     1       5.647   4.160  18.797  0.00  0.00    +0.000 N 
ATOM     31  H   UNL     1       5.814   4.048  19.784  0.00  0.00    +0.000 HD
ENDBRANCH  19  20
ENDBRANCH  18  19
ENDBRANCH   1  18
TORSDOF 7
ENDMDL
MODEL 9
REMARK VINA RESULT:      -7.8      1.315      2.078
REMARK  Name = 
REMARK  8 active torsions:
REMARK  status: ('A' for Active; 'I' for Inactive)
REMARK    1  A    between atoms: C_1  and  N_2
REMARK    2  A    between atoms: N_2  and  C_3
REMARK    3  A    between atoms: N_2  and  C_18
REMARK    4  A    between atoms: C_3  and  C_4
REMARK    5  A    between atoms: C_7  and  C_8
REMARK    6  A    between atoms: N_10  and  C_11
REMARK    7  A    between atoms: C_11  and  C_12
REMARK    8  A    between atoms: C_18  and  C_19
REMARK                            x       y       z     vdW  Elec       q    Type
REMARK                         _______ _______ _______ _____ _____    ______ ____
ROOT
ATOM      1  C   UNL     1       2.462   4.665  20.644  0.00  0.00    +0.000 C 
ENDROOT
BRANCH   1   2
ATOM      2  C   UNL     1       2.199   6.101  20.226  0.00  0.00    +0.000 A 
ATOM      3  C   UNL     1       2.609   6.589  18.978  0.00  0.00    +0.000 A 
ATOM      4  C   UNL     1       2.286   7.896  18.578  0.00  0.00    +0.000 A 
ATOM      5  C   UNL     1       1.581   8.747  19.442  0.00  0.00    +0.000 A 
ATOM      6  C   UNL     1       1.188   8.274  20.693  0.00  0.00    +0.000 A 
ATOM      7  C   UNL     1       1.479   6.962  21.067  0.00  0.00    +0.000 A 
BRANCH   5   8
ATOM      8  C   UNL     1       1.164  10.124  19.067  0.00  0.00    +0.000 C 
ATOM      9  O   UNL     1       1.577  10.654  18.041  0.00  0.00    +0.000 OA
ATOM     10  N   UNL     1       0.281  10.763  19.916  0.00  0.00    +0.000 N 
ATOM     11  H   UNL     1      -0.250  10.198  20.567  0.00  0.00    +0.000 HD
BRANCH  10  12
ATOM     12  C   UNL     1      -0.261  12.072  19.544  0.00  0.00    +0.000 C 
BRANCH  12  13
ATOM     13  C   UNL     1      -1.579  12.045  18.756  0.00  0.00    +0.000 C 
ATOM     14  F   UNL     1      -1.439  12.520  17.498  0.00  0.00    +0.000 F 
ATOM     15  F   UNL     1      -2.019  10.764  18.642  0.00  0.00    +0.000 F 
ATOM     16  F   UNL     1      -2.553  12.749  19.368  0.00  0.00    +0.000 F 
ENDBRANCH  12  13
ENDBRANCH  10  12
ENDBRANCH   5   8
ENDBRANCH   1   2
BRANCH   1  18
ATOM     17  C   UNL     1       1.063   2.798  20.021  0.00  0.00    +0.000 C 
ATOM     18  N   UNL     1       2.190   3.640  19.621  0.00  0.00    +0.000 NA
BRANCH  18  19
ATOM     19  C   UNL     1       3.361   2.838  19.229  0.00  0.00    +0.000 C 
BRANCH  19  20
ATOM     20  C   UNL     1       4.379   3.567  18.357  0.00  0.00    +0.000 A 
ATOM     21  N   UNL     1       4.117   3.794  17.113  0.00  0.00    +0.000 NA
ATOM     22  C   UNL     1       5.135   4.268  16.284  0.00  0.00    +0.000 A 
ATOM     23  C   UNL     1       4.903   4.306  14.907  0.00  0.00    +0.000 A 
ATOM     24  C   UNL     1       5.960   4.524  14.027  0.00  0.00    +0.000 A 
ATOM     25  C   UNL     1       7.250   4.740  14.520  0.00  0.00    +0.000 A 
ATOM     26  C   UNL     1       7.474   4.791  15.897  0.00  0.00    +0.000 A 
ATOM     27  C   UNL     1       6.412   4.555  16.770  0.00  0.00    +0.000 A 
ATOM     28  C   UNL     1       6.598   4.499  18.230  0.00  0.00    +0.000 A 
ATOM     29  O   UNL     1       7.594   4.948  18.779  0.00  0.00    +0.000 OA
ATOM     30  N   UNL     1       5.578   3.901  18.932  0.00  0.00    +0.000 N 
ATOM     31  H   UNL     1       5.719   3.812  19.926  0.00  0.00    +0.000 HD
ENDBRANCH  19  20
ENDBRANCH  18  19
ENDBRANCH   1  18
TORSDOF 7
ENDMDL
