MODEL 1
REMARK VINA RESULT:      -9.1      0.000      0.000
REMARK  Name = 
REMARK  5 active torsions:
REMARK  status: ('A' for Active; 'I' for Inactive)
REMARK    1  A    between atoms: C_2  and  C_20
REMARK    2  A    between atoms: N_10  and  C_11
REMARK    3  A    between atoms: C_11  and  C_12
REMARK    4  A    between atoms: C_24  and  S_25
REMARK    5  A    between atoms: S_25  and  N_28
REMARK                            x       y       z     vdW  Elec       q    Type
REMARK                         _______ _______ _______ _____ _____    ______ ____
ROOT
ATOM      1  O   UNL     1       2.517   8.813  17.705  0.00  0.00    +0.000 OA
ATOM      2  C   UNL     1       2.409   7.926  18.549  0.00  0.00    +0.000 C 
ATOM      3  N   UNL     1       1.795   8.043  19.780  0.00  0.00    +0.000 N 
ATOM      4  C   UNL     1       1.075   9.180  20.049  0.00  0.00    +0.000 A 
ATOM      5  N   UNL     1       0.686  10.088  19.192  0.00  0.00    +0.000 NA
ATOM      6  C   UNL     1       0.073  11.108  19.861  0.00  0.00    +0.000 A 
ATOM      7  C   UNL     1      -0.017  10.956  21.228  0.00  0.00    +0.000 A 
ATOM      8  S   UNL     1       0.633   9.442  21.685  0.00  0.00    +0.000 S 
ATOM      9  C   UNL     1      -0.568  11.996  22.149  0.00  0.00    +0.000 C 
ATOM     10  N   UNL     1      -1.418  12.987  21.426  0.00  0.00    +0.000 NA
ATOM     11  C   UNL     1      -0.742  13.425  20.169  0.00  0.00    +0.000 C 
ATOM     12  C   UNL     1      -0.463  12.297  19.151  0.00  0.00    +0.000 C 
ATOM     13  H   UNL     1       1.842   7.343  20.501  0.00  0.00    +0.000 HD
ENDROOT
BRANCH   2  14
ATOM     14  C   UNL     1       3.015   6.614  18.196  0.00  0.00    +0.000 A 
ATOM     15  C   UNL     1       2.459   5.483  18.819  0.00  0.00    +0.000 A 
ATOM     16  C   UNL     1       2.974   4.209  18.591  0.00  0.00    +0.000 A 
ATOM     17  C   UNL     1       4.020   4.042  17.692  0.00  0.00    +0.000 A 
ATOM     18  C   UNL     1       4.509   5.150  16.996  0.00  0.00    +0.000 A 
ATOM     19  C   UNL     1       4.048   6.449  17.273  0.00  0.00    +0.000 A 
BRANCH  18  20
ATOM     20  S   UNL     1       5.783   4.917  15.771  0.00  0.00    +0.000 S 
ATOM     21  O   UNL     1       5.856   3.496  15.529  0.00  0.00    +0.000 OA
ATOM     22  O   UNL     1       5.536   5.852  14.697  0.00  0.00    +0.000 OA
BRANCH  20  23
ATOM     23  N   UNL     1       7.194   5.376  16.566  0.00  0.00    +0.000 NA
ATOM     24  C   UNL     1       7.659   4.647  17.769  0.00  0.00    +0.000 C 
ATOM     25  C   UNL     1       7.407   5.467  19.039  0.00  0.00    +0.000 C 
ATOM     26  O   UNL     1       8.003   6.767  18.949  0.00  0.00    +0.000 OA
ATOM     27  C   UNL     1       7.475   7.506  17.840  0.00  0.00    +0.000 C 
ATOM     28  C   UNL     1       7.695   6.773  16.514  0.00  0.00    +0.000 C 
ENDBRANCH  20  23
ENDBRANCH  18  20
ENDBRANCH   2  14
BRANCH  10  29
ATOM     29  C   UNL     1      -2.765  12.461  21.123  0.00  0.00    +0.000 C 
BRANCH  29  30
ATOM     30  C   UNL     1      -3.769  12.615  22.243  0.00  0.00    +0.000 A 
ATOM     31  C   UNL     1      -5.108  12.934  21.979  0.00  0.00    +0.000 A 
ATOM     32  C   UNL     1      -6.030  13.034  23.024  0.00  0.00    +0.000 A 
ATOM     33  C   UNL     1      -5.623  12.814  24.339  0.00  0.00    +0.000 A 
ATOM     34  C   UNL     1      -4.295  12.495  24.613  0.00  0.00    +0.000 A 
ATOM     35  C   UNL     1      -3.373  12.395  23.572  0.00  0.00    +0.000 A 
ENDBRANCH  29  30
ENDBRANCH  10  29
TORSDOF 5
ENDMDL
MODEL 2
REMARK VINA RESULT:      -8.9      4.326     11.652
REMARK  Name = 
REMARK  5 active torsions:
REMARK  status: ('A' for Active; 'I' for Inactive)
REMARK    1  A    between atoms: C_2  and  C_20
REMARK    2  A    between atoms: N_10  and  C_11
REMARK    3  A    between atoms: C_11  and  C_12
REMARK    4  A    between atoms: C_24  and  S_25
REMARK    5  A    between atoms: S_25  and  N_28
REMARK                            x       y       z     vdW  Elec       q    Type
REMARK                         _______ _______ _______ _____ _____    ______ ____
ROOT
ATOM      1  O   UNL     1       0.112  10.543  22.957  0.00  0.00    +0.000 OA
ATOM      2  C   UNL     1      -0.385  11.261  22.092  0.00  0.00    +0.000 C 
ATOM      3  N   UNL     1      -0.168  11.167  20.732  0.00  0.00    +0.000 N 
ATOM      4  C   UNL     1       0.516  10.080  20.249  0.00  0.00    +0.000 A 
ATOM      5  N   UNL     1       0.794   8.974  20.892  0.00  0.00    +0.000 NA
ATOM      6  C   UNL     1       1.564   8.174  20.101  0.00  0.00    +0.000 A 
ATOM      7  C   UNL     1       1.851   8.671  18.847  0.00  0.00    +0.000 A 
ATOM      8  S   UNL     1       1.067  10.174  18.629  0.00  0.00    +0.000 S 
ATOM      9  C   UNL     1       2.751   7.992  17.866  0.00  0.00    +0.000 C 
ATOM     10  N   UNL     1       2.925   6.543  18.179  0.00  0.00    +0.000 NA
ATOM     11  C   UNL     1       3.184   6.359  19.638  0.00  0.00    +0.000 C 
ATOM     12  C   UNL     1       2.052   6.851  20.568  0.00  0.00    +0.000 C 
ATOM     13  H   UNL     1      -0.481  11.852  20.064  0.00  0.00    +0.000 HD
ENDROOT
BRANCH   2  14
ATOM     14  C   UNL     1      -1.294  12.334  22.579  0.00  0.00    +0.000 A 
ATOM     15  C   UNL     1      -0.743  13.625  22.665  0.00  0.00    +0.000 A 
ATOM     16  C   UNL     1      -1.492  14.697  23.145  0.00  0.00    +0.000 A 
ATOM     17  C   UNL     1      -2.823  14.503  23.496  0.00  0.00    +0.000 A 
ATOM     18  C   UNL     1      -3.402  13.244  23.318  0.00  0.00    +0.000 A 
ATOM     19  C   UNL     1      -2.636  12.139  22.905  0.00  0.00    +0.000 A 
BRANCH  18  20
ATOM     20  S   UNL     1      -5.134  13.023  23.674  0.00  0.00    +0.000 S 
ATOM     21  O   UNL     1      -5.217  11.938  24.621  0.00  0.00    +0.000 OA
ATOM     22  O   UNL     1      -5.690  14.325  23.969  0.00  0.00    +0.000 OA
BRANCH  20  23
ATOM     23  N   UNL     1      -5.780  12.483  22.216  0.00  0.00    +0.000 NA
ATOM     24  C   UNL     1      -5.112  12.794  20.931  0.00  0.00    +0.000 C 
ATOM     25  C   UNL     1      -5.877  13.876  20.161  0.00  0.00    +0.000 C 
ATOM     26  O   UNL     1      -7.248  13.509  19.967  0.00  0.00    +0.000 OA
ATOM     27  C   UNL     1      -7.916  13.308  21.220  0.00  0.00    +0.000 C 
ATOM     28  C   UNL     1      -7.233  12.225  22.059  0.00  0.00    +0.000 C 
ENDBRANCH  20  23
ENDBRANCH  18  20
ENDBRANCH   2  14
BRANCH  10  29
ATOM     29  C   UNL     1       1.764   5.732  17.761  0.00  0.00    +0.000 C 
BRANCH  29  30
ATOM     30  C   UNL     1       1.900   4.250  18.029  0.00  0.00    +0.000 A 
ATOM     31  C   UNL     1       2.918   3.494  17.433  0.00  0.00    +0.000 A 
ATOM     32  C   UNL     1       3.051   2.134  17.723  0.00  0.00    +0.000 A 
ATOM     33  C   UNL     1       2.171   1.520  18.613  0.00  0.00    +0.000 A 
ATOM     34  C   UNL     1       1.156   2.261  19.213  0.00  0.00    +0.000 A 
ATOM     35  C   UNL     1       1.021   3.619  18.924  0.00  0.00    +0.000 A 
ENDBRANCH  29  30
ENDBRANCH  10  29
TORSDOF 5
ENDMDL
MODEL 3
REMARK VINA RESULT:      -8.8      1.808      2.281
REMARK  Name = 
REMARK  5 active torsions:
REMARK  status: ('A' for Active; 'I' for Inactive)
REMARK    1  A    between atoms: C_2  and  C_20
REMARK    2  A    between atoms: N_10  and  C_11
REMARK    3  A    between atoms: C_11  and  C_12
REMARK    4  A    between atoms: C_24  and  S_25
REMARK    5  A    between atoms: S_25  and  N_28
REMARK                            x       y       z     vdW  Elec       q    Type
REMARK                         _______ _______ _______ _____ _____    ______ ____
ROOT
ATOM      1  O   UNL     1       1.882   8.471  19.235  0.00  0.00    +0.000 OA
ATOM      2  C   UNL     1       1.552   7.745  20.170  0.00  0.00    +0.000 C 
ATOM      3  N   UNL     1       0.833   8.127  21.285  0.00  0.00    +0.000 N 
ATOM      4  C   UNL     1       0.266   9.377  21.304  0.00  0.00    +0.000 A 
ATOM      5  N   UNL     1       0.111  10.188  20.288  0.00  0.00    +0.000 NA
ATOM      6  C   UNL     1      -0.411  11.368  20.729  0.00  0.00    +0.000 A 
ATOM      7  C   UNL     1      -0.671  11.439  22.082  0.00  0.00    +0.000 A 
ATOM      8  S   UNL     1      -0.306   9.940  22.819  0.00  0.00    +0.000 S 
ATOM      9  C   UNL     1      -1.157  12.670  22.775  0.00  0.00    +0.000 C 
ATOM     10  N   UNL     1      -1.767  13.643  21.821  0.00  0.00    +0.000 NA
ATOM     11  C   UNL     1      -0.901  13.793  20.615  0.00  0.00    +0.000 C 
ATOM     12  C   UNL     1      -0.685  12.496  19.802  0.00  0.00    +0.000 C 
ATOM     13  H   UNL     1       0.697   7.544  22.094  0.00  0.00    +0.000 HD
ENDROOT
BRANCH   2  14
ATOM     14  C   UNL     1       1.991   6.326  20.078  0.00  0.00    +0.000 A 
ATOM     15  C   UNL     1       1.196   5.383  20.753  0.00  0.00    +0.000 A 
ATOM     16  C   UNL     1       1.535   4.032  20.766  0.00  0.00    +0.000 A 
ATOM     17  C   UNL     1       2.647   3.597  20.057  0.00  0.00    +0.000 A 
ATOM     18  C   UNL     1       3.383   4.515  19.303  0.00  0.00    +0.000 A 
ATOM     19  C   UNL     1       3.093   5.891  19.343  0.00  0.00    +0.000 A 
BRANCH  18  20
ATOM     20  S   UNL     1       4.749   3.937  18.315  0.00  0.00    +0.000 S 
ATOM     21  O   UNL     1       5.822   3.651  19.237  0.00  0.00    +0.000 OA
ATOM     22  O   UNL     1       4.241   2.927  17.414  0.00  0.00    +0.000 OA
BRANCH  20  23
ATOM     23  N   UNL     1       5.192   5.286  17.412  0.00  0.00    +0.000 NA
ATOM     24  C   UNL     1       5.255   5.222  15.933  0.00  0.00    +0.000 C 
ATOM     25  C   UNL     1       6.707   5.182  15.446  0.00  0.00    +0.000 C 
ATOM     26  O   UNL     1       7.461   6.289  15.956  0.00  0.00    +0.000 OA
ATOM     27  C   UNL     1       7.480   6.289  17.390  0.00  0.00    +0.000 C 
ATOM     28  C   UNL     1       6.067   6.345  17.977  0.00  0.00    +0.000 C 
ENDBRANCH  20  23
ENDBRANCH  18  20
ENDBRANCH   2  14
BRANCH  10  29
ATOM     29  C   UNL     1      -3.136  13.259  21.422  0.00  0.00    +0.000 C 
BRANCH  29  30
ATOM     30  C   UNL     1      -4.234  13.890  22.248  0.00  0.00    +0.000 A 
ATOM     31  C   UNL     1      -5.189  13.105  22.908  0.00  0.00    +0.000 A 
ATOM     32  C   UNL     1      -6.173  13.704  23.698  0.00  0.00    +0.000 A 
ATOM     33  C   UNL     1      -6.209  15.091  23.838  0.00  0.00    +0.000 A 
ATOM     34  C   UNL     1      -5.264  15.881  23.188  0.00  0.00    +0.000 A 
ATOM     35  C   UNL     1      -4.281  15.285  22.398  0.00  0.00    +0.000 A 
ENDBRANCH  29  30
ENDBRANCH  10  29
TORSDOF 5
ENDMDL
MODEL 4
REMARK VINA RESULT:      -8.8      0.625      1.036
REMARK  Name = 
REMARK  5 active torsions:
REMARK  status: ('A' for Active; 'I' for Inactive)
REMARK    1  A    between atoms: C_2  and  C_20
REMARK    2  A    between atoms: N_10  and  C_11
REMARK    3  A    between atoms: C_11  and  C_12
REMARK    4  A    between atoms: C_24  and  S_25
REMARK    5  A    between atoms: S_25  and  N_28
REMARK                            x       y       z     vdW  Elec       q    Type
REMARK                         _______ _______ _______ _____ _____    ______ ____
ROOT
ATOM      1  O   UNL     1       2.267   8.760  17.460  0.00  0.00    +0.000 OA
ATOM      2  C   UNL     1       2.307   7.983  18.411  0.00  0.00    +0.000 C 
ATOM      3  N   UNL     1       1.817   8.221  19.680  0.00  0.00    +0.000 N 
ATOM      4  C   UNL     1       1.053   9.341  19.889  0.00  0.00    +0.000 A 
ATOM      5  N   UNL     1       0.516  10.111  18.978  0.00  0.00    +0.000 NA
ATOM      6  C   UNL     1      -0.093  11.171  19.583  0.00  0.00    +0.000 A 
ATOM      7  C   UNL     1      -0.031  11.189  20.960  0.00  0.00    +0.000 A 
ATOM      8  S   UNL     1       0.766   9.784  21.521  0.00  0.00    +0.000 S 
ATOM      9  C   UNL     1      -0.553  12.305  21.805  0.00  0.00    +0.000 C 
ATOM     10  N   UNL     1      -1.540  13.148  21.067  0.00  0.00    +0.000 NA
ATOM     11  C   UNL     1      -1.029  13.460  19.700  0.00  0.00    +0.000 C 
ATOM     12  C   UNL     1      -0.780  12.229  18.799  0.00  0.00    +0.000 C 
ATOM     13  H   UNL     1       1.987   7.621  20.470  0.00  0.00    +0.000 HD
ENDROOT
BRANCH   2  14
ATOM     14  C   UNL     1       2.963   6.672  18.153  0.00  0.00    +0.000 A 
ATOM     15  C   UNL     1       2.464   5.573  18.875  0.00  0.00    +0.000 A 
ATOM     16  C   UNL     1       3.028   4.307  18.741  0.00  0.00    +0.000 A 
ATOM     17  C   UNL     1       4.066   4.110  17.838  0.00  0.00    +0.000 A 
ATOM     18  C   UNL     1       4.498   5.177  17.046  0.00  0.00    +0.000 A 
ATOM     19  C   UNL     1       3.986   6.475  17.227  0.00  0.00    +0.000 A 
BRANCH  18  20
ATOM     20  S   UNL     1       5.761   4.897  15.820  0.00  0.00    +0.000 S 
ATOM     21  O   UNL     1       5.832   3.469  15.632  0.00  0.00    +0.000 OA
ATOM     22  O   UNL     1       5.503   5.791  14.713  0.00  0.00    +0.000 OA
BRANCH  20  23
ATOM     23  N   UNL     1       7.178   5.388  16.583  0.00  0.00    +0.000 NA
ATOM     24  C   UNL     1       7.667   4.690  17.795  0.00  0.00    +0.000 C 
ATOM     25  C   UNL     1       7.426   5.534  19.050  0.00  0.00    +0.000 C 
ATOM     26  O   UNL     1       8.008   6.838  18.924  0.00  0.00    +0.000 OA
ATOM     27  C   UNL     1       7.456   7.547  17.806  0.00  0.00    +0.000 C 
ATOM     28  C   UNL     1       7.664   6.788  16.493  0.00  0.00    +0.000 C 
ENDBRANCH  20  23
ENDBRANCH  18  20
ENDBRANCH   2  14
BRANCH  10  29
ATOM     29  C   UNL     1      -2.871  12.514  20.982  0.00  0.00    +0.000 C 
BRANCH  29  30
ATOM     30  C   UNL     1      -3.951  13.202  21.786  0.00  0.00    +0.000 A 
ATOM     31  C   UNL     1      -4.144  12.908  23.143  0.00  0.00    +0.000 A 
ATOM     32  C   UNL     1      -5.121  13.582  23.879  0.00  0.00    +0.000 A 
ATOM     33  C   UNL     1      -5.909  14.557  23.269  0.00  0.00    +0.000 A 
ATOM     34  C   UNL     1      -5.725  14.859  21.921  0.00  0.00    +0.000 A 
ATOM     35  C   UNL     1      -4.751  14.186  21.184  0.00  0.00    +0.000 A 
ENDBRANCH  29  30
ENDBRANCH  10  29
TORSDOF 5
ENDMDL
MODEL 5
REMARK VINA RESULT:      -8.6      1.197      1.562
REMARK  Name = 
REMARK  5 active torsions:
REMARK  status: ('A' for Active; 'I' for Inactive)
REMARK    1  A    between atoms: C_2  and  C_20
REMARK    2  A    between atoms: N_10  and  C_11
REMARK    3  A    between atoms: C_11  and  C_12
REMARK    4  A    between atoms: C_24  and  S_25
REMARK    5  A    between atoms: S_25  and  N_28
REMARK                            x       y       z     vdW  Elec       q    Type
REMARK                         _______ _______ _______ _____ _____    ______ ____
ROOT
ATOM      1  O   UNL     1       2.152   8.715  17.494  0.00  0.00    +0.000 OA
ATOM      2  C   UNL     1       2.274   7.969  18.463  0.00  0.00    +0.000 C 
ATOM      3  N   UNL     1       1.852   8.231  19.752  0.00  0.00    +0.000 N 
ATOM      4  C   UNL     1       1.064   9.332  19.973  0.00  0.00    +0.000 A 
ATOM      5  N   UNL     1       0.449  10.055  19.073  0.00  0.00    +0.000 NA
ATOM      6  C   UNL     1      -0.158  11.114  19.683  0.00  0.00    +0.000 A 
ATOM      7  C   UNL     1      -0.016  11.177  21.053  0.00  0.00    +0.000 A 
ATOM      8  S   UNL     1       0.859   9.816  21.605  0.00  0.00    +0.000 S 
ATOM      9  C   UNL     1      -0.525  12.302  21.894  0.00  0.00    +0.000 C 
ATOM     10  N   UNL     1      -1.581  13.089  21.192  0.00  0.00    +0.000 NA
ATOM     11  C   UNL     1      -1.162  13.376  19.788  0.00  0.00    +0.000 C 
ATOM     12  C   UNL     1      -0.926  12.125  18.911  0.00  0.00    +0.000 C 
ATOM     13  H   UNL     1       2.087   7.661  20.547  0.00  0.00    +0.000 HD
ENDROOT
BRANCH   2  14
ATOM     14  C   UNL     1       2.957   6.673  18.204  0.00  0.00    +0.000 A 
ATOM     15  C   UNL     1       2.501   5.569  18.948  0.00  0.00    +0.000 A 
ATOM     16  C   UNL     1       3.093   4.316  18.814  0.00  0.00    +0.000 A 
ATOM     17  C   UNL     1       4.117   4.135  17.893  0.00  0.00    +0.000 A 
ATOM     18  C   UNL     1       4.506   5.204  17.081  0.00  0.00    +0.000 A 
ATOM     19  C   UNL     1       3.966   6.491  17.259  0.00  0.00    +0.000 A 
BRANCH  18  20
ATOM     20  S   UNL     1       5.750   4.943  15.832  0.00  0.00    +0.000 S 
ATOM     21  O   UNL     1       5.811   3.518  15.614  0.00  0.00    +0.000 OA
ATOM     22  O   UNL     1       5.482   5.860  14.747  0.00  0.00    +0.000 OA
BRANCH  20  23
ATOM     23  N   UNL     1       7.181   5.410  16.585  0.00  0.00    +0.000 NA
ATOM     24  C   UNL     1       7.684   4.683  17.774  0.00  0.00    +0.000 C 
ATOM     25  C   UNL     1       7.465   5.501  19.052  0.00  0.00    +0.000 C 
ATOM     26  O   UNL     1       8.050   6.804  18.946  0.00  0.00    +0.000 OA
ATOM     27  C   UNL     1       7.487   7.541  17.852  0.00  0.00    +0.000 C 
ATOM     28  C   UNL     1       7.672   6.809  16.520  0.00  0.00    +0.000 C 
ENDBRANCH  20  23
ENDBRANCH  18  20
ENDBRANCH   2  14
BRANCH  10  29
ATOM     29  C   UNL     1      -2.893  12.412  21.205  0.00  0.00    +0.000 C 
BRANCH  29  30
ATOM     30  C   UNL     1      -4.043  13.252  20.696  0.00  0.00    +0.000 A 
ATOM     31  C   UNL     1      -4.909  12.773  19.704  0.00  0.00    +0.000 A 
ATOM     32  C   UNL     1      -5.989  13.548  19.275  0.00  0.00    +0.000 A 
ATOM     33  C   UNL     1      -6.214  14.805  19.834  0.00  0.00    +0.000 A 
ATOM     34  C   UNL     1      -5.360  15.291  20.822  0.00  0.00    +0.000 A 
ATOM     35  C   UNL     1      -4.281  14.519  21.251  0.00  0.00    +0.000 A 
ENDBRANCH  29  30
ENDBRANCH  10  29
TORSDOF 5
ENDMDL
MODEL 6
REMARK VINA RESULT:      -8.6      2.011      2.801
REMARK  Name = 
REMARK  5 active torsions:
REMARK  status: ('A' for Active; 'I' for Inactive)
REMARK    1  A    between atoms: C_2  and  C_20
REMARK    2  A    between atoms: N_10  and  C_11
REMARK    3  A    between atoms: C_11  and  C_12
REMARK    4  A    between atoms: C_24  and  S_25
REMARK    5  A    between atoms: S_25  and  N_28
REMARK                            x       y       z     vdW  Elec       q    Type
REMARK                         _______ _______ _______ _____ _____    ______ ____
ROOT
ATOM      1  O   UNL     1       1.545   8.484  19.284  0.00  0.00    +0.000 OA
ATOM      2  C   UNL     1       1.426   7.791  20.292  0.00  0.00    +0.000 C 
ATOM      3  N   UNL     1       0.808   8.165  21.469  0.00  0.00    +0.000 N 
ATOM      4  C   UNL     1       0.098   9.339  21.494  0.00  0.00    +0.000 A 
ATOM      5  N   UNL     1      -0.280  10.054  20.466  0.00  0.00    +0.000 NA
ATOM      6  C   UNL     1      -0.885  11.194  20.907  0.00  0.00    +0.000 A 
ATOM      7  C   UNL     1      -0.982  11.328  22.276  0.00  0.00    +0.000 A 
ATOM      8  S   UNL     1      -0.347   9.936  23.038  0.00  0.00    +0.000 S 
ATOM      9  C   UNL     1      -1.526  12.540  22.959  0.00  0.00    +0.000 C 
ATOM     10  N   UNL     1      -2.365  13.368  22.043  0.00  0.00    +0.000 NA
ATOM     11  C   UNL     1      -1.680  13.532  20.727  0.00  0.00    +0.000 C 
ATOM     12  C   UNL     1      -1.408  12.216  19.964  0.00  0.00    +0.000 C 
ATOM     13  H   UNL     1       0.846   7.627  22.319  0.00  0.00    +0.000 HD
ENDROOT
BRANCH   2  14
ATOM     14  C   UNL     1       2.021   6.430  20.220  0.00  0.00    +0.000 A 
ATOM     15  C   UNL     1       1.190   5.365  20.608  0.00  0.00    +0.000 A 
ATOM     16  C   UNL     1       1.656   4.052  20.617  0.00  0.00    +0.000 A 
ATOM     17  C   UNL     1       2.948   3.780  20.184  0.00  0.00    +0.000 A 
ATOM     18  C   UNL     1       3.744   4.823  19.702  0.00  0.00    +0.000 A 
ATOM     19  C   UNL     1       3.310   6.159  19.758  0.00  0.00    +0.000 A 
BRANCH  18  20
ATOM     20  S   UNL     1       5.363   4.455  19.054  0.00  0.00    +0.000 S 
ATOM     21  O   UNL     1       6.305   5.128  19.915  0.00  0.00    +0.000 OA
ATOM     22  O   UNL     1       5.432   3.029  18.830  0.00  0.00    +0.000 OA
BRANCH  20  23
ATOM     23  N   UNL     1       5.385   5.232  17.561  0.00  0.00    +0.000 NA
ATOM     24  C   UNL     1       5.429   4.453  16.302  0.00  0.00    +0.000 C 
ATOM     25  C   UNL     1       6.821   4.517  15.665  0.00  0.00    +0.000 C 
ATOM     26  O   UNL     1       7.242   5.871  15.460  0.00  0.00    +0.000 OA
ATOM     27  C   UNL     1       7.294   6.593  16.699  0.00  0.00    +0.000 C 
ATOM     28  C   UNL     1       5.936   6.602  17.407  0.00  0.00    +0.000 C 
ENDBRANCH  20  23
ENDBRANCH  18  20
ENDBRANCH   2  14
BRANCH  10  29
ATOM     29  C   UNL     1      -3.715  12.802  21.848  0.00  0.00    +0.000 C 
BRANCH  29  30
ATOM     30  C   UNL     1      -4.648  13.664  21.027  0.00  0.00    +0.000 A 
ATOM     31  C   UNL     1      -5.313  13.150  19.906  0.00  0.00    +0.000 A 
ATOM     32  C   UNL     1      -6.202  13.950  19.184  0.00  0.00    +0.000 A 
ATOM     33  C   UNL     1      -6.436  15.267  19.578  0.00  0.00    +0.000 A 
ATOM     34  C   UNL     1      -5.781  15.788  20.692  0.00  0.00    +0.000 A 
ATOM     35  C   UNL     1      -4.893  14.991  21.414  0.00  0.00    +0.000 A 
ENDBRANCH  29  30
ENDBRANCH  10  29
TORSDOF 5
ENDMDL
MODEL 7
REMARK VINA RESULT:      -8.5      1.894      2.737
REMARK  Name = 
REMARK  5 active torsions:
REMARK  status: ('A' for Active; 'I' for Inactive)
REMARK    1  A    between atoms: C_2  and  C_20
REMARK    2  A    between atoms: N_10  and  C_11
REMARK    3  A    between atoms: C_11  and  C_12
REMARK    4  A    between atoms: C_24  and  S_25
REMARK    5  A    between atoms: S_25  and  N_28
REMARK                            x       y       z     vdW  Elec       q    Type
REMARK                         _______ _______ _______ _____ _____    ______ ____
ROOT
ATOM      1  O   UNL     1       1.607   8.544  19.335  0.00  0.00    +0.000 OA
ATOM      2  C   UNL     1       1.445   7.827  20.319  0.00  0.00    +0.000 C 
ATOM      3  N   UNL     1       0.795   8.178  21.486  0.00  0.00    +0.000 N 
ATOM      4  C   UNL     1       0.102   9.362  21.521  0.00  0.00    +0.000 A 
ATOM      5  N   UNL     1      -0.231  10.111  20.501  0.00  0.00    +0.000 NA
ATOM      6  C   UNL     1      -0.833  11.248  20.953  0.00  0.00    +0.000 A 
ATOM      7  C   UNL     1      -0.972  11.346  22.322  0.00  0.00    +0.000 A 
ATOM      8  S   UNL     1      -0.384   9.924  23.066  0.00  0.00    +0.000 S 
ATOM      9  C   UNL     1      -1.520  12.548  23.021  0.00  0.00    +0.000 C 
ATOM     10  N   UNL     1      -2.316  13.414  22.101  0.00  0.00    +0.000 NA
ATOM     11  C   UNL     1      -1.586  13.603  20.813  0.00  0.00    +0.000 C 
ATOM     12  C   UNL     1      -1.310  12.303  20.023  0.00  0.00    +0.000 C 
ATOM     13  H   UNL     1       0.797   7.617  22.321  0.00  0.00    +0.000 HD
ENDROOT
BRANCH   2  14
ATOM     14  C   UNL     1       2.021   6.458  20.229  0.00  0.00    +0.000 A 
ATOM     15  C   UNL     1       1.179   5.400  20.615  0.00  0.00    +0.000 A 
ATOM     16  C   UNL     1       1.628   4.082  20.607  0.00  0.00    +0.000 A 
ATOM     17  C   UNL     1       2.912   3.797  20.160  0.00  0.00    +0.000 A 
ATOM     18  C   UNL     1       3.717   4.833  19.680  0.00  0.00    +0.000 A 
ATOM     19  C   UNL     1       3.301   6.175  19.753  0.00  0.00    +0.000 A 
BRANCH  18  20
ATOM     20  S   UNL     1       5.326   4.451  19.014  0.00  0.00    +0.000 S 
ATOM     21  O   UNL     1       6.271   5.250  19.756  0.00  0.00    +0.000 OA
ATOM     22  O   UNL     1       5.442   3.011  18.949  0.00  0.00    +0.000 OA
BRANCH  20  23
ATOM     23  N   UNL     1       5.264   5.054  17.443  0.00  0.00    +0.000 NA
ATOM     24  C   UNL     1       4.761   4.217  16.329  0.00  0.00    +0.000 C 
ATOM     25  C   UNL     1       5.913   3.733  15.442  0.00  0.00    +0.000 C 
ATOM     26  O   UNL     1       6.700   4.830  14.962  0.00  0.00    +0.000 OA
ATOM     27  C   UNL     1       7.267   5.578  16.046  0.00  0.00    +0.000 C 
ATOM     28  C   UNL     1       6.187   6.122  16.985  0.00  0.00    +0.000 C 
ENDBRANCH  20  23
ENDBRANCH  18  20
ENDBRANCH   2  14
BRANCH  10  29
ATOM     29  C   UNL     1      -3.667  12.875  21.847  0.00  0.00    +0.000 C 
BRANCH  29  30
ATOM     30  C   UNL     1      -4.798  13.823  22.182  0.00  0.00    +0.000 A 
ATOM     31  C   UNL     1      -4.904  14.408  23.450  0.00  0.00    +0.000 A 
ATOM     32  C   UNL     1      -5.932  15.311  23.728  0.00  0.00    +0.000 A 
ATOM     33  C   UNL     1      -6.861  15.639  22.740  0.00  0.00    +0.000 A 
ATOM     34  C   UNL     1      -6.764  15.065  21.475  0.00  0.00    +0.000 A 
ATOM     35  C   UNL     1      -5.738  14.162  21.196  0.00  0.00    +0.000 A 
ENDBRANCH  29  30
ENDBRANCH  10  29
TORSDOF 5
ENDMDL
MODEL 8
REMARK VINA RESULT:      -8.4      1.867      2.264
REMARK  Name = 
REMARK  5 active torsions:
REMARK  status: ('A' for Active; 'I' for Inactive)
REMARK    1  A    between atoms: C_2  and  C_20
REMARK    2  A    between atoms: N_10  and  C_11
REMARK    3  A    between atoms: C_11  and  C_12
REMARK    4  A    between atoms: C_24  and  S_25
REMARK    5  A    between atoms: S_25  and  N_28
REMARK                            x       y       z     vdW  Elec       q    Type
REMARK                         _______ _______ _______ _____ _____    ______ ____
ROOT
ATOM      1  O   UNL     1       2.190   8.032  19.222  0.00  0.00    +0.000 OA
ATOM      2  C   UNL     1       1.750   7.343  20.140  0.00  0.00    +0.000 C 
ATOM      3  N   UNL     1       0.980   7.787  21.196  0.00  0.00    +0.000 N 
ATOM      4  C   UNL     1       0.494   9.070  21.160  0.00  0.00    +0.000 A 
ATOM      5  N   UNL     1       0.463   9.873  20.127  0.00  0.00    +0.000 NA
ATOM      6  C   UNL     1      -0.012  11.091  20.516  0.00  0.00    +0.000 A 
ATOM      7  C   UNL     1      -0.361  11.199  21.846  0.00  0.00    +0.000 A 
ATOM      8  S   UNL     1      -0.146   9.692  22.624  0.00  0.00    +0.000 S 
ATOM      9  C   UNL     1      -0.815  12.469  22.489  0.00  0.00    +0.000 C 
ATOM     10  N   UNL     1      -1.293  13.463  21.484  0.00  0.00    +0.000 NA
ATOM     11  C   UNL     1      -0.337  13.540  20.340  0.00  0.00    +0.000 C 
ATOM     12  C   UNL     1      -0.147  12.219  19.559  0.00  0.00    +0.000 C 
ATOM     13  H   UNL     1       0.750   7.227  22.000  0.00  0.00    +0.000 HD
ENDROOT
BRANCH   2  14
ATOM     14  C   UNL     1       2.102   5.898  20.095  0.00  0.00    +0.000 A 
ATOM     15  C   UNL     1       1.898   5.170  21.281  0.00  0.00    +0.000 A 
ATOM     16  C   UNL     1       2.230   3.820  21.364  0.00  0.00    +0.000 A 
ATOM     17  C   UNL     1       2.721   3.163  20.242  0.00  0.00    +0.000 A 
ATOM     18  C   UNL     1       2.831   3.858  19.034  0.00  0.00    +0.000 A 
ATOM     19  C   UNL     1       2.570   5.238  18.959  0.00  0.00    +0.000 A 
BRANCH  18  20
ATOM     20  S   UNL     1       3.367   2.988  17.574  0.00  0.00    +0.000 S 
ATOM     21  O   UNL     1       3.654   1.637  17.991  0.00  0.00    +0.000 OA
ATOM     22  O   UNL     1       2.413   3.266  16.523  0.00  0.00    +0.000 OA
BRANCH  20  23
ATOM     23  N   UNL     1       4.827   3.726  17.179  0.00  0.00    +0.000 NA
ATOM     24  C   UNL     1       5.805   4.085  18.232  0.00  0.00    +0.000 C 
ATOM     25  C   UNL     1       5.814   5.597  18.480  0.00  0.00    +0.000 C 
ATOM     26  O   UNL     1       6.054   6.325  17.270  0.00  0.00    +0.000 OA
ATOM     27  C   UNL     1       5.047   6.049  16.287  0.00  0.00    +0.000 C 
ATOM     28  C   UNL     1       4.972   4.556  15.956  0.00  0.00    +0.000 C 
ENDBRANCH  20  23
ENDBRANCH  18  20
ENDBRANCH   2  14
BRANCH  10  29
ATOM     29  C   UNL     1      -2.652  13.161  20.993  0.00  0.00    +0.000 C 
BRANCH  29  30
ATOM     30  C   UNL     1      -3.769  13.627  21.899  0.00  0.00    +0.000 A 
ATOM     31  C   UNL     1      -4.844  12.786  22.218  0.00  0.00    +0.000 A 
ATOM     32  C   UNL     1      -5.846  13.221  23.089  0.00  0.00    +0.000 A 
ATOM     33  C   UNL     1      -5.782  14.496  23.649  0.00  0.00    +0.000 A 
ATOM     34  C   UNL     1      -4.718  15.340  23.340  0.00  0.00    +0.000 A 
ATOM     35  C   UNL     1      -3.716  14.908  22.470  0.00  0.00    +0.000 A 
ENDBRANCH  29  30
ENDBRANCH  10  29
TORSDOF 5
ENDMDL
MODEL 9
REMARK VINA RESULT:      -8.4      2.140      3.680
REMARK  Name = 
REMARK  5 active torsions:
REMARK  status: ('A' for Active; 'I' for Inactive)
REMARK    1  A    between atoms: C_2  and  C_20
REMARK    2  A    between atoms: N_10  and  C_11
REMARK    3  A    between atoms: C_11  and  C_12
REMARK    4  A    between atoms: C_24  and  S_25
REMARK    5  A    between atoms: S_25  and  N_28
REMARK                            x       y       z     vdW  Elec       q    Type
REMARK                         _______ _______ _______ _____ _____    ______ ____
ROOT
ATOM      1  O   UNL     1       1.718   6.351  20.656  0.00  0.00    +0.000 OA
ATOM      2  C   UNL     1       2.226   6.591  19.563  0.00  0.00    +0.000 C 
ATOM      3  N   UNL     1       2.063   7.748  18.825  0.00  0.00    +0.000 N 
ATOM      4  C   UNL     1       1.432   8.816  19.410  0.00  0.00    +0.000 A 
ATOM      5  N   UNL     1       1.164   8.975  20.681  0.00  0.00    +0.000 NA
ATOM      6  C   UNL     1       0.449  10.124  20.852  0.00  0.00    +0.000 A 
ATOM      7  C   UNL     1       0.195  10.845  19.705  0.00  0.00    +0.000 A 
ATOM      8  S   UNL     1       0.940  10.085  18.367  0.00  0.00    +0.000 S 
ATOM      9  C   UNL     1      -0.646  12.080  19.664  0.00  0.00    +0.000 C 
ATOM     10  N   UNL     1      -0.787  12.703  21.014  0.00  0.00    +0.000 NA
ATOM     11  C   UNL     1      -1.096  11.657  22.033  0.00  0.00    +0.000 C 
ATOM     12  C   UNL     1      -0.015  10.563  22.193  0.00  0.00    +0.000 C 
ATOM     13  H   UNL     1       2.380   7.859  17.877  0.00  0.00    +0.000 HD
ENDROOT
BRANCH   2  14
ATOM     14  C   UNL     1       3.082   5.517  18.992  0.00  0.00    +0.000 A 
ATOM     15  C   UNL     1       2.962   4.246  19.582  0.00  0.00    +0.000 A 
ATOM     16  C   UNL     1       3.744   3.176  19.153  0.00  0.00    +0.000 A 
ATOM     17  C   UNL     1       4.620   3.349  18.088  0.00  0.00    +0.000 A 
ATOM     18  C   UNL     1       4.668   4.583  17.434  0.00  0.00    +0.000 A 
ATOM     19  C   UNL     1       3.939   5.689  17.906  0.00  0.00    +0.000 A 
BRANCH  18  20
ATOM     20  S   UNL     1       5.719   4.771  16.006  0.00  0.00    +0.000 S 
ATOM     21  O   UNL     1       5.946   3.442  15.493  0.00  0.00    +0.000 OA
ATOM     22  O   UNL     1       5.151   5.812  15.179  0.00  0.00    +0.000 OA
BRANCH  20  23
ATOM     23  N   UNL     1       7.172   5.330  16.647  0.00  0.00    +0.000 NA
ATOM     24  C   UNL     1       7.768   4.692  17.843  0.00  0.00    +0.000 C 
ATOM     25  C   UNL     1       7.591   5.576  19.083  0.00  0.00    +0.000 C 
ATOM     26  O   UNL     1       8.121   6.890  18.869  0.00  0.00    +0.000 OA
ATOM     27  C   UNL     1       7.469   7.541  17.770  0.00  0.00    +0.000 C 
ATOM     28  C   UNL     1       7.605   6.739  16.473  0.00  0.00    +0.000 C 
ENDBRANCH  20  23
ENDBRANCH  18  20
ENDBRANCH   2  14
BRANCH  10  29
ATOM     29  C   UNL     1       0.413  13.465  21.412  0.00  0.00    +0.000 C 
BRANCH  29  30
ATOM     30  C   UNL     1       0.874  14.491  20.401  0.00  0.00    +0.000 A 
ATOM     31  C   UNL     1       0.082  15.602  20.080  0.00  0.00    +0.000 A 
ATOM     32  C   UNL     1       0.542  16.559  19.173  0.00  0.00    +0.000 A 
ATOM     33  C   UNL     1       1.797  16.416  18.582  0.00  0.00    +0.000 A 
ATOM     34  C   UNL     1       2.594  15.316  18.894  0.00  0.00    +0.000 A 
ATOM     35  C   UNL     1       2.135  14.359  19.799  0.00  0.00    +0.000 A 
ENDBRANCH  29  30
ENDBRANCH  10  29
TORSDOF 5
ENDMDL
