MODEL 1
REMARK VINA RESULT:      -7.2      0.000      0.000
REMARK  Name = 
REMARK  5 active torsions:
REMARK  status: ('A' for Active; 'I' for Inactive)
REMARK    1  A    between atoms: C_2  and  C_3
REMARK    2  A    between atoms: N_6  and  C_7
REMARK    3  A    between atoms: C_13  and  C_14
REMARK    4  A    between atoms: C_16  and  C_17
REMARK    5  A    between atoms: C_22  and  C_23
REMARK                            x       y       z     vdW  Elec       q    Type
REMARK                         _______ _______ _______ _____ _____    ______ ____
ROOT
ATOM      1  O   UNL     1       8.061   4.407  16.831  0.00  0.00    +0.000 OA
ATOM      2  C   UNL     1       7.176   4.946  16.176  0.00  0.00    +0.000 C 
ATOM      3  N   UNL     1       6.154   5.656  16.791  0.00  0.00    +0.000 N 
ATOM      4  C   UNL     1       6.200   5.964  18.211  0.00  0.00    +0.000 C 
ATOM      5  C   UNL     1       4.752   5.870  18.674  0.00  0.00    +0.000 C 
ATOM      6  C   UNL     1       3.935   6.294  17.437  0.00  0.00    +0.000 C 
ATOM      7  C   UNL     1       4.811   5.856  16.252  0.00  0.00    +0.000 C 
ENDROOT
BRANCH   5   8
ATOM      8  C   UNL     1       4.382   4.498  19.145  0.00  0.00    +0.000 A 
ATOM      9  N   UNL     1       3.177   4.108  19.492  0.00  0.00    +0.000 NA
ATOM     10  C   UNL     1       3.362   2.821  19.919  0.00  0.00    +0.000 A 
ATOM     11  N   UNL     1       4.615   2.375  19.815  0.00  0.00    +0.000 NA
ATOM     12  N   UNL     1       5.251   3.454  19.334  0.00  0.00    +0.000 N 
ATOM     13  H   UNL     1       6.256   3.420  19.196  0.00  0.00    +0.000 HD
BRANCH  10  14
ATOM     14  C   UNL     1       2.230   1.989  20.493  0.00  0.00    +0.000 C 
ATOM     15  C   UNL     1       0.821   2.541  20.404  0.00  0.00    +0.000 C 
ATOM     16  C   UNL     1       1.514   2.518  21.723  0.00  0.00    +0.000 C 
ENDBRANCH  10  14
ENDBRANCH   5   8
BRANCH   2  17
ATOM     17  C   UNL     1       7.126   4.822  14.732  0.00  0.00    +0.000 A 
ATOM     18  C   UNL     1       7.855   5.506  13.734  0.00  0.00    +0.000 A 
ATOM     19  N   UNL     1       7.530   5.128  12.499  0.00  0.00    +0.000 NA
ATOM     20  N   UNL     1       6.649   4.133  12.699  0.00  0.00    +0.000 N 
ATOM     21  C   UNL     1       6.372   3.909  14.015  0.00  0.00    +0.000 A 
BRANCH  20  22
ATOM     22  C   UNL     1       6.080   3.373  11.609  0.00  0.00    +0.000 C 
ATOM     23  C   UNL     1       4.580   3.136  11.532  0.00  0.00    +0.000 C 
ATOM     24  C   UNL     1       5.484   1.994  11.839  0.00  0.00    +0.000 C 
ENDBRANCH  20  22
ENDBRANCH   2  17
BRANCH   6  25
ATOM     25  C   UNL     1       3.690   7.789  17.389  0.00  0.00    +0.000 C 
ATOM     26  C   UNL     1       3.014   8.508  18.528  0.00  0.00    +0.000 C 
ATOM     27  C   UNL     1       2.276   8.296  17.238  0.00  0.00    +0.000 C 
ENDBRANCH   6  25
TORSDOF 5
ENDMDL
MODEL 2
REMARK VINA RESULT:      -6.9      6.955      9.918
REMARK  Name = 
REMARK  5 active torsions:
REMARK  status: ('A' for Active; 'I' for Inactive)
REMARK    1  A    between atoms: C_2  and  C_3
REMARK    2  A    between atoms: N_6  and  C_7
REMARK    3  A    between atoms: C_13  and  C_14
REMARK    4  A    between atoms: C_16  and  C_17
REMARK    5  A    between atoms: C_22  and  C_23
REMARK                            x       y       z     vdW  Elec       q    Type
REMARK                         _______ _______ _______ _____ _____    ______ ____
ROOT
ATOM      1  O   UNL     1       1.239  11.514  20.936  0.00  0.00    +0.000 OA
ATOM      2  C   UNL     1       0.762  10.675  20.179  0.00  0.00    +0.000 C 
ATOM      3  N   UNL     1      -0.272  10.993  19.310  0.00  0.00    +0.000 N 
ATOM      4  C   UNL     1      -0.694  12.370  19.112  0.00  0.00    +0.000 C 
ATOM      5  C   UNL     1      -2.203  12.289  18.926  0.00  0.00    +0.000 C 
ATOM      6  C   UNL     1      -2.425  10.918  18.257  0.00  0.00    +0.000 C 
ATOM      7  C   UNL     1      -1.269  10.057  18.793  0.00  0.00    +0.000 C 
ENDROOT
BRANCH   5   8
ATOM      8  C   UNL     1      -2.953  12.411  20.215  0.00  0.00    +0.000 A 
ATOM      9  N   UNL     1      -2.415  12.443  21.413  0.00  0.00    +0.000 NA
ATOM     10  C   UNL     1      -3.493  12.477  22.254  0.00  0.00    +0.000 A 
ATOM     11  N   UNL     1      -4.677  12.512  21.640  0.00  0.00    +0.000 NA
ATOM     12  N   UNL     1      -4.317  12.456  20.348  0.00  0.00    +0.000 N 
ATOM     13  H   UNL     1      -5.036  12.419  19.632  0.00  0.00    +0.000 HD
BRANCH  10  14
ATOM     14  C   UNL     1      -3.342  12.446  23.764  0.00  0.00    +0.000 C 
ATOM     15  C   UNL     1      -4.599  12.511  24.609  0.00  0.00    +0.000 C 
ATOM     16  C   UNL     1      -3.706  13.701  24.538  0.00  0.00    +0.000 C 
ENDBRANCH  10  14
ENDBRANCH   5   8
BRANCH   2  17
ATOM     17  C   UNL     1       1.221   9.300  20.194  0.00  0.00    +0.000 A 
ATOM     18  C   UNL     1       1.021   8.283  21.154  0.00  0.00    +0.000 A 
ATOM     19  N   UNL     1       1.608   7.133  20.827  0.00  0.00    +0.000 NA
ATOM     20  N   UNL     1       2.118   7.379  19.608  0.00  0.00    +0.000 N 
ATOM     21  C   UNL     1       1.916   8.659  19.183  0.00  0.00    +0.000 A 
BRANCH  20  22
ATOM     22  C   UNL     1       2.793   6.363  18.833  0.00  0.00    +0.000 C 
ATOM     23  C   UNL     1       1.996   5.333  18.046  0.00  0.00    +0.000 C 
ATOM     24  C   UNL     1       2.758   4.902  19.250  0.00  0.00    +0.000 C 
ENDBRANCH  20  22
ENDBRANCH   2  17
BRANCH   6  25
ATOM     25  C   UNL     1      -2.369  10.995  16.745  0.00  0.00    +0.000 C 
ATOM     26  C   UNL     1      -3.622  11.159  15.923  0.00  0.00    +0.000 C 
ATOM     27  C   UNL     1      -2.903   9.841  15.931  0.00  0.00    +0.000 C 
ENDBRANCH   6  25
TORSDOF 5
ENDMDL
MODEL 3
REMARK VINA RESULT:      -6.6      7.372     10.394
REMARK  Name = 
REMARK  5 active torsions:
REMARK  status: ('A' for Active; 'I' for Inactive)
REMARK    1  A    between atoms: C_2  and  C_3
REMARK    2  A    between atoms: N_6  and  C_7
REMARK    3  A    between atoms: C_13  and  C_14
REMARK    4  A    between atoms: C_16  and  C_17
REMARK    5  A    between atoms: C_22  and  C_23
REMARK                            x       y       z     vdW  Elec       q    Type
REMARK                         _______ _______ _______ _____ _____    ______ ____
ROOT
ATOM      1  O   UNL     1       0.088  12.041  20.145  0.00  0.00    +0.000 OA
ATOM      2  C   UNL     1      -0.102  10.983  19.557  0.00  0.00    +0.000 C 
ATOM      3  N   UNL     1      -1.016  10.890  18.517  0.00  0.00    +0.000 N 
ATOM      4  C   UNL     1      -1.634  12.077  17.947  0.00  0.00    +0.000 C 
ATOM      5  C   UNL     1      -3.053  11.645  17.602  0.00  0.00    +0.000 C 
ATOM      6  C   UNL     1      -2.917  10.150  17.256  0.00  0.00    +0.000 C 
ATOM      7  C   UNL     1      -1.733   9.680  18.118  0.00  0.00    +0.000 C 
ENDROOT
BRANCH   5   8
ATOM      8  C   UNL     1      -4.017  11.875  18.724  0.00  0.00    +0.000 A 
ATOM      9  N   UNL     1      -5.303  11.609  18.693  0.00  0.00    +0.000 NA
ATOM     10  C   UNL     1      -5.758  12.062  19.901  0.00  0.00    +0.000 A 
ATOM     11  N   UNL     1      -4.813  12.557  20.702  0.00  0.00    +0.000 NA
ATOM     12  N   UNL     1      -3.717  12.443  19.935  0.00  0.00    +0.000 N 
ATOM     13  H   UNL     1      -2.829  12.795  20.279  0.00  0.00    +0.000 HD
BRANCH  10  14
ATOM     14  C   UNL     1      -7.228  12.027  20.277  0.00  0.00    +0.000 C 
ATOM     15  C   UNL     1      -7.587  11.895  21.743  0.00  0.00    +0.000 C 
ATOM     16  C   UNL     1      -7.785  10.731  20.837  0.00  0.00    +0.000 C 
ENDBRANCH  10  14
ENDBRANCH   5   8
BRANCH   2  17
ATOM     17  C   UNL     1       0.582   9.768  19.954  0.00  0.00    +0.000 A 
ATOM     18  C   UNL     1       0.506   9.031  21.157  0.00  0.00    +0.000 A 
ATOM     19  N   UNL     1       1.296   7.959  21.164  0.00  0.00    +0.000 NA
ATOM     20  N   UNL     1       1.820   7.951  19.927  0.00  0.00    +0.000 N 
ATOM     21  C   UNL     1       1.428   9.010  19.163  0.00  0.00    +0.000 A 
BRANCH  20  22
ATOM     22  C   UNL     1       2.698   6.899  19.466  0.00  0.00    +0.000 C 
ATOM     23  C   UNL     1       2.130   5.645  18.819  0.00  0.00    +0.000 C 
ATOM     24  C   UNL     1       2.750   5.553  20.170  0.00  0.00    +0.000 C 
ENDBRANCH  20  22
ENDBRANCH   2  17
BRANCH   6  25
ATOM     25  C   UNL     1      -2.624   9.919  15.787  0.00  0.00    +0.000 C 
ATOM     26  C   UNL     1      -3.122  10.872  14.731  0.00  0.00    +0.000 C 
ATOM     27  C   UNL     1      -3.753   9.517  14.869  0.00  0.00    +0.000 C 
ENDBRANCH   6  25
TORSDOF 5
ENDMDL
MODEL 4
REMARK VINA RESULT:      -6.6      5.165      8.607
REMARK  Name = 
REMARK  5 active torsions:
REMARK  status: ('A' for Active; 'I' for Inactive)
REMARK    1  A    between atoms: C_2  and  C_3
REMARK    2  A    between atoms: N_6  and  C_7
REMARK    3  A    between atoms: C_13  and  C_14
REMARK    4  A    between atoms: C_16  and  C_17
REMARK    5  A    between atoms: C_22  and  C_23
REMARK                            x       y       z     vdW  Elec       q    Type
REMARK                         _______ _______ _______ _____ _____    ______ ____
ROOT
ATOM      1  O   UNL     1       1.971   9.097  17.044  0.00  0.00    +0.000 OA
ATOM      2  C   UNL     1       1.955   8.663  18.190  0.00  0.00    +0.000 C 
ATOM      3  N   UNL     1       1.239   9.301  19.193  0.00  0.00    +0.000 N 
ATOM      4  C   UNL     1       0.318  10.385  18.889  0.00  0.00    +0.000 C 
ATOM      5  C   UNL     1       0.450  11.345  20.065  0.00  0.00    +0.000 C 
ATOM      6  C   UNL     1       0.785  10.430  21.259  0.00  0.00    +0.000 C 
ATOM      7  C   UNL     1       1.548   9.258  20.621  0.00  0.00    +0.000 C 
ENDROOT
BRANCH   5   8
ATOM      8  C   UNL     1       1.501  12.387  19.846  0.00  0.00    +0.000 A 
ATOM      9  N   UNL     1       2.002  12.736  18.683  0.00  0.00    +0.000 NA
ATOM     10  C   UNL     1       2.969  13.648  19.005  0.00  0.00    +0.000 A 
ATOM     11  N   UNL     1       3.067  13.920  20.307  0.00  0.00    +0.000 NA
ATOM     12  N   UNL     1       2.138  13.102  20.828  0.00  0.00    +0.000 N 
ATOM     13  H   UNL     1       2.020  13.059  21.835  0.00  0.00    +0.000 HD
BRANCH  10  14
ATOM     14  C   UNL     1       3.873  14.273  17.957  0.00  0.00    +0.000 C 
ATOM     15  C   UNL     1       4.604  15.551  18.315  0.00  0.00    +0.000 C 
ATOM     16  C   UNL     1       3.456  15.608  17.367  0.00  0.00    +0.000 C 
ENDBRANCH  10  14
ENDBRANCH   5   8
BRANCH   2  17
ATOM     17  C   UNL     1       2.725   7.493  18.563  0.00  0.00    +0.000 A 
ATOM     18  C   UNL     1       2.439   6.474  19.500  0.00  0.00    +0.000 A 
ATOM     19  N   UNL     1       3.398   5.553  19.578  0.00  0.00    +0.000 NA
ATOM     20  N   UNL     1       4.269   5.928  18.627  0.00  0.00    +0.000 N 
ATOM     21  C   UNL     1       3.916   7.081  17.990  0.00  0.00    +0.000 A 
BRANCH  20  22
ATOM     22  C   UNL     1       5.450   5.157  18.312  0.00  0.00    +0.000 C 
ATOM     23  C   UNL     1       6.780   5.469  18.981  0.00  0.00    +0.000 C 
ATOM     24  C   UNL     1       6.604   5.767  17.533  0.00  0.00    +0.000 C 
ENDBRANCH  20  22
ENDBRANCH   2  17
BRANCH   6  25
ATOM     25  C   UNL     1      -0.455   9.929  21.971  0.00  0.00    +0.000 C 
ATOM     26  C   UNL     1      -1.120  10.742  23.052  0.00  0.00    +0.000 C 
ATOM     27  C   UNL     1      -0.351   9.505  23.416  0.00  0.00    +0.000 C 
ENDBRANCH   6  25
TORSDOF 5
ENDMDL
MODEL 5
REMARK VINA RESULT:      -6.5      1.932      6.825
REMARK  Name = 
REMARK  5 active torsions:
REMARK  status: ('A' for Active; 'I' for Inactive)
REMARK    1  A    between atoms: C_2  and  C_3
REMARK    2  A    between atoms: N_6  and  C_7
REMARK    3  A    between atoms: C_13  and  C_14
REMARK    4  A    between atoms: C_16  and  C_17
REMARK    5  A    between atoms: C_22  and  C_23
REMARK                            x       y       z     vdW  Elec       q    Type
REMARK                         _______ _______ _______ _____ _____    ______ ____
ROOT
ATOM      1  O   UNL     1       3.546   7.494  16.685  0.00  0.00    +0.000 OA
ATOM      2  C   UNL     1       3.936   6.686  17.521  0.00  0.00    +0.000 C 
ATOM      3  N   UNL     1       5.265   6.291  17.578  0.00  0.00    +0.000 N 
ATOM      4  C   UNL     1       6.285   6.964  16.789  0.00  0.00    +0.000 C 
ATOM      5  C   UNL     1       7.250   5.858  16.382  0.00  0.00    +0.000 C 
ATOM      6  C   UNL     1       7.184   4.854  17.550  0.00  0.00    +0.000 C 
ATOM      7  C   UNL     1       5.753   5.012  18.089  0.00  0.00    +0.000 C 
ENDROOT
BRANCH   5   8
ATOM      8  C   UNL     1       6.885   5.222  15.077  0.00  0.00    +0.000 A 
ATOM      9  N   UNL     1       5.842   4.452  14.867  0.00  0.00    +0.000 NA
ATOM     10  C   UNL     1       5.986   4.058  13.565  0.00  0.00    +0.000 A 
ATOM     11  N   UNL     1       7.042   4.579  12.938  0.00  0.00    +0.000 NA
ATOM     12  N   UNL     1       7.608   5.305  13.915  0.00  0.00    +0.000 N 
ATOM     13  H   UNL     1       8.482   5.790  13.734  0.00  0.00    +0.000 HD
BRANCH  10  14
ATOM     14  C   UNL     1       5.029   3.081  12.905  0.00  0.00    +0.000 C 
ATOM     15  C   UNL     1       5.457   2.431  11.605  0.00  0.00    +0.000 C 
ATOM     16  C   UNL     1       4.405   3.485  11.582  0.00  0.00    +0.000 C 
ENDBRANCH  10  14
ENDBRANCH   5   8
BRANCH   2  17
ATOM     17  C   UNL     1       3.017   6.068  18.457  0.00  0.00    +0.000 A 
ATOM     18  C   UNL     1       2.482   6.559  19.669  0.00  0.00    +0.000 A 
ATOM     19  N   UNL     1       1.666   5.695  20.268  0.00  0.00    +0.000 NA
ATOM     20  N   UNL     1       1.602   4.672  19.399  0.00  0.00    +0.000 N 
ATOM     21  C   UNL     1       2.391   4.843  18.300  0.00  0.00    +0.000 A 
BRANCH  20  22
ATOM     22  C   UNL     1       0.756   3.521  19.619  0.00  0.00    +0.000 C 
ATOM     23  C   UNL     1       1.264   2.328  20.414  0.00  0.00    +0.000 C 
ATOM     24  C   UNL     1       1.048   2.190  18.947  0.00  0.00    +0.000 C 
ENDBRANCH  20  22
ENDBRANCH   2  17
BRANCH   6  25
ATOM     25  C   UNL     1       8.195   5.163  18.637  0.00  0.00    +0.000 C 
ATOM     26  C   UNL     1       7.757   5.511  20.036  0.00  0.00    +0.000 C 
ATOM     27  C   UNL     1       8.317   6.580  19.143  0.00  0.00    +0.000 C 
ENDBRANCH   6  25
TORSDOF 5
ENDMDL
MODEL 6
REMARK VINA RESULT:      -6.5      7.102     10.044
REMARK  Name = 
REMARK  5 active torsions:
REMARK  status: ('A' for Active; 'I' for Inactive)
REMARK    1  A    between atoms: C_2  and  C_3
REMARK    2  A    between atoms: N_6  and  C_7
REMARK    3  A    between atoms: C_13  and  C_14
REMARK    4  A    between atoms: C_16  and  C_17
REMARK    5  A    between atoms: C_22  and  C_23
REMARK                            x       y       z     vdW  Elec       q    Type
REMARK                         _______ _______ _______ _____ _____    ______ ____
ROOT
ATOM      1  O   UNL     1       1.077  11.727  20.476  0.00  0.00    +0.000 OA
ATOM      2  C   UNL     1       0.656  10.828  19.757  0.00  0.00    +0.000 C 
ATOM      3  N   UNL     1      -0.388  11.044  18.868  0.00  0.00    +0.000 N 
ATOM      4  C   UNL     1      -0.888  12.384  18.604  0.00  0.00    +0.000 C 
ATOM      5  C   UNL     1      -2.389  12.205  18.414  0.00  0.00    +0.000 C 
ATOM      6  C   UNL     1      -2.525  10.794  17.809  0.00  0.00    +0.000 C 
ATOM      7  C   UNL     1      -1.324  10.028  18.391  0.00  0.00    +0.000 C 
ENDROOT
BRANCH   5   8
ATOM      8  C   UNL     1      -3.155  12.342  19.693  0.00  0.00    +0.000 A 
ATOM      9  N   UNL     1      -4.461  12.270  19.813  0.00  0.00    +0.000 NA
ATOM     10  C   UNL     1      -4.681  12.536  21.137  0.00  0.00    +0.000 A 
ATOM     11  N   UNL     1      -3.575  12.726  21.858  0.00  0.00    +0.000 NA
ATOM     12  N   UNL     1      -2.617  12.612  20.925  0.00  0.00    +0.000 N 
ATOM     13  H   UNL     1      -1.647  12.762  21.185  0.00  0.00    +0.000 HD
BRANCH  10  14
ATOM     14  C   UNL     1      -6.079  12.634  21.721  0.00  0.00    +0.000 C 
ATOM     15  C   UNL     1      -7.210  11.945  20.985  0.00  0.00    +0.000 C 
ATOM     16  C   UNL     1      -7.115  13.431  20.949  0.00  0.00    +0.000 C 
ENDBRANCH  10  14
ENDBRANCH   5   8
BRANCH   2  17
ATOM     17  C   UNL     1       1.194   9.485  19.839  0.00  0.00    +0.000 A 
ATOM     18  C   UNL     1       1.082   8.519  20.864  0.00  0.00    +0.000 A 
ATOM     19  N   UNL     1       1.725   7.386  20.586  0.00  0.00    +0.000 NA
ATOM     20  N   UNL     1       2.184   7.585  19.339  0.00  0.00    +0.000 N 
ATOM     21  C   UNL     1       1.895   8.823  18.845  0.00  0.00    +0.000 A 
BRANCH  20  22
ATOM     22  C   UNL     1       2.894   6.563  18.604  0.00  0.00    +0.000 C 
ATOM     23  C   UNL     1       2.248   5.213  18.336  0.00  0.00    +0.000 C 
ATOM     24  C   UNL     1       3.388   5.300  19.289  0.00  0.00    +0.000 C 
ENDBRANCH  20  22
ENDBRANCH   2  17
BRANCH   6  25
ATOM     25  C   UNL     1      -2.462  10.804  16.295  0.00  0.00    +0.000 C 
ATOM     26  C   UNL     1      -3.704  10.988  15.461  0.00  0.00    +0.000 C 
ATOM     27  C   UNL     1      -3.044   9.641  15.529  0.00  0.00    +0.000 C 
ENDBRANCH   6  25
TORSDOF 5
ENDMDL
MODEL 7
REMARK VINA RESULT:      -6.4      5.226      8.546
REMARK  Name = 
REMARK  5 active torsions:
REMARK  status: ('A' for Active; 'I' for Inactive)
REMARK    1  A    between atoms: C_2  and  C_3
REMARK    2  A    between atoms: N_6  and  C_7
REMARK    3  A    between atoms: C_13  and  C_14
REMARK    4  A    between atoms: C_16  and  C_17
REMARK    5  A    between atoms: C_22  and  C_23
REMARK                            x       y       z     vdW  Elec       q    Type
REMARK                         _______ _______ _______ _____ _____    ______ ____
ROOT
ATOM      1  O   UNL     1       1.959   8.941  17.104  0.00  0.00    +0.000 OA
ATOM      2  C   UNL     1       1.976   8.498  18.247  0.00  0.00    +0.000 C 
ATOM      3  N   UNL     1       1.280   9.122  19.273  0.00  0.00    +0.000 N 
ATOM      4  C   UNL     1       0.342  10.199  19.001  0.00  0.00    +0.000 C 
ATOM      5  C   UNL     1       0.496  11.151  20.180  0.00  0.00    +0.000 C 
ATOM      6  C   UNL     1       0.870  10.231  21.359  0.00  0.00    +0.000 C 
ATOM      7  C   UNL     1       1.627   9.070  20.692  0.00  0.00    +0.000 C 
ENDROOT
BRANCH   5   8
ATOM      8  C   UNL     1       1.532  12.205  19.943  0.00  0.00    +0.000 A 
ATOM      9  N   UNL     1       2.057  12.982  20.863  0.00  0.00    +0.000 NA
ATOM     10  C   UNL     1       2.876  13.818  20.154  0.00  0.00    +0.000 A 
ATOM     11  N   UNL     1       2.921  13.574  18.843  0.00  0.00    +0.000 NA
ATOM     12  N   UNL     1       2.054  12.556  18.724  0.00  0.00    +0.000 N 
ATOM     13  H   UNL     1       1.845  12.184  17.803  0.00  0.00    +0.000 HD
BRANCH  10  14
ATOM     14  C   UNL     1       3.643  14.950  20.813  0.00  0.00    +0.000 C 
ATOM     15  C   UNL     1       3.194  15.413  22.184  0.00  0.00    +0.000 C 
ATOM     16  C   UNL     1       2.929  16.276  20.999  0.00  0.00    +0.000 C 
ENDBRANCH  10  14
ENDBRANCH   5   8
BRANCH   2  17
ATOM     17  C   UNL     1       2.766   7.332  18.591  0.00  0.00    +0.000 A 
ATOM     18  C   UNL     1       2.459   6.239  19.431  0.00  0.00    +0.000 A 
ATOM     19  N   UNL     1       3.447   5.349  19.513  0.00  0.00    +0.000 NA
ATOM     20  N   UNL     1       4.365   5.824  18.655  0.00  0.00    +0.000 N 
ATOM     21  C   UNL     1       4.010   7.006  18.077  0.00  0.00    +0.000 A 
BRANCH  20  22
ATOM     22  C   UNL     1       5.596   5.120  18.371  0.00  0.00    +0.000 C 
ATOM     23  C   UNL     1       6.873   5.462  19.122  0.00  0.00    +0.000 C 
ATOM     24  C   UNL     1       6.758   5.814  17.680  0.00  0.00    +0.000 C 
ENDBRANCH  20  22
ENDBRANCH   2  17
BRANCH   6  25
ATOM     25  C   UNL     1      -0.347   9.713  22.098  0.00  0.00    +0.000 C 
ATOM     26  C   UNL     1      -1.094  10.578  23.081  0.00  0.00    +0.000 C 
ATOM     27  C   UNL     1      -0.246   9.444  23.580  0.00  0.00    +0.000 C 
ENDBRANCH   6  25
TORSDOF 5
ENDMDL
MODEL 8
REMARK VINA RESULT:      -6.4      5.189      8.791
REMARK  Name = 
REMARK  5 active torsions:
REMARK  status: ('A' for Active; 'I' for Inactive)
REMARK    1  A    between atoms: C_2  and  C_3
REMARK    2  A    between atoms: N_6  and  C_7
REMARK    3  A    between atoms: C_13  and  C_14
REMARK    4  A    between atoms: C_16  and  C_17
REMARK    5  A    between atoms: C_22  and  C_23
REMARK                            x       y       z     vdW  Elec       q    Type
REMARK                         _______ _______ _______ _____ _____    ______ ____
ROOT
ATOM      1  O   UNL     1       1.785   9.174  16.988  0.00  0.00    +0.000 OA
ATOM      2  C   UNL     1       1.812   8.710  18.123  0.00  0.00    +0.000 C 
ATOM      3  N   UNL     1       1.155   9.333  19.173  0.00  0.00    +0.000 N 
ATOM      4  C   UNL     1       0.243  10.442  18.940  0.00  0.00    +0.000 C 
ATOM      5  C   UNL     1       0.446  11.366  20.133  0.00  0.00    +0.000 C 
ATOM      6  C   UNL     1       0.817  10.414  21.287  0.00  0.00    +0.000 C 
ATOM      7  C   UNL     1       1.527   9.245  20.584  0.00  0.00    +0.000 C 
ENDROOT
BRANCH   5   8
ATOM      8  C   UNL     1       1.507  12.395  19.895  0.00  0.00    +0.000 A 
ATOM      9  N   UNL     1       2.020  12.707  18.727  0.00  0.00    +0.000 NA
ATOM     10  C   UNL     1       2.991  13.621  19.032  0.00  0.00    +0.000 A 
ATOM     11  N   UNL     1       3.079  13.929  20.327  0.00  0.00    +0.000 NA
ATOM     12  N   UNL     1       2.140  13.134  20.862  0.00  0.00    +0.000 N 
ATOM     13  H   UNL     1       2.012  13.120  21.869  0.00  0.00    +0.000 HD
BRANCH  10  14
ATOM     14  C   UNL     1       3.909  14.210  17.975  0.00  0.00    +0.000 C 
ATOM     15  C   UNL     1       4.865  15.309  18.392  0.00  0.00    +0.000 C 
ATOM     16  C   UNL     1       3.678  15.652  17.561  0.00  0.00    +0.000 C 
ENDBRANCH  10  14
ENDBRANCH   5   8
BRANCH   2  17
ATOM     17  C   UNL     1       2.576   7.516  18.429  0.00  0.00    +0.000 A 
ATOM     18  C   UNL     1       3.827   7.082  17.936  0.00  0.00    +0.000 A 
ATOM     19  N   UNL     1       4.214   5.915  18.447  0.00  0.00    +0.000 NA
ATOM     20  N   UNL     1       3.251   5.632  19.340  0.00  0.00    +0.000 N 
ATOM     21  C   UNL     1       2.248   6.555  19.370  0.00  0.00    +0.000 A 
BRANCH  20  22
ATOM     22  C   UNL     1       3.306   4.465  20.192  0.00  0.00    +0.000 C 
ATOM     23  C   UNL     1       2.528   3.208  19.834  0.00  0.00    +0.000 C 
ATOM     24  C   UNL     1       2.097   4.025  21.001  0.00  0.00    +0.000 C 
ENDBRANCH  20  22
ENDBRANCH   2  17
BRANCH   6  25
ATOM     25  C   UNL     1      -0.400   9.916  22.041  0.00  0.00    +0.000 C 
ATOM     26  C   UNL     1      -1.092  10.777  23.066  0.00  0.00    +0.000 C 
ATOM     27  C   UNL     1      -0.273   9.600  23.512  0.00  0.00    +0.000 C 
ENDBRANCH   6  25
TORSDOF 5
ENDMDL
MODEL 9
REMARK VINA RESULT:      -6.3      8.871     12.928
REMARK  Name = 
REMARK  5 active torsions:
REMARK  status: ('A' for Active; 'I' for Inactive)
REMARK    1  A    between atoms: C_2  and  C_3
REMARK    2  A    between atoms: N_6  and  C_7
REMARK    3  A    between atoms: C_13  and  C_14
REMARK    4  A    between atoms: C_16  and  C_17
REMARK    5  A    between atoms: C_22  and  C_23
REMARK                            x       y       z     vdW  Elec       q    Type
REMARK                         _______ _______ _______ _____ _____    ______ ____
ROOT
ATOM      1  O   UNL     1       0.000  11.002  22.897  0.00  0.00    +0.000 OA
ATOM      2  C   UNL     1      -0.974  11.503  22.347  0.00  0.00    +0.000 C 
ATOM      3  N   UNL     1      -1.252  11.261  21.010  0.00  0.00    +0.000 N 
ATOM      4  C   UNL     1      -0.524  10.250  20.260  0.00  0.00    +0.000 C 
ATOM      5  C   UNL     1      -0.388  10.831  18.858  0.00  0.00    +0.000 C 
ATOM      6  C   UNL     1      -1.655  11.692  18.685  0.00  0.00    +0.000 C 
ATOM      7  C   UNL     1      -1.979  12.159  20.114  0.00  0.00    +0.000 C 
ENDROOT
BRANCH   5   8
ATOM      8  C   UNL     1       0.863  11.635  18.683  0.00  0.00    +0.000 A 
ATOM      9  N   UNL     1       1.088  12.821  19.201  0.00  0.00    +0.000 NA
ATOM     10  C   UNL     1       2.311  13.169  18.696  0.00  0.00    +0.000 A 
ATOM     11  N   UNL     1       2.880  12.241  17.925  0.00  0.00    +0.000 NA
ATOM     12  N   UNL     1       1.943  11.279  17.917  0.00  0.00    +0.000 N 
ATOM     13  H   UNL     1       2.087  10.447  17.354  0.00  0.00    +0.000 HD
BRANCH  10  14
ATOM     14  C   UNL     1       2.947  14.519  18.974  0.00  0.00    +0.000 C 
ATOM     15  C   UNL     1       2.120  15.763  18.721  0.00  0.00    +0.000 C 
ATOM     16  C   UNL     1       3.233  15.425  17.791  0.00  0.00    +0.000 C 
ENDBRANCH  10  14
ENDBRANCH   5   8
BRANCH   2  17
ATOM     17  C   UNL     1      -1.853  12.413  23.056  0.00  0.00    +0.000 A 
ATOM     18  C   UNL     1      -3.169  12.223  23.532  0.00  0.00    +0.000 A 
ATOM     19  N   UNL     1      -3.667  13.300  24.136  0.00  0.00    +0.000 NA
ATOM     20  N   UNL     1      -2.639  14.165  24.129  0.00  0.00    +0.000 N 
ATOM     21  C   UNL     1      -1.530  13.686  23.495  0.00  0.00    +0.000 A 
BRANCH  20  22
ATOM     22  C   UNL     1      -2.716  15.464  24.757  0.00  0.00    +0.000 C 
ATOM     23  C   UNL     1      -3.368  16.634  24.037  0.00  0.00    +0.000 C 
ATOM     24  C   UNL     1      -1.894  16.635  24.246  0.00  0.00    +0.000 C 
ENDBRANCH  20  22
ENDBRANCH   2  17
BRANCH   6  25
ATOM     25  C   UNL     1      -2.816  10.906  18.110  0.00  0.00    +0.000 C 
ATOM     26  C   UNL     1      -2.601   9.857  17.049  0.00  0.00    +0.000 C 
ATOM     27  C   UNL     1      -3.243  11.165  16.686  0.00  0.00    +0.000 C 
ENDBRANCH   6  25
TORSDOF 5
ENDMDL
