MODEL 1
REMARK VINA RESULT:      -8.7      0.000      0.000
REMARK  Name = 
REMARK  5 active torsions:
REMARK  status: ('A' for Active; 'I' for Inactive)
REMARK    1  A    between atoms: C_2  and  C_14
REMARK    2  A    between atoms: N_3  and  C_4
REMARK    3  A    between atoms: C_4  and  C_5
REMARK    4  A    between atoms: C_19  and  C_20
REMARK    5  A    between atoms: C_23  and  C_24
REMARK                            x       y       z     vdW  Elec       q    Type
REMARK                         _______ _______ _______ _____ _____    ______ ____
ROOT
ATOM      1  C   UNL     1       2.159   4.224  19.527  0.00  0.00    +0.000 A 
ATOM      2  C   UNL     1       1.151   3.252  19.670  0.00  0.00    +0.000 A 
ATOM      3  C   UNL     1       0.956   2.268  18.707  0.00  0.00    +0.000 A 
ATOM      4  C   UNL     1       1.741   2.239  17.565  0.00  0.00    +0.000 A 
ATOM      5  C   UNL     1       2.757   3.179  17.419  0.00  0.00    +0.000 A 
ATOM      6  C   UNL     1       3.009   4.175  18.393  0.00  0.00    +0.000 A 
ENDROOT
BRANCH   6   7
ATOM      7  C   UNL     1       4.209   5.029  18.216  0.00  0.00    +0.000 A 
ATOM      8  C   UNL     1       5.383   4.792  18.933  0.00  0.00    +0.000 A 
ATOM      9  C   UNL     1       6.497   5.625  18.789  0.00  0.00    +0.000 A 
ATOM     10  C   UNL     1       6.459   6.701  17.897  0.00  0.00    +0.000 A 
ATOM     11  C   UNL     1       5.307   6.942  17.159  0.00  0.00    +0.000 A 
ATOM     12  C   UNL     1       4.191   6.138  17.359  0.00  0.00    +0.000 A 
BRANCH  10  13
ATOM     13  C   UNL     1       7.636   7.620  17.742  0.00  0.00    +0.000 C 
ATOM     14  F   UNL     1       8.279   7.476  16.552  0.00  0.00    +0.000 F 
ATOM     15  F   UNL     1       7.291   8.930  17.832  0.00  0.00    +0.000 F 
ATOM     16  F   UNL     1       8.582   7.413  18.703  0.00  0.00    +0.000 F 
ENDBRANCH  10  13
ENDBRANCH   6   7
BRANCH   1  18
ATOM     17  O   UNL     1       2.505   5.020  21.763  0.00  0.00    +0.000 OA
ATOM     18  C   UNL     1       2.225   5.286  20.586  0.00  0.00    +0.000 C 
ATOM     19  N   UNL     1       1.892   6.573  20.221  0.00  0.00    +0.000 N 
ATOM     20  H   UNL     1       1.523   6.778  19.297  0.00  0.00    +0.000 HD
BRANCH  19  21
ATOM     21  C   UNL     1       1.803   7.620  21.224  0.00  0.00    +0.000 C 
BRANCH  21  22
ATOM     22  C   UNL     1       1.086   8.835  20.725  0.00  0.00    +0.000 A 
ATOM     23  N   UNL     1       1.105   9.165  19.418  0.00  0.00    +0.000 NA
ATOM     24  O   UNL     1       0.294  10.288  19.290  0.00  0.00    +0.000 OA
ATOM     25  C   UNL     1      -0.183  10.618  20.508  0.00  0.00    +0.000 A 
ATOM     26  C   UNL     1       0.276   9.745  21.459  0.00  0.00    +0.000 A 
ATOM     27  C   UNL     1      -0.090   9.882  22.894  0.00  0.00    +0.000 C 
ATOM     28  C   UNL     1      -1.263  10.881  23.080  0.00  0.00    +0.000 C 
ATOM     29  C   UNL     1      -1.133  12.133  22.184  0.00  0.00    +0.000 C 
ATOM     30  C   UNL     1      -1.101  11.764  20.686  0.00  0.00    +0.000 C 
ENDBRANCH  21  22
ENDBRANCH  19  21
ENDBRANCH   1  18
TORSDOF 5
ENDMDL
MODEL 2
REMARK VINA RESULT:      -8.6      0.104      1.136
REMARK  Name = 
REMARK  5 active torsions:
REMARK  status: ('A' for Active; 'I' for Inactive)
REMARK    1  A    between atoms: C_2  and  C_14
REMARK    2  A    between atoms: N_3  and  C_4
REMARK    3  A    between atoms: C_4  and  C_5
REMARK    4  A    between atoms: C_19  and  C_20
REMARK    5  A    between atoms: C_23  and  C_24
REMARK                            x       y       z     vdW  Elec       q    Type
REMARK                         _______ _______ _______ _____ _____    ______ ____
ROOT
ATOM      1  C   UNL     1       2.160   4.179  19.500  0.00  0.00    +0.000 A 
ATOM      2  C   UNL     1       1.193   3.162  19.616  0.00  0.00    +0.000 A 
ATOM      3  C   UNL     1       1.052   2.186  18.637  0.00  0.00    +0.000 A 
ATOM      4  C   UNL     1       1.851   2.207  17.505  0.00  0.00    +0.000 A 
ATOM      5  C   UNL     1       2.827   3.192  17.385  0.00  0.00    +0.000 A 
ATOM      6  C   UNL     1       3.025   4.183  18.375  0.00  0.00    +0.000 A 
ENDROOT
BRANCH   6   7
ATOM      7  C   UNL     1       4.189   5.090  18.225  0.00  0.00    +0.000 A 
ATOM      8  C   UNL     1       4.162   6.168  17.340  0.00  0.00    +0.000 A 
ATOM      9  C   UNL     1       5.277   6.996  17.176  0.00  0.00    +0.000 A 
ATOM     10  C   UNL     1       6.438   6.767  17.923  0.00  0.00    +0.000 A 
ATOM     11  C   UNL     1       6.477   5.711  18.824  0.00  0.00    +0.000 A 
ATOM     12  C   UNL     1       5.380   4.865  18.931  0.00  0.00    +0.000 A 
BRANCH  10  13
ATOM     13  C   UNL     1       7.654   7.630  17.748  0.00  0.00    +0.000 C 
ATOM     14  F   UNL     1       8.613   7.405  18.685  0.00  0.00    +0.000 F 
ATOM     15  F   UNL     1       8.250   7.452  16.541  0.00  0.00    +0.000 F 
ATOM     16  F   UNL     1       7.358   8.959  17.829  0.00  0.00    +0.000 F 
ENDBRANCH  10  13
ENDBRANCH   6   7
BRANCH   1  18
ATOM     17  O   UNL     1       2.444   4.956  21.751  0.00  0.00    +0.000 OA
ATOM     18  C   UNL     1       2.167   5.227  20.574  0.00  0.00    +0.000 C 
ATOM     19  N   UNL     1       1.784   6.504  20.223  0.00  0.00    +0.000 N 
ATOM     20  H   UNL     1       1.418   6.706  19.298  0.00  0.00    +0.000 HD
BRANCH  19  21
ATOM     21  C   UNL     1       1.639   7.531  21.240  0.00  0.00    +0.000 C 
BRANCH  21  22
ATOM     22  C   UNL     1       1.012   8.782  20.708  0.00  0.00    +0.000 A 
ATOM     23  N   UNL     1       1.071   9.085  19.396  0.00  0.00    +0.000 NA
ATOM     24  O   UNL     1       0.339  10.257  19.235  0.00  0.00    +0.000 OA
ATOM     25  C   UNL     1      -0.133  10.641  20.439  0.00  0.00    +0.000 A 
ATOM     26  C   UNL     1       0.253   9.758  21.413  0.00  0.00    +0.000 A 
ATOM     27  C   UNL     1      -0.123   9.946  22.839  0.00  0.00    +0.000 C 
ATOM     28  C   UNL     1      -1.229  11.024  22.989  0.00  0.00    +0.000 C 
ATOM     29  C   UNL     1      -1.002  12.248  22.072  0.00  0.00    +0.000 C 
ATOM     30  C   UNL     1      -0.974  11.849  20.582  0.00  0.00    +0.000 C 
ENDBRANCH  21  22
ENDBRANCH  19  21
ENDBRANCH   1  18
TORSDOF 5
ENDMDL
MODEL 3
REMARK VINA RESULT:      -8.5      4.891      7.373
REMARK  Name = 
REMARK  5 active torsions:
REMARK  status: ('A' for Active; 'I' for Inactive)
REMARK    1  A    between atoms: C_2  and  C_14
REMARK    2  A    between atoms: N_3  and  C_4
REMARK    3  A    between atoms: C_4  and  C_5
REMARK    4  A    between atoms: C_19  and  C_20
REMARK    5  A    between atoms: C_23  and  C_24
REMARK                            x       y       z     vdW  Elec       q    Type
REMARK                         _______ _______ _______ _____ _____    ______ ____
ROOT
ATOM      1  C   UNL     1       6.830   5.493  16.295  0.00  0.00    +0.000 A 
ATOM      2  C   UNL     1       7.566   5.516  15.094  0.00  0.00    +0.000 A 
ATOM      3  C   UNL     1       7.117   4.851  13.960  0.00  0.00    +0.000 A 
ATOM      4  C   UNL     1       5.937   4.124  13.993  0.00  0.00    +0.000 A 
ATOM      5  C   UNL     1       5.185   4.110  15.165  0.00  0.00    +0.000 A 
ATOM      6  C   UNL     1       5.592   4.802  16.330  0.00  0.00    +0.000 A 
ENDROOT
BRANCH   6   7
ATOM      7  C   UNL     1       4.646   4.850  17.473  0.00  0.00    +0.000 A 
ATOM      8  C   UNL     1       4.553   3.797  18.384  0.00  0.00    +0.000 A 
ATOM      9  C   UNL     1       3.632   3.833  19.436  0.00  0.00    +0.000 A 
ATOM     10  C   UNL     1       2.802   4.945  19.605  0.00  0.00    +0.000 A 
ATOM     11  C   UNL     1       2.893   6.012  18.721  0.00  0.00    +0.000 A 
ATOM     12  C   UNL     1       3.774   5.933  17.648  0.00  0.00    +0.000 A 
BRANCH  10  13
ATOM     13  C   UNL     1       1.792   4.996  20.715  0.00  0.00    +0.000 C 
ATOM     14  F   UNL     1       0.618   4.383  20.403  0.00  0.00    +0.000 F 
ATOM     15  F   UNL     1       2.238   4.407  21.854  0.00  0.00    +0.000 F 
ATOM     16  F   UNL     1       1.464   6.275  21.057  0.00  0.00    +0.000 F 
ENDBRANCH  10  13
ENDBRANCH   6   7
BRANCH   1  18
ATOM     17  O   UNL     1       7.601   5.597  18.563  0.00  0.00    +0.000 OA
ATOM     18  C   UNL     1       7.450   6.176  17.478  0.00  0.00    +0.000 C 
ATOM     19  N   UNL     1       7.788   7.506  17.342  0.00  0.00    +0.000 N 
ATOM     20  H   UNL     1       7.538   8.029  16.509  0.00  0.00    +0.000 HD
BRANCH  19  21
ATOM     21  C   UNL     1       8.266   8.261  18.488  0.00  0.00    +0.000 C 
BRANCH  21  22
ATOM     22  C   UNL     1       8.409   9.722  18.195  0.00  0.00    +0.000 A 
ATOM     23  N   UNL     1       7.659  10.316  17.246  0.00  0.00    +0.000 NA
ATOM     24  O   UNL     1       7.987  11.668  17.282  0.00  0.00    +0.000 OA
ATOM     25  C   UNL     1       8.924  11.859  18.233  0.00  0.00    +0.000 A 
ATOM     26  C   UNL     1       9.238  10.676  18.848  0.00  0.00    +0.000 A 
ATOM     27  C   UNL     1      10.253  10.597  19.931  0.00  0.00    +0.000 C 
ATOM     28  C   UNL     1      10.621  12.010  20.457  0.00  0.00    +0.000 C 
ATOM     29  C   UNL     1      10.764  13.053  19.326  0.00  0.00    +0.000 C 
ATOM     30  C   UNL     1       9.456  13.209  18.523  0.00  0.00    +0.000 C 
ENDBRANCH  21  22
ENDBRANCH  19  21
ENDBRANCH   1  18
TORSDOF 5
ENDMDL
MODEL 4
REMARK VINA RESULT:      -8.1      2.232      2.905
REMARK  Name = 
REMARK  5 active torsions:
REMARK  status: ('A' for Active; 'I' for Inactive)
REMARK    1  A    between atoms: C_2  and  C_14
REMARK    2  A    between atoms: N_3  and  C_4
REMARK    3  A    between atoms: C_4  and  C_5
REMARK    4  A    between atoms: C_19  and  C_20
REMARK    5  A    between atoms: C_23  and  C_24
REMARK                            x       y       z     vdW  Elec       q    Type
REMARK                         _______ _______ _______ _____ _____    ______ ____
ROOT
ATOM      1  C   UNL     1       2.582   4.730  20.229  0.00  0.00    +0.000 A 
ATOM      2  C   UNL     1       1.977   4.416  21.461  0.00  0.00    +0.000 A 
ATOM      3  C   UNL     1       2.098   3.150  22.023  0.00  0.00    +0.000 A 
ATOM      4  C   UNL     1       2.803   2.155  21.364  0.00  0.00    +0.000 A 
ATOM      5  C   UNL     1       3.427   2.455  20.156  0.00  0.00    +0.000 A 
ATOM      6  C   UNL     1       3.355   3.740  19.569  0.00  0.00    +0.000 A 
ENDROOT
BRANCH   6   7
ATOM      7  C   UNL     1       4.180   3.998  18.363  0.00  0.00    +0.000 A 
ATOM      8  C   UNL     1       3.711   3.701  17.083  0.00  0.00    +0.000 A 
ATOM      9  C   UNL     1       4.509   3.911  15.954  0.00  0.00    +0.000 A 
ATOM     10  C   UNL     1       5.792   4.450  16.092  0.00  0.00    +0.000 A 
ATOM     11  C   UNL     1       6.271   4.771  17.356  0.00  0.00    +0.000 A 
ATOM     12  C   UNL     1       5.484   4.501  18.470  0.00  0.00    +0.000 A 
BRANCH  10  13
ATOM     13  C   UNL     1       6.674   4.664  14.896  0.00  0.00    +0.000 C 
ATOM     14  F   UNL     1       6.667   3.617  14.027  0.00  0.00    +0.000 F 
ATOM     15  F   UNL     1       6.321   5.759  14.177  0.00  0.00    +0.000 F 
ATOM     16  F   UNL     1       7.980   4.848  15.246  0.00  0.00    +0.000 F 
ENDBRANCH  10  13
ENDBRANCH   6   7
BRANCH   1  18
ATOM     17  O   UNL     1       2.538   6.383  18.492  0.00  0.00    +0.000 OA
ATOM     18  C   UNL     1       2.315   6.100  19.677  0.00  0.00    +0.000 C 
ATOM     19  N   UNL     1       1.875   7.066  20.556  0.00  0.00    +0.000 N 
ATOM     20  H   UNL     1       1.826   6.886  21.554  0.00  0.00    +0.000 HD
BRANCH  19  21
ATOM     21  C   UNL     1       1.728   8.443  20.117  0.00  0.00    +0.000 C 
BRANCH  21  22
ATOM     22  C   UNL     1       1.020   9.295  21.123  0.00  0.00    +0.000 A 
ATOM     23  N   UNL     1       1.307   9.203  22.437  0.00  0.00    +0.000 NA
ATOM     24  O   UNL     1       0.532  10.168  23.072  0.00  0.00    +0.000 OA
ATOM     25  C   UNL     1      -0.206  10.810  22.144  0.00  0.00    +0.000 A 
ATOM     26  C   UNL     1       0.050  10.311  20.893  0.00  0.00    +0.000 A 
ATOM     27  C   UNL     1      -0.636  10.833  19.682  0.00  0.00    +0.000 C 
ATOM     28  C   UNL     1      -1.372  12.165  19.987  0.00  0.00    +0.000 C 
ATOM     29  C   UNL     1      -2.097  12.152  21.352  0.00  0.00    +0.000 C 
ATOM     30  C   UNL     1      -1.115  11.915  22.518  0.00  0.00    +0.000 C 
ENDBRANCH  21  22
ENDBRANCH  19  21
ENDBRANCH   1  18
TORSDOF 5
ENDMDL
MODEL 5
REMARK VINA RESULT:      -8.1      4.555      7.409
REMARK  Name = 
REMARK  5 active torsions:
REMARK  status: ('A' for Active; 'I' for Inactive)
REMARK    1  A    between atoms: C_2  and  C_14
REMARK    2  A    between atoms: N_3  and  C_4
REMARK    3  A    between atoms: C_4  and  C_5
REMARK    4  A    between atoms: C_19  and  C_20
REMARK    5  A    between atoms: C_23  and  C_24
REMARK                            x       y       z     vdW  Elec       q    Type
REMARK                         _______ _______ _______ _____ _____    ______ ____
ROOT
ATOM      1  C   UNL     1       6.650   5.835  16.735  0.00  0.00    +0.000 A 
ATOM      2  C   UNL     1       7.425   5.351  15.665  0.00  0.00    +0.000 A 
ATOM      3  C   UNL     1       6.862   4.578  14.657  0.00  0.00    +0.000 A 
ATOM      4  C   UNL     1       5.517   4.244  14.698  0.00  0.00    +0.000 A 
ATOM      5  C   UNL     1       4.730   4.734  15.737  0.00  0.00    +0.000 A 
ATOM      6  C   UNL     1       5.260   5.552  16.763  0.00  0.00    +0.000 A 
ENDROOT
BRANCH   6   7
ATOM      7  C   UNL     1       4.310   6.146  17.735  0.00  0.00    +0.000 A 
ATOM      8  C   UNL     1       3.979   5.492  18.923  0.00  0.00    +0.000 A 
ATOM      9  C   UNL     1       3.054   6.040  19.816  0.00  0.00    +0.000 A 
ATOM     10  C   UNL     1       2.460   7.277  19.541  0.00  0.00    +0.000 A 
ATOM     11  C   UNL     1       2.792   7.954  18.374  0.00  0.00    +0.000 A 
ATOM     12  C   UNL     1       3.669   7.365  17.472  0.00  0.00    +0.000 A 
BRANCH  10  13
ATOM     13  C   UNL     1       1.449   7.875  20.475  0.00  0.00    +0.000 C 
ATOM     14  F   UNL     1       2.008   8.554  21.512  0.00  0.00    +0.000 F 
ATOM     15  F   UNL     1       0.615   8.747  19.853  0.00  0.00    +0.000 F 
ATOM     16  F   UNL     1       0.647   6.927  21.042  0.00  0.00    +0.000 F 
ENDBRANCH  10  13
ENDBRANCH   6   7
BRANCH   1  18
ATOM     17  O   UNL     1       7.516   6.131  18.952  0.00  0.00    +0.000 OA
ATOM     18  C   UNL     1       7.380   6.589  17.809  0.00  0.00    +0.000 C 
ATOM     19  N   UNL     1       7.840   7.851  17.501  0.00  0.00    +0.000 N 
ATOM     20  H   UNL     1       7.610   8.293  16.617  0.00  0.00    +0.000 HD
BRANCH  19  21
ATOM     21  C   UNL     1       8.434   8.685  18.532  0.00  0.00    +0.000 C 
BRANCH  21  22
ATOM     22  C   UNL     1       8.528  10.122  18.125  0.00  0.00    +0.000 A 
ATOM     23  N   UNL     1       7.607  10.676  17.312  0.00  0.00    +0.000 NA
ATOM     24  O   UNL     1       7.949  12.019  17.196  0.00  0.00    +0.000 OA
ATOM     25  C   UNL     1       9.062  12.246  17.923  0.00  0.00    +0.000 A 
ATOM     26  C   UNL     1       9.482  11.095  18.536  0.00  0.00    +0.000 A 
ATOM     27  C   UNL     1      10.695  11.059  19.394  0.00  0.00    +0.000 C 
ATOM     28  C   UNL     1      11.176  12.492  19.745  0.00  0.00    +0.000 C 
ATOM     29  C   UNL     1      11.097  13.462  18.545  0.00  0.00    +0.000 C 
ATOM     30  C   UNL     1       9.655  13.599  18.014  0.00  0.00    +0.000 C 
ENDBRANCH  21  22
ENDBRANCH  19  21
ENDBRANCH   1  18
TORSDOF 5
ENDMDL
MODEL 6
REMARK VINA RESULT:      -8.1      2.229      2.906
REMARK  Name = 
REMARK  5 active torsions:
REMARK  status: ('A' for Active; 'I' for Inactive)
REMARK    1  A    between atoms: C_2  and  C_14
REMARK    2  A    between atoms: N_3  and  C_4
REMARK    3  A    between atoms: C_4  and  C_5
REMARK    4  A    between atoms: C_19  and  C_20
REMARK    5  A    between atoms: C_23  and  C_24
REMARK                            x       y       z     vdW  Elec       q    Type
REMARK                         _______ _______ _______ _____ _____    ______ ____
ROOT
ATOM      1  C   UNL     1       2.628   4.711  20.238  0.00  0.00    +0.000 A 
ATOM      2  C   UNL     1       1.999   4.415  21.462  0.00  0.00    +0.000 A 
ATOM      3  C   UNL     1       2.096   3.154  22.037  0.00  0.00    +0.000 A 
ATOM      4  C   UNL     1       2.800   2.144  21.399  0.00  0.00    +0.000 A 
ATOM      5  C   UNL     1       3.447   2.426  20.199  0.00  0.00    +0.000 A 
ATOM      6  C   UNL     1       3.400   3.707  19.600  0.00  0.00    +0.000 A 
ENDROOT
BRANCH   6   7
ATOM      7  C   UNL     1       4.248   3.944  18.406  0.00  0.00    +0.000 A 
ATOM      8  C   UNL     1       5.533   4.477  18.519  0.00  0.00    +0.000 A 
ATOM      9  C   UNL     1       6.311   4.733  17.386  0.00  0.00    +0.000 A 
ATOM     10  C   UNL     1       5.817   4.433  16.113  0.00  0.00    +0.000 A 
ATOM     11  C   UNL     1       4.549   3.883  15.979  0.00  0.00    +0.000 A 
ATOM     12  C   UNL     1       3.769   3.690  17.113  0.00  0.00    +0.000 A 
BRANCH  10  13
ATOM     13  C   UNL     1       6.628   4.719  14.881  0.00  0.00    +0.000 C 
ATOM     14  F   UNL     1       7.924   5.032  15.150  0.00  0.00    +0.000 F 
ATOM     15  F   UNL     1       6.660   3.669  14.021  0.00  0.00    +0.000 F 
ATOM     16  F   UNL     1       6.130   5.773  14.171  0.00  0.00    +0.000 F 
ENDBRANCH  10  13
ENDBRANCH   6   7
BRANCH   1  18
ATOM     17  O   UNL     1       2.701   6.370  18.508  0.00  0.00    +0.000 OA
ATOM     18  C   UNL     1       2.387   6.079  19.670  0.00  0.00    +0.000 C 
ATOM     19  N   UNL     1       1.863   7.036  20.513  0.00  0.00    +0.000 N 
ATOM     20  H   UNL     1       1.736   6.851  21.503  0.00  0.00    +0.000 HD
BRANCH  19  21
ATOM     21  C   UNL     1       1.732   8.412  20.067  0.00  0.00    +0.000 C 
BRANCH  21  22
ATOM     22  C   UNL     1       1.035   9.278  21.070  0.00  0.00    +0.000 A 
ATOM     23  N   UNL     1       1.313   9.179  22.385  0.00  0.00    +0.000 NA
ATOM     24  O   UNL     1       0.555  10.160  23.016  0.00  0.00    +0.000 OA
ATOM     25  C   UNL     1      -0.165  10.816  22.084  0.00  0.00    +0.000 A 
ATOM     26  C   UNL     1       0.087  10.313  20.835  0.00  0.00    +0.000 A 
ATOM     27  C   UNL     1      -0.583  10.849  19.621  0.00  0.00    +0.000 C 
ATOM     28  C   UNL     1      -1.294  12.195  19.922  0.00  0.00    +0.000 C 
ATOM     29  C   UNL     1      -2.026  12.196  21.283  0.00  0.00    +0.000 C 
ATOM     30  C   UNL     1      -1.055  11.939  22.454  0.00  0.00    +0.000 C 
ENDBRANCH  21  22
ENDBRANCH  19  21
ENDBRANCH   1  18
TORSDOF 5
ENDMDL
MODEL 7
REMARK VINA RESULT:      -8.0      4.184      7.298
REMARK  Name = 
REMARK  5 active torsions:
REMARK  status: ('A' for Active; 'I' for Inactive)
REMARK    1  A    between atoms: C_2  and  C_14
REMARK    2  A    between atoms: N_3  and  C_4
REMARK    3  A    between atoms: C_4  and  C_5
REMARK    4  A    between atoms: C_19  and  C_20
REMARK    5  A    between atoms: C_23  and  C_24
REMARK                            x       y       z     vdW  Elec       q    Type
REMARK                         _______ _______ _______ _____ _____    ______ ____
ROOT
ATOM      1  C   UNL     1       2.782   3.344  18.764  0.00  0.00    +0.000 A 
ATOM      2  C   UNL     1       1.563   2.743  19.133  0.00  0.00    +0.000 A 
ATOM      3  C   UNL     1       0.747   3.305  20.107  0.00  0.00    +0.000 A 
ATOM      4  C   UNL     1       1.130   4.467  20.759  0.00  0.00    +0.000 A 
ATOM      5  C   UNL     1       2.321   5.087  20.391  0.00  0.00    +0.000 A 
ATOM      6  C   UNL     1       3.163   4.564  19.380  0.00  0.00    +0.000 A 
ENDROOT
BRANCH   6   7
ATOM      7  C   UNL     1       4.327   5.380  18.957  0.00  0.00    +0.000 A 
ATOM      8  C   UNL     1       5.606   5.138  19.460  0.00  0.00    +0.000 A 
ATOM      9  C   UNL     1       6.692   5.936  19.086  0.00  0.00    +0.000 A 
ATOM     10  C   UNL     1       6.513   6.982  18.174  0.00  0.00    +0.000 A 
ATOM     11  C   UNL     1       5.252   7.226  17.647  0.00  0.00    +0.000 A 
ATOM     12  C   UNL     1       4.175   6.459  18.075  0.00  0.00    +0.000 A 
BRANCH  10  13
ATOM     13  C   UNL     1       7.660   7.864  17.775  0.00  0.00    +0.000 C 
ATOM     14  F   UNL     1       8.193   7.541  16.565  0.00  0.00    +0.000 F 
ATOM     15  F   UNL     1       7.310   9.174  17.699  0.00  0.00    +0.000 F 
ATOM     16  F   UNL     1       8.693   7.801  18.664  0.00  0.00    +0.000 F 
ENDBRANCH  10  13
ENDBRANCH   6   7
BRANCH   1  18
ATOM     17  O   UNL     1       3.909   1.409  17.906  0.00  0.00    +0.000 OA
ATOM     18  C   UNL     1       3.620   2.606  17.762  0.00  0.00    +0.000 C 
ATOM     19  N   UNL     1       4.125   3.324  16.700  0.00  0.00    +0.000 N 
ATOM     20  H   UNL     1       4.016   4.332  16.648  0.00  0.00    +0.000 HD
BRANCH  19  21
ATOM     21  C   UNL     1       5.052   2.703  15.770  0.00  0.00    +0.000 C 
BRANCH  21  22
ATOM     22  C   UNL     1       6.053   3.672  15.222  0.00  0.00    +0.000 A 
ATOM     23  N   UNL     1       6.821   4.416  16.043  0.00  0.00    +0.000 NA
ATOM     24  O   UNL     1       7.675   5.143  15.221  0.00  0.00    +0.000 OA
ATOM     25  C   UNL     1       7.403   4.838  13.936  0.00  0.00    +0.000 A 
ATOM     26  C   UNL     1       6.391   3.917  13.862  0.00  0.00    +0.000 A 
ATOM     27  C   UNL     1       5.883   3.409  12.560  0.00  0.00    +0.000 C 
ATOM     28  C   UNL     1       6.839   3.791  11.399  0.00  0.00    +0.000 C 
ATOM     29  C   UNL     1       7.381   5.233  11.517  0.00  0.00    +0.000 C 
ATOM     30  C   UNL     1       8.172   5.441  12.826  0.00  0.00    +0.000 C 
ENDBRANCH  21  22
ENDBRANCH  19  21
ENDBRANCH   1  18
TORSDOF 5
ENDMDL
MODEL 8
REMARK VINA RESULT:      -8.0      2.242      2.847
REMARK  Name = 
REMARK  5 active torsions:
REMARK  status: ('A' for Active; 'I' for Inactive)
REMARK    1  A    between atoms: C_2  and  C_14
REMARK    2  A    between atoms: N_3  and  C_4
REMARK    3  A    between atoms: C_4  and  C_5
REMARK    4  A    between atoms: C_19  and  C_20
REMARK    5  A    between atoms: C_23  and  C_24
REMARK                            x       y       z     vdW  Elec       q    Type
REMARK                         _______ _______ _______ _____ _____    ______ ____
ROOT
ATOM      1  C   UNL     1       2.426   4.783  19.699  0.00  0.00    +0.000 A 
ATOM      2  C   UNL     1       1.752   4.613  20.924  0.00  0.00    +0.000 A 
ATOM      3  C   UNL     1       2.021   3.530  21.751  0.00  0.00    +0.000 A 
ATOM      4  C   UNL     1       2.948   2.571  21.373  0.00  0.00    +0.000 A 
ATOM      5  C   UNL     1       3.640   2.735  20.176  0.00  0.00    +0.000 A 
ATOM      6  C   UNL     1       3.419   3.842  19.323  0.00  0.00    +0.000 A 
ENDROOT
BRANCH   6   7
ATOM      7  C   UNL     1       4.314   4.003  18.151  0.00  0.00    +0.000 A 
ATOM      8  C   UNL     1       5.592   4.550  18.280  0.00  0.00    +0.000 A 
ATOM      9  C   UNL     1       6.415   4.733  17.165  0.00  0.00    +0.000 A 
ATOM     10  C   UNL     1       5.975   4.345  15.896  0.00  0.00    +0.000 A 
ATOM     11  C   UNL     1       4.714   3.781  15.748  0.00  0.00    +0.000 A 
ATOM     12  C   UNL     1       3.889   3.660  16.860  0.00  0.00    +0.000 A 
BRANCH  10  13
ATOM     13  C   UNL     1       6.834   4.552  14.682  0.00  0.00    +0.000 C 
ATOM     14  F   UNL     1       6.463   5.628  13.937  0.00  0.00    +0.000 F 
ATOM     15  F   UNL     1       8.142   4.737  14.993  0.00  0.00    +0.000 F 
ATOM     16  F   UNL     1       6.796   3.483  13.835  0.00  0.00    +0.000 F 
ENDBRANCH  10  13
ENDBRANCH   6   7
BRANCH   1  18
ATOM     17  O   UNL     1       1.332   5.785  17.814  0.00  0.00    +0.000 OA
ATOM     18  C   UNL     1       1.996   5.943  18.849  0.00  0.00    +0.000 C 
ATOM     19  N   UNL     1       2.426   7.199  19.220  0.00  0.00    +0.000 N 
ATOM     20  H   UNL     1       3.086   7.324  19.980  0.00  0.00    +0.000 HD
BRANCH  19  21
ATOM     21  C   UNL     1       2.160   8.345  18.368  0.00  0.00    +0.000 C 
BRANCH  21  22
ATOM     22  C   UNL     1       1.419   9.432  19.082  0.00  0.00    +0.000 A 
ATOM     23  N   UNL     1       1.238  10.640  18.511  0.00  0.00    +0.000 NA
ATOM     24  O   UNL     1       0.461  11.376  19.399  0.00  0.00    +0.000 OA
ATOM     25  C   UNL     1       0.200  10.613  20.480  0.00  0.00    +0.000 A 
ATOM     26  C   UNL     1       0.772   9.376  20.348  0.00  0.00    +0.000 A 
ATOM     27  C   UNL     1       0.649   8.335  21.403  0.00  0.00    +0.000 C 
ATOM     28  C   UNL     1      -0.439   8.717  22.441  0.00  0.00    +0.000 C 
ATOM     29  C   UNL     1      -0.407  10.215  22.821  0.00  0.00    +0.000 C 
ATOM     30  C   UNL     1      -0.633  11.121  21.593  0.00  0.00    +0.000 C 
ENDBRANCH  21  22
ENDBRANCH  19  21
ENDBRANCH   1  18
TORSDOF 5
ENDMDL
MODEL 9
REMARK VINA RESULT:      -7.9      2.281      2.948
REMARK  Name = 
REMARK  5 active torsions:
REMARK  status: ('A' for Active; 'I' for Inactive)
REMARK    1  A    between atoms: C_2  and  C_14
REMARK    2  A    between atoms: N_3  and  C_4
REMARK    3  A    between atoms: C_4  and  C_5
REMARK    4  A    between atoms: C_19  and  C_20
REMARK    5  A    between atoms: C_23  and  C_24
REMARK                            x       y       z     vdW  Elec       q    Type
REMARK                         _______ _______ _______ _____ _____    ______ ____
ROOT
ATOM      1  C   UNL     1       2.534   4.648  20.050  0.00  0.00    +0.000 A 
ATOM      2  C   UNL     1       1.888   4.396  21.275  0.00  0.00    +0.000 A 
ATOM      3  C   UNL     1       2.103   3.216  21.976  0.00  0.00    +0.000 A 
ATOM      4  C   UNL     1       2.948   2.242  21.467  0.00  0.00    +0.000 A 
ATOM      5  C   UNL     1       3.613   2.484  20.268  0.00  0.00    +0.000 A 
ATOM      6  C   UNL     1       3.446   3.687  19.542  0.00  0.00    +0.000 A 
ENDROOT
BRANCH   6   7
ATOM      7  C   UNL     1       4.315   3.910  18.360  0.00  0.00    +0.000 A 
ATOM      8  C   UNL     1       5.544   4.562  18.473  0.00  0.00    +0.000 A 
ATOM      9  C   UNL     1       6.339   4.802  17.348  0.00  0.00    +0.000 A 
ATOM     10  C   UNL     1       5.922   4.365  16.087  0.00  0.00    +0.000 A 
ATOM     11  C   UNL     1       4.712   3.696  15.957  0.00  0.00    +0.000 A 
ATOM     12  C   UNL     1       3.909   3.519  17.077  0.00  0.00    +0.000 A 
BRANCH  10  13
ATOM     13  C   UNL     1       6.750   4.630  14.863  0.00  0.00    +0.000 C 
ATOM     14  F   UNL     1       6.719   3.613  13.960  0.00  0.00    +0.000 F 
ATOM     15  F   UNL     1       6.354   5.744  14.196  0.00  0.00    +0.000 F 
ATOM     16  F   UNL     1       8.068   4.820  15.164  0.00  0.00    +0.000 F 
ENDBRANCH  10  13
ENDBRANCH   6   7
BRANCH   1  18
ATOM     17  O   UNL     1       1.925   5.942  18.125  0.00  0.00    +0.000 OA
ATOM     18  C   UNL     1       2.163   5.917  19.341  0.00  0.00    +0.000 C 
ATOM     19  N   UNL     1       2.161   7.082  20.077  0.00  0.00    +0.000 N 
ATOM     20  H   UNL     1       2.492   7.097  21.037  0.00  0.00    +0.000 HD
BRANCH  19  21
ATOM     21  C   UNL     1       1.944   8.362  19.424  0.00  0.00    +0.000 C 
BRANCH  21  22
ATOM     22  C   UNL     1       1.042   9.262  20.209  0.00  0.00    +0.000 A 
ATOM     23  N   UNL     1       1.098   9.299  21.555  0.00  0.00    +0.000 NA
ATOM     24  O   UNL     1       0.192  10.276  21.955  0.00  0.00    +0.000 OA
ATOM     25  C   UNL     1      -0.392  10.798  20.857  0.00  0.00    +0.000 A 
ATOM     26  C   UNL     1       0.095  10.205  19.722  0.00  0.00    +0.000 A 
ATOM     27  C   UNL     1      -0.386  10.586  18.367  0.00  0.00    +0.000 C 
ATOM     28  C   UNL     1      -1.208  11.901  18.414  0.00  0.00    +0.000 C 
ATOM     29  C   UNL     1      -2.160  11.972  19.630  0.00  0.00    +0.000 C 
ATOM     30  C   UNL     1      -1.390  11.885  20.964  0.00  0.00    +0.000 C 
ENDBRANCH  21  22
ENDBRANCH  19  21
ENDBRANCH   1  18
TORSDOF 5
ENDMDL
