MODEL 1
REMARK VINA RESULT:      -8.2      0.000      0.000
REMARK  Name = 
REMARK  4 active torsions:
REMARK  status: ('A' for Active; 'I' for Inactive)
REMARK    1  A    between atoms: C_1  and  C_2
REMARK    2  A    between atoms: C_2  and  C_4
REMARK    3  A    between atoms: C_8  and  N_9
REMARK    4  A    between atoms: C_16  and  C_17
REMARK                            x       y       z     vdW  Elec       q    Type
REMARK                         _______ _______ _______ _____ _____    ______ ____
ROOT
ATOM      1  N   UNL     1       3.946   4.790  19.240  0.00  0.00    +0.000 N 
ATOM      2  C   UNL     1       5.320   5.331  19.322  0.00  0.00    +0.000 C 
ATOM      3  C   UNL     1       5.829   5.113  17.930  0.00  0.00    +0.000 A 
ATOM      4  C   UNL     1       5.131   4.029  17.393  0.00  0.00    +0.000 A 
ATOM      5  C   UNL     1       5.261   3.621  16.079  0.00  0.00    +0.000 A 
ATOM      6  C   UNL     1       6.131   4.351  15.274  0.00  0.00    +0.000 A 
ATOM      7  C   UNL     1       6.823   5.464  15.789  0.00  0.00    +0.000 A 
ATOM      8  C   UNL     1       6.681   5.870  17.134  0.00  0.00    +0.000 A 
ATOM      9  C   UNL     1       3.996   3.730  18.300  0.00  0.00    +0.000 C 
ATOM     10  O   UNL     1       3.178   2.858  18.096  0.00  0.00    +0.000 OA
ENDROOT
BRANCH   1  15
ATOM     11  C   UNL     1       1.862   7.721  19.993  0.00  0.00    +0.000 A 
ATOM     12  C   UNL     1       2.181   8.516  18.884  0.00  0.00    +0.000 A 
ATOM     13  C   UNL     1       2.771   7.950  17.760  0.00  0.00    +0.000 A 
ATOM     14  C   UNL     1       3.131   6.605  17.769  0.00  0.00    +0.000 A 
ATOM     15  C   UNL     1       3.002   5.855  18.947  0.00  0.00    +0.000 A 
ATOM     16  C   UNL     1       2.253   6.377  20.008  0.00  0.00    +0.000 A 
BRANCH  11  18
ATOM     17  C   UNL     1       0.821   9.776  20.908  0.00  0.00    +0.000 C 
ATOM     18  C   UNL     1       1.121   8.312  21.167  0.00  0.00    +0.000 C 
ATOM     19  F   UNL     1      -0.060   7.676  21.419  0.00  0.00    +0.000 F 
ENDBRANCH  11  18
ENDBRANCH   1  15
BRANCH   8  20
ATOM     20  C   UNL     1       7.352   7.142  17.595  0.00  0.00    +0.000 C 
ATOM     21  F   UNL     1       8.217   7.677  16.693  0.00  0.00    +0.000 F 
ATOM     22  F   UNL     1       6.455   8.125  17.874  0.00  0.00    +0.000 F 
ATOM     23  F   UNL     1       8.072   6.958  18.736  0.00  0.00    +0.000 F 
ENDBRANCH   8  20
TORSDOF 3
ENDMDL
MODEL 2
REMARK VINA RESULT:      -7.9      2.167      3.007
REMARK  Name = 
REMARK  4 active torsions:
REMARK  status: ('A' for Active; 'I' for Inactive)
REMARK    1  A    between atoms: C_1  and  C_2
REMARK    2  A    between atoms: C_2  and  C_4
REMARK    3  A    between atoms: C_8  and  N_9
REMARK    4  A    between atoms: C_16  and  C_17
REMARK                            x       y       z     vdW  Elec       q    Type
REMARK                         _______ _______ _______ _____ _____    ______ ____
ROOT
ATOM      1  N   UNL     1       3.224   5.878  20.200  0.00  0.00    +0.000 N 
ATOM      2  C   UNL     1       4.385   5.595  19.328  0.00  0.00    +0.000 C 
ATOM      3  C   UNL     1       3.939   4.367  18.596  0.00  0.00    +0.000 A 
ATOM      4  C   UNL     1       3.020   3.703  19.412  0.00  0.00    +0.000 A 
ATOM      5  C   UNL     1       2.314   2.588  19.003  0.00  0.00    +0.000 A 
ATOM      6  C   UNL     1       2.543   2.133  17.708  0.00  0.00    +0.000 A 
ATOM      7  C   UNL     1       3.445   2.806  16.860  0.00  0.00    +0.000 A 
ATOM      8  C   UNL     1       4.161   3.945  17.290  0.00  0.00    +0.000 A 
ATOM      9  C   UNL     1       2.657   4.619  20.520  0.00  0.00    +0.000 C 
ATOM     10  O   UNL     1       1.852   4.348  21.386  0.00  0.00    +0.000 OA
ENDROOT
BRANCH   1  15
ATOM     11  C   UNL     1       1.199   8.935  19.962  0.00  0.00    +0.000 A 
ATOM     12  C   UNL     1       1.607   9.378  18.696  0.00  0.00    +0.000 A 
ATOM     13  C   UNL     1       2.241   8.507  17.818  0.00  0.00    +0.000 A 
ATOM     14  C   UNL     1       2.555   7.215  18.228  0.00  0.00    +0.000 A 
ATOM     15  C   UNL     1       2.334   6.832  19.559  0.00  0.00    +0.000 A 
ATOM     16  C   UNL     1       1.544   7.644  20.380  0.00  0.00    +0.000 A 
BRANCH  11  18
ATOM     17  C   UNL     1      -0.114   9.067  22.060  0.00  0.00    +0.000 C 
ATOM     18  C   UNL     1       0.413   9.847  20.872  0.00  0.00    +0.000 C 
ATOM     19  F   UNL     1       1.158  10.888  21.345  0.00  0.00    +0.000 F 
ENDBRANCH  11  18
ENDBRANCH   1  15
BRANCH   8  20
ATOM     20  C   UNL     1       5.018   4.694  16.299  0.00  0.00    +0.000 C 
ATOM     21  F   UNL     1       6.326   4.797  16.656  0.00  0.00    +0.000 F 
ATOM     22  F   UNL     1       5.017   4.108  15.072  0.00  0.00    +0.000 F 
ATOM     23  F   UNL     1       4.584   5.970  16.105  0.00  0.00    +0.000 F 
ENDBRANCH   8  20
TORSDOF 3
ENDMDL
MODEL 3
REMARK VINA RESULT:      -7.9      2.078      2.953
REMARK  Name = 
REMARK  4 active torsions:
REMARK  status: ('A' for Active; 'I' for Inactive)
REMARK    1  A    between atoms: C_1  and  C_2
REMARK    2  A    between atoms: C_2  and  C_4
REMARK    3  A    between atoms: C_8  and  N_9
REMARK    4  A    between atoms: C_16  and  C_17
REMARK                            x       y       z     vdW  Elec       q    Type
REMARK                         _______ _______ _______ _____ _____    ______ ____
ROOT
ATOM      1  N   UNL     1       3.238   5.865  20.199  0.00  0.00    +0.000 N 
ATOM      2  C   UNL     1       4.394   5.591  19.317  0.00  0.00    +0.000 C 
ATOM      3  C   UNL     1       3.950   4.359  18.588  0.00  0.00    +0.000 A 
ATOM      4  C   UNL     1       3.043   3.688  19.411  0.00  0.00    +0.000 A 
ATOM      5  C   UNL     1       2.341   2.569  19.008  0.00  0.00    +0.000 A 
ATOM      6  C   UNL     1       2.563   2.116  17.710  0.00  0.00    +0.000 A 
ATOM      7  C   UNL     1       3.452   2.796  16.856  0.00  0.00    +0.000 A 
ATOM      8  C   UNL     1       4.164   3.939  17.280  0.00  0.00    +0.000 A 
ATOM      9  C   UNL     1       2.682   4.602  20.523  0.00  0.00    +0.000 C 
ATOM     10  O   UNL     1       1.887   4.324  21.395  0.00  0.00    +0.000 OA
ENDROOT
BRANCH   1  15
ATOM     11  C   UNL     1       1.182   8.902  19.983  0.00  0.00    +0.000 A 
ATOM     12  C   UNL     1       1.581   9.356  18.718  0.00  0.00    +0.000 A 
ATOM     13  C   UNL     1       2.220   8.495  17.833  0.00  0.00    +0.000 A 
ATOM     14  C   UNL     1       2.548   7.204  18.236  0.00  0.00    +0.000 A 
ATOM     15  C   UNL     1       2.336   6.812  19.566  0.00  0.00    +0.000 A 
ATOM     16  C   UNL     1       1.541   7.613  20.393  0.00  0.00    +0.000 A 
BRANCH  11  18
ATOM     17  C   UNL     1      -0.493  10.727  20.087  0.00  0.00    +0.000 C 
ATOM     18  C   UNL     1       0.390   9.802  20.900  0.00  0.00    +0.000 C 
ATOM     19  F   UNL     1      -0.407   9.104  21.762  0.00  0.00    +0.000 F 
ENDBRANCH  11  18
ENDBRANCH   1  15
BRANCH   8  20
ATOM     20  C   UNL     1       5.008   4.695  16.283  0.00  0.00    +0.000 C 
ATOM     21  F   UNL     1       4.629   5.986  16.091  0.00  0.00    +0.000 F 
ATOM     22  F   UNL     1       6.316   4.746  16.650  0.00  0.00    +0.000 F 
ATOM     23  F   UNL     1       4.989   4.116  15.050  0.00  0.00    +0.000 F 
ENDBRANCH   8  20
TORSDOF 3
ENDMDL
MODEL 4
REMARK VINA RESULT:      -7.9      3.620      4.841
REMARK  Name = 
REMARK  4 active torsions:
REMARK  status: ('A' for Active; 'I' for Inactive)
REMARK    1  A    between atoms: C_1  and  C_2
REMARK    2  A    between atoms: C_2  and  C_4
REMARK    3  A    between atoms: C_8  and  N_9
REMARK    4  A    between atoms: C_16  and  C_17
REMARK                            x       y       z     vdW  Elec       q    Type
REMARK                         _______ _______ _______ _____ _____    ______ ____
ROOT
ATOM      1  N   UNL     1       2.670   6.376  17.590  0.00  0.00    +0.000 N 
ATOM      2  C   UNL     1       1.774   5.219  17.808  0.00  0.00    +0.000 C 
ATOM      3  C   UNL     1       2.658   4.272  18.560  0.00  0.00    +0.000 A 
ATOM      4  C   UNL     1       3.978   4.557  18.202  0.00  0.00    +0.000 A 
ATOM      5  C   UNL     1       5.070   3.952  18.795  0.00  0.00    +0.000 A 
ATOM      6  C   UNL     1       4.811   3.025  19.801  0.00  0.00    +0.000 A 
ATOM      7  C   UNL     1       3.488   2.745  20.195  0.00  0.00    +0.000 A 
ATOM      8  C   UNL     1       2.381   3.370  19.581  0.00  0.00    +0.000 A 
ATOM      9  C   UNL     1       3.976   5.842  17.461  0.00  0.00    +0.000 C 
ATOM     10  O   UNL     1       4.978   6.381  17.039  0.00  0.00    +0.000 OA
ENDROOT
BRANCH   1  15
ATOM     11  C   UNL     1       1.246   9.379  19.156  0.00  0.00    +0.000 A 
ATOM     12  C   UNL     1       0.952   8.855  20.423  0.00  0.00    +0.000 A 
ATOM     13  C   UNL     1       1.540   7.669  20.846  0.00  0.00    +0.000 A 
ATOM     14  C   UNL     1       2.353   6.949  19.976  0.00  0.00    +0.000 A 
ATOM     15  C   UNL     1       2.486   7.361  18.641  0.00  0.00    +0.000 A 
ATOM     16  C   UNL     1       2.040   8.636  18.275  0.00  0.00    +0.000 A 
BRANCH  11  18
ATOM     17  C   UNL     1      -0.754  10.582  18.321  0.00  0.00    +0.000 C 
ATOM     18  C   UNL     1       0.696  10.721  18.740  0.00  0.00    +0.000 C 
ATOM     19  F   UNL     1       0.761  11.649  19.740  0.00  0.00    +0.000 F 
ENDBRANCH  11  18
ENDBRANCH   1  15
BRANCH   8  20
ATOM     20  C   UNL     1       0.996   3.122  20.129  0.00  0.00    +0.000 C 
ATOM     21  F   UNL     1       0.172   2.448  19.284  0.00  0.00    +0.000 F 
ATOM     22  F   UNL     1       1.020   2.394  21.278  0.00  0.00    +0.000 F 
ATOM     23  F   UNL     1       0.349   4.280  20.434  0.00  0.00    +0.000 F 
ENDBRANCH   8  20
TORSDOF 3
ENDMDL
MODEL 5
REMARK VINA RESULT:      -7.6      2.126      6.023
REMARK  Name = 
REMARK  4 active torsions:
REMARK  status: ('A' for Active; 'I' for Inactive)
REMARK    1  A    between atoms: C_1  and  C_2
REMARK    2  A    between atoms: C_2  and  C_4
REMARK    3  A    between atoms: C_8  and  N_9
REMARK    4  A    between atoms: C_16  and  C_17
REMARK                            x       y       z     vdW  Elec       q    Type
REMARK                         _______ _______ _______ _____ _____    ______ ____
ROOT
ATOM      1  N   UNL     1       3.433   3.213  17.128  0.00  0.00    +0.000 N 
ATOM      2  C   UNL     1       2.590   4.428  17.124  0.00  0.00    +0.000 C 
ATOM      3  C   UNL     1       2.373   4.668  18.587  0.00  0.00    +0.000 A 
ATOM      4  C   UNL     1       2.479   3.434  19.234  0.00  0.00    +0.000 A 
ATOM      5  C   UNL     1       2.449   3.296  20.608  0.00  0.00    +0.000 A 
ATOM      6  C   UNL     1       2.318   4.462  21.358  0.00  0.00    +0.000 A 
ATOM      7  C   UNL     1       2.239   5.717  20.726  0.00  0.00    +0.000 A 
ATOM      8  C   UNL     1       2.269   5.845  19.320  0.00  0.00    +0.000 A 
ATOM      9  C   UNL     1       3.035   2.462  18.262  0.00  0.00    +0.000 C 
ATOM     10  O   UNL     1       3.275   1.303  18.527  0.00  0.00    +0.000 OA
ENDROOT
BRANCH   1  15
ATOM     11  C   UNL     1       6.524   4.392  15.529  0.00  0.00    +0.000 A 
ATOM     12  C   UNL     1       6.950   5.303  16.506  0.00  0.00    +0.000 A 
ATOM     13  C   UNL     1       6.428   5.249  17.793  0.00  0.00    +0.000 A 
ATOM     14  C   UNL     1       5.411   4.347  18.091  0.00  0.00    +0.000 A 
ATOM     15  C   UNL     1       4.839   3.575  17.068  0.00  0.00    +0.000 A 
ATOM     16  C   UNL     1       5.481   3.507  15.827  0.00  0.00    +0.000 A 
BRANCH  11  18
ATOM     17  C   UNL     1       6.217   3.794  13.144  0.00  0.00    +0.000 C 
ATOM     18  C   UNL     1       7.171   4.379  14.166  0.00  0.00    +0.000 C 
ATOM     19  F   UNL     1       7.534   5.625  13.744  0.00  0.00    +0.000 F 
ENDBRANCH  11  18
ENDBRANCH   1  15
BRANCH   8  20
ATOM     20  C   UNL     1       2.304   7.223  18.705  0.00  0.00    +0.000 C 
ATOM     21  F   UNL     1       1.396   7.417  17.712  0.00  0.00    +0.000 F 
ATOM     22  F   UNL     1       2.065   8.200  19.619  0.00  0.00    +0.000 F 
ATOM     23  F   UNL     1       3.518   7.511  18.159  0.00  0.00    +0.000 F 
ENDBRANCH   8  20
TORSDOF 3
ENDMDL
MODEL 6
REMARK VINA RESULT:      -7.6      2.409      6.145
REMARK  Name = 
REMARK  4 active torsions:
REMARK  status: ('A' for Active; 'I' for Inactive)
REMARK    1  A    between atoms: C_1  and  C_2
REMARK    2  A    between atoms: C_2  and  C_4
REMARK    3  A    between atoms: C_8  and  N_9
REMARK    4  A    between atoms: C_16  and  C_17
REMARK                            x       y       z     vdW  Elec       q    Type
REMARK                         _______ _______ _______ _____ _____    ______ ____
ROOT
ATOM      1  N   UNL     1       2.683   3.875  17.199  0.00  0.00    +0.000 N 
ATOM      2  C   UNL     1       1.730   4.773  17.888  0.00  0.00    +0.000 C 
ATOM      3  C   UNL     1       1.843   4.320  19.312  0.00  0.00    +0.000 A 
ATOM      4  C   UNL     1       2.239   2.981  19.296  0.00  0.00    +0.000 A 
ATOM      5  C   UNL     1       2.555   2.271  20.439  0.00  0.00    +0.000 A 
ATOM      6  C   UNL     1       2.475   2.955  21.650  0.00  0.00    +0.000 A 
ATOM      7  C   UNL     1       2.105   4.313  21.684  0.00  0.00    +0.000 A 
ATOM      8  C   UNL     1       1.784   5.026  20.508  0.00  0.00    +0.000 A 
ATOM      9  C   UNL     1       2.654   2.650  17.911  0.00  0.00    +0.000 C 
ATOM     10  O   UNL     1       3.081   1.566  17.573  0.00  0.00    +0.000 OA
ENDROOT
BRANCH   1  15
ATOM     11  C   UNL     1       5.801   4.848  15.517  0.00  0.00    +0.000 A 
ATOM     12  C   UNL     1       5.837   6.203  15.873  0.00  0.00    +0.000 A 
ATOM     13  C   UNL     1       5.059   6.674  16.925  0.00  0.00    +0.000 A 
ATOM     14  C   UNL     1       4.173   5.816  17.569  0.00  0.00    +0.000 A 
ATOM     15  C   UNL     1       3.983   4.513  17.084  0.00  0.00    +0.000 A 
ATOM     16  C   UNL     1       4.886   3.997  16.148  0.00  0.00    +0.000 A 
BRANCH  11  18
ATOM     17  C   UNL     1       5.921   3.719  13.313  0.00  0.00    +0.000 C 
ATOM     18  C   UNL     1       6.726   4.316  14.450  0.00  0.00    +0.000 C 
ATOM     19  F   UNL     1       7.541   5.281  13.931  0.00  0.00    +0.000 F 
ENDBRANCH  11  18
ENDBRANCH   1  15
BRANCH   8  20
ATOM     20  C   UNL     1       1.515   6.509  20.595  0.00  0.00    +0.000 C 
ATOM     21  F   UNL     1       1.853   7.207  19.479  0.00  0.00    +0.000 F 
ATOM     22  F   UNL     1       0.201   6.781  20.815  0.00  0.00    +0.000 F 
ATOM     23  F   UNL     1       2.194   7.095  21.620  0.00  0.00    +0.000 F 
ENDBRANCH   8  20
TORSDOF 3
ENDMDL
MODEL 7
REMARK VINA RESULT:      -7.6      1.530      2.419
REMARK  Name = 
REMARK  4 active torsions:
REMARK  status: ('A' for Active; 'I' for Inactive)
REMARK    1  A    between atoms: C_1  and  C_2
REMARK    2  A    between atoms: C_2  and  C_4
REMARK    3  A    between atoms: C_8  and  N_9
REMARK    4  A    between atoms: C_16  and  C_17
REMARK                            x       y       z     vdW  Elec       q    Type
REMARK                         _______ _______ _______ _____ _____    ______ ____
ROOT
ATOM      1  N   UNL     1       4.020   3.114  18.725  0.00  0.00    +0.000 N 
ATOM      2  C   UNL     1       5.480   3.316  18.844  0.00  0.00    +0.000 C 
ATOM      3  C   UNL     1       5.736   4.378  17.818  0.00  0.00    +0.000 A 
ATOM      4  C   UNL     1       4.742   4.269  16.844  0.00  0.00    +0.000 A 
ATOM      5  C   UNL     1       4.600   5.167  15.804  0.00  0.00    +0.000 A 
ATOM      6  C   UNL     1       5.500   6.228  15.757  0.00  0.00    +0.000 A 
ATOM      7  C   UNL     1       6.492   6.372  16.746  0.00  0.00    +0.000 A 
ATOM      8  C   UNL     1       6.627   5.446  17.804  0.00  0.00    +0.000 A 
ATOM      9  C   UNL     1       3.699   3.352  17.365  0.00  0.00    +0.000 C 
ATOM     10  O   UNL     1       2.682   3.073  16.766  0.00  0.00    +0.000 OA
ENDROOT
BRANCH   1  15
ATOM     11  C   UNL     1       2.270   6.107  19.943  0.00  0.00    +0.000 A 
ATOM     12  C   UNL     1       1.178   5.490  20.570  0.00  0.00    +0.000 A 
ATOM     13  C   UNL     1       1.222   4.138  20.888  0.00  0.00    +0.000 A 
ATOM     14  C   UNL     1       2.317   3.370  20.502  0.00  0.00    +0.000 A 
ATOM     15  C   UNL     1       3.317   3.935  19.697  0.00  0.00    +0.000 A 
ATOM     16  C   UNL     1       3.355   5.324  19.531  0.00  0.00    +0.000 A 
BRANCH  11  18
ATOM     17  C   UNL     1       2.315   7.879  18.211  0.00  0.00    +0.000 C 
ATOM     18  C   UNL     1       2.268   7.596  19.699  0.00  0.00    +0.000 C 
ATOM     19  F   UNL     1       1.163   8.212  20.213  0.00  0.00    +0.000 F 
ENDBRANCH  11  18
ENDBRANCH   1  15
BRANCH   8  20
ATOM     20  C   UNL     1       7.628   5.719  18.900  0.00  0.00    +0.000 C 
ATOM     21  F   UNL     1       8.270   6.912  18.788  0.00  0.00    +0.000 F 
ATOM     22  F   UNL     1       7.054   5.724  20.132  0.00  0.00    +0.000 F 
ATOM     23  F   UNL     1       8.608   4.775  18.948  0.00  0.00    +0.000 F 
ENDBRANCH   8  20
TORSDOF 3
ENDMDL
MODEL 8
REMARK VINA RESULT:      -7.4      5.496      8.170
REMARK  Name = 
REMARK  4 active torsions:
REMARK  status: ('A' for Active; 'I' for Inactive)
REMARK    1  A    between atoms: C_1  and  C_2
REMARK    2  A    between atoms: C_2  and  C_4
REMARK    3  A    between atoms: C_8  and  N_9
REMARK    4  A    between atoms: C_16  and  C_17
REMARK                            x       y       z     vdW  Elec       q    Type
REMARK                         _______ _______ _______ _____ _____    ______ ____
ROOT
ATOM      1  N   UNL     1      -1.387  12.012  19.207  0.00  0.00    +0.000 N 
ATOM      2  C   UNL     1      -0.020  11.636  18.786  0.00  0.00    +0.000 C 
ATOM      3  C   UNL     1       0.343  10.587  19.792  0.00  0.00    +0.000 A 
ATOM      4  C   UNL     1      -0.392  10.845  20.951  0.00  0.00    +0.000 A 
ATOM      5  C   UNL     1      -0.394  10.006  22.049  0.00  0.00    +0.000 A 
ATOM      6  C   UNL     1       0.375   8.849  21.961  0.00  0.00    +0.000 A 
ATOM      7  C   UNL     1       1.101   8.557  20.790  0.00  0.00    +0.000 A 
ATOM      8  C   UNL     1       1.095   9.424  19.676  0.00  0.00    +0.000 A 
ATOM      9  C   UNL     1      -1.421  11.860  20.615  0.00  0.00    +0.000 C 
ATOM     10  O   UNL     1      -2.243  12.277  21.404  0.00  0.00    +0.000 OA
ENDROOT
BRANCH   1  15
ATOM     11  C   UNL     1      -4.518  11.479  17.358  0.00  0.00    +0.000 A 
ATOM     12  C   UNL     1      -4.014  10.760  16.265  0.00  0.00    +0.000 A 
ATOM     13  C   UNL     1      -2.760  10.166  16.332  0.00  0.00    +0.000 A 
ATOM     14  C   UNL     1      -1.959  10.362  17.454  0.00  0.00    +0.000 A 
ATOM     15  C   UNL     1      -2.372  11.247  18.461  0.00  0.00    +0.000 A 
ATOM     16  C   UNL     1      -3.696  11.697  18.470  0.00  0.00    +0.000 A 
BRANCH  11  18
ATOM     17  C   UNL     1      -6.807  11.247  18.278  0.00  0.00    +0.000 C 
ATOM     18  C   UNL     1      -5.923  12.028  17.327  0.00  0.00    +0.000 C 
ATOM     19  F   UNL     1      -5.980  13.346  17.680  0.00  0.00    +0.000 F 
ENDBRANCH  11  18
ENDBRANCH   1  15
BRANCH   8  20
ATOM     20  C   UNL     1       1.793   8.998  18.407  0.00  0.00    +0.000 C 
ATOM     21  F   UNL     1       0.953   8.657  17.393  0.00  0.00    +0.000 F 
ATOM     22  F   UNL     1       2.595   9.976  17.907  0.00  0.00    +0.000 F 
ATOM     23  F   UNL     1       2.598   7.917  18.601  0.00  0.00    +0.000 F 
ENDBRANCH   8  20
TORSDOF 3
ENDMDL
MODEL 9
REMARK VINA RESULT:      -7.2      5.679      8.447
REMARK  Name = 
REMARK  4 active torsions:
REMARK  status: ('A' for Active; 'I' for Inactive)
REMARK    1  A    between atoms: C_1  and  C_2
REMARK    2  A    between atoms: C_2  and  C_4
REMARK    3  A    between atoms: C_8  and  N_9
REMARK    4  A    between atoms: C_16  and  C_17
REMARK                            x       y       z     vdW  Elec       q    Type
REMARK                         _______ _______ _______ _____ _____    ______ ____
ROOT
ATOM      1  N   UNL     1      -1.568  12.253  19.399  0.00  0.00    +0.000 N 
ATOM      2  C   UNL     1      -0.215  11.889  18.926  0.00  0.00    +0.000 C 
ATOM      3  C   UNL     1       0.179  10.813  19.892  0.00  0.00    +0.000 A 
ATOM      4  C   UNL     1      -0.520  11.040  21.080  0.00  0.00    +0.000 A 
ATOM      5  C   UNL     1      -0.488  10.170  22.153  0.00  0.00    +0.000 A 
ATOM      6  C   UNL     1       0.278   9.017  22.010  0.00  0.00    +0.000 A 
ATOM      7  C   UNL     1       0.967   8.757  20.810  0.00  0.00    +0.000 A 
ATOM      8  C   UNL     1       0.927   9.654  19.720  0.00  0.00    +0.000 A 
ATOM      9  C   UNL     1      -1.559  12.062  20.804  0.00  0.00    +0.000 C 
ATOM     10  O   UNL     1      -2.355  12.457  21.629  0.00  0.00    +0.000 OA
ENDROOT
BRANCH   1  15
ATOM     11  C   UNL     1      -4.847  11.694  17.837  0.00  0.00    +0.000 A 
ATOM     12  C   UNL     1      -4.424  11.168  16.608  0.00  0.00    +0.000 A 
ATOM     13  C   UNL     1      -3.131  10.681  16.460  0.00  0.00    +0.000 A 
ATOM     14  C   UNL     1      -2.221  10.799  17.506  0.00  0.00    +0.000 A 
ATOM     15  C   UNL     1      -2.576  11.508  18.664  0.00  0.00    +0.000 A 
ATOM     16  C   UNL     1      -3.919  11.837  18.876  0.00  0.00    +0.000 A 
BRANCH  11  18
ATOM     17  C   UNL     1      -6.661  13.158  16.995  0.00  0.00    +0.000 C 
ATOM     18  C   UNL     1      -6.281  12.119  18.031  0.00  0.00    +0.000 C 
ATOM     19  F   UNL     1      -7.157  11.077  17.927  0.00  0.00    +0.000 F 
ENDBRANCH  11  18
ENDBRANCH   1  15
BRANCH   8  20
ATOM     20  C   UNL     1       1.584   9.263  18.419  0.00  0.00    +0.000 C 
ATOM     21  F   UNL     1       2.439  10.196  17.921  0.00  0.00    +0.000 F 
ATOM     22  F   UNL     1       2.312   8.120  18.533  0.00  0.00    +0.000 F 
ATOM     23  F   UNL     1       0.674   9.030  17.433  0.00  0.00    +0.000 F 
ENDBRANCH   8  20
TORSDOF 3
ENDMDL
