MODEL 1
REMARK VINA RESULT:      -9.0      0.000      0.000
REMARK  Name = 
REMARK  4 active torsions:
REMARK  status: ('A' for Active; 'I' for Inactive)
REMARK    1  A    between atoms: C_1  and  C_2
REMARK    2  A    between atoms: C_4  and  C_5
REMARK    3  A    between atoms: C_9  and  N_10
REMARK    4  A    between atoms: C_11  and  C_13
REMARK                            x       y       z     vdW  Elec       q    Type
REMARK                         _______ _______ _______ _____ _____    ______ ____
ROOT
ATOM      1  N   UNL     1       4.218   7.184  17.811  0.00  0.00    +0.000 N 
ATOM      2  C   UNL     1       3.021   6.872  18.439  0.00  0.00    +0.000 C 
ATOM      3  O   UNL     1       2.668   5.766  18.834  0.00  0.00    +0.000 OA
ATOM      4  H   UNL     1       4.480   8.160  17.739  0.00  0.00    +0.000 HD
ENDROOT
BRANCH   2   5
ATOM      5  C   UNL     1       2.098   8.007  18.704  0.00  0.00    +0.000 A 
ATOM      6  C   UNL     1       1.820   8.899  17.665  0.00  0.00    +0.000 A 
ATOM      7  C   UNL     1       1.031  10.000  17.936  0.00  0.00    +0.000 A 
ATOM      8  N   UNL     1       0.532  10.273  19.162  0.00  0.00    +0.000 NA
ATOM      9  C   UNL     1       0.824   9.399  20.162  0.00  0.00    +0.000 A 
ATOM     10  N   UNL     1       0.373   9.698  21.473  0.00  0.00    +0.000 N 
ATOM     11  C   UNL     1      -0.235  10.848  21.903  0.00  0.00    +0.000 A 
ATOM     12  N   UNL     1      -0.479  10.778  23.193  0.00  0.00    +0.000 NA
ATOM     13  C   UNL     1      -0.003   9.545  23.523  0.00  0.00    +0.000 A 
ATOM     14  N   UNL     1       0.529   8.844  22.520  0.00  0.00    +0.000 NA
ATOM     15  C   UNL     1       1.586   8.249  19.976  0.00  0.00    +0.000 A 
ENDBRANCH   2   5
BRANCH   1  20
ATOM     16  C   UNL     1       6.345   4.966  15.720  0.00  0.00    +0.000 A 
ATOM     17  C   UNL     1       7.286   4.531  16.664  0.00  0.00    +0.000 A 
ATOM     18  C   UNL     1       7.184   4.923  17.995  0.00  0.00    +0.000 A 
ATOM     19  C   UNL     1       6.161   5.778  18.392  0.00  0.00    +0.000 A 
ATOM     20  C   UNL     1       5.225   6.250  17.468  0.00  0.00    +0.000 A 
ATOM     21  C   UNL     1       5.296   5.804  16.139  0.00  0.00    +0.000 A 
BRANCH  16  25
ATOM     22  C   UNL     1       5.928   2.489  11.485  0.00  0.00    +0.000 C 
ATOM     23  C   UNL     1       6.295   3.463  12.534  0.00  0.00    +0.000 A 
ATOM     24  N   UNL     1       5.813   3.553  13.752  0.00  0.00    +0.000 NA
ATOM     25  C   UNL     1       6.522   4.594  14.318  0.00  0.00    +0.000 A 
ATOM     26  N   UNL     1       7.404   5.162  13.480  0.00  0.00    +0.000 NA
ATOM     27  N   UNL     1       7.245   4.428  12.367  0.00  0.00    +0.000 N 
ATOM     28  H   UNL     1       7.817   4.622  11.554  0.00  0.00    +0.000 HD
ENDBRANCH  16  25
ENDBRANCH   1  20
TORSDOF 3
ENDMDL
MODEL 2
REMARK VINA RESULT:      -8.7      2.970      9.164
REMARK  Name = 
REMARK  4 active torsions:
REMARK  status: ('A' for Active; 'I' for Inactive)
REMARK    1  A    between atoms: C_1  and  C_2
REMARK    2  A    between atoms: C_4  and  C_5
REMARK    3  A    between atoms: C_9  and  N_10
REMARK    4  A    between atoms: C_11  and  C_13
REMARK                            x       y       z     vdW  Elec       q    Type
REMARK                         _______ _______ _______ _____ _____    ______ ____
ROOT
ATOM      1  N   UNL     1       1.399   8.648  19.301  0.00  0.00    +0.000 N 
ATOM      2  C   UNL     1       2.199   8.286  18.226  0.00  0.00    +0.000 C 
ATOM      3  O   UNL     1       2.305   8.883  17.160  0.00  0.00    +0.000 OA
ATOM      4  H   UNL     1       1.570   8.203  20.194  0.00  0.00    +0.000 HD
ENDROOT
BRANCH   2   5
ATOM      5  C   UNL     1       3.050   7.082  18.411  0.00  0.00    +0.000 A 
ATOM      6  C   UNL     1       2.930   6.355  19.599  0.00  0.00    +0.000 A 
ATOM      7  C   UNL     1       3.782   5.288  19.806  0.00  0.00    +0.000 A 
ATOM      8  N   UNL     1       4.743   4.922  18.928  0.00  0.00    +0.000 NA
ATOM      9  C   UNL     1       4.851   5.650  17.785  0.00  0.00    +0.000 A 
ATOM     10  N   UNL     1       5.896   5.334  16.879  0.00  0.00    +0.000 N 
ATOM     11  C   UNL     1       6.919   4.441  17.067  0.00  0.00    +0.000 A 
ATOM     12  N   UNL     1       7.718   4.441  16.023  0.00  0.00    +0.000 NA
ATOM     13  C   UNL     1       7.138   5.357  15.199  0.00  0.00    +0.000 A 
ATOM     14  N   UNL     1       6.030   5.936  15.667  0.00  0.00    +0.000 NA
ATOM     15  C   UNL     1       4.019   6.723  17.478  0.00  0.00    +0.000 A 
ENDBRANCH   2   5
BRANCH   1  20
ATOM     16  C   UNL     1      -1.399  10.893  18.327  0.00  0.00    +0.000 A 
ATOM     17  C   UNL     1      -1.374  11.822  19.377  0.00  0.00    +0.000 A 
ATOM     18  C   UNL     1      -0.403  11.739  20.369  0.00  0.00    +0.000 A 
ATOM     19  C   UNL     1       0.535  10.712  20.342  0.00  0.00    +0.000 A 
ATOM     20  C   UNL     1       0.517   9.755  19.323  0.00  0.00    +0.000 A 
ATOM     21  C   UNL     1      -0.426   9.878  18.291  0.00  0.00    +0.000 A 
BRANCH  16  25
ATOM     22  C   UNL     1      -3.918  10.238  14.147  0.00  0.00    +0.000 C 
ATOM     23  C   UNL     1      -3.489  10.644  15.502  0.00  0.00    +0.000 A 
ATOM     24  N   UNL     1      -2.412  10.266  16.151  0.00  0.00    +0.000 NA
ATOM     25  C   UNL     1      -2.474  10.966  17.340  0.00  0.00    +0.000 A 
ATOM     26  N   UNL     1      -3.566  11.740  17.452  0.00  0.00    +0.000 NA
ATOM     27  N   UNL     1      -4.184  11.522  16.280  0.00  0.00    +0.000 N 
ATOM     28  H   UNL     1      -5.047  12.011  16.072  0.00  0.00    +0.000 HD
ENDBRANCH  16  25
ENDBRANCH   1  20
TORSDOF 3
ENDMDL
MODEL 3
REMARK VINA RESULT:      -8.7      3.385      9.677
REMARK  Name = 
REMARK  4 active torsions:
REMARK  status: ('A' for Active; 'I' for Inactive)
REMARK    1  A    between atoms: C_1  and  C_2
REMARK    2  A    between atoms: C_4  and  C_5
REMARK    3  A    between atoms: C_9  and  N_10
REMARK    4  A    between atoms: C_11  and  C_13
REMARK                            x       y       z     vdW  Elec       q    Type
REMARK                         _______ _______ _______ _____ _____    ______ ____
ROOT
ATOM      1  N   UNL     1       1.045   9.210  19.233  0.00  0.00    +0.000 N 
ATOM      2  C   UNL     1       1.926   8.795  18.245  0.00  0.00    +0.000 C 
ATOM      3  O   UNL     1       2.206   9.397  17.214  0.00  0.00    +0.000 OA
ATOM      4  H   UNL     1       1.072   8.736  20.127  0.00  0.00    +0.000 HD
ENDROOT
BRANCH   2   5
ATOM      5  C   UNL     1       2.640   7.515  18.491  0.00  0.00    +0.000 A 
ATOM      6  C   UNL     1       2.287   6.758  19.612  0.00  0.00    +0.000 A 
ATOM      7  C   UNL     1       3.010   5.613  19.887  0.00  0.00    +0.000 A 
ATOM      8  N   UNL     1       4.057   5.197  19.140  0.00  0.00    +0.000 NA
ATOM      9  C   UNL     1       4.391   5.955  18.061  0.00  0.00    +0.000 A 
ATOM     10  N   UNL     1       5.528   5.581  17.301  0.00  0.00    +0.000 N 
ATOM     11  C   UNL     1       6.437   4.596  17.589  0.00  0.00    +0.000 A 
ATOM     12  N   UNL     1       7.378   4.564  16.672  0.00  0.00    +0.000 NA
ATOM     13  C   UNL     1       7.002   5.558  15.819  0.00  0.00    +0.000 A 
ATOM     14  N   UNL     1       5.889   6.213  16.151  0.00  0.00    +0.000 NA
ATOM     15  C   UNL     1       3.703   7.106  17.691  0.00  0.00    +0.000 A 
ENDBRANCH   2   5
BRANCH   1  20
ATOM     16  C   UNL     1      -1.808  11.478  18.501  0.00  0.00    +0.000 A 
ATOM     17  C   UNL     1      -1.409  12.637  19.182  0.00  0.00    +0.000 A 
ATOM     18  C   UNL     1      -0.181  12.686  19.831  0.00  0.00    +0.000 A 
ATOM     19  C   UNL     1       0.651  11.571  19.835  0.00  0.00    +0.000 A 
ATOM     20  C   UNL     1       0.268  10.393  19.187  0.00  0.00    +0.000 A 
ATOM     21  C   UNL     1      -0.945  10.367  18.482  0.00  0.00    +0.000 A 
BRANCH  16  25
ATOM     22  C   UNL     1      -6.710  11.462  18.040  0.00  0.00    +0.000 C 
ATOM     23  C   UNL     1      -5.256  11.426  17.779  0.00  0.00    +0.000 A 
ATOM     24  N   UNL     1      -4.281  11.622  18.636  0.00  0.00    +0.000 NA
ATOM     25  C   UNL     1      -3.134  11.434  17.889  0.00  0.00    +0.000 A 
ATOM     26  N   UNL     1      -3.374  11.155  16.598  0.00  0.00    +0.000 NA
ATOM     27  N   UNL     1      -4.716  11.150  16.557  0.00  0.00    +0.000 N 
ATOM     28  H   UNL     1      -5.189  10.938  15.686  0.00  0.00    +0.000 HD
ENDBRANCH  16  25
ENDBRANCH   1  20
TORSDOF 3
ENDMDL
MODEL 4
REMARK VINA RESULT:      -8.6      2.809      8.861
REMARK  Name = 
REMARK  4 active torsions:
REMARK  status: ('A' for Active; 'I' for Inactive)
REMARK    1  A    between atoms: C_1  and  C_2
REMARK    2  A    between atoms: C_4  and  C_5
REMARK    3  A    between atoms: C_9  and  N_10
REMARK    4  A    between atoms: C_11  and  C_13
REMARK                            x       y       z     vdW  Elec       q    Type
REMARK                         _______ _______ _______ _____ _____    ______ ____
ROOT
ATOM      1  N   UNL     1       2.217   7.394  20.067  0.00  0.00    +0.000 N 
ATOM      2  C   UNL     1       1.940   6.057  20.316  0.00  0.00    +0.000 C 
ATOM      3  O   UNL     1       0.922   5.605  20.830  0.00  0.00    +0.000 OA
ATOM      4  H   UNL     1       2.983   7.614  19.442  0.00  0.00    +0.000 HD
ENDROOT
BRANCH   2   5
ATOM      5  C   UNL     1       2.959   5.074  19.865  0.00  0.00    +0.000 A 
ATOM      6  C   UNL     1       2.997   3.820  20.481  0.00  0.00    +0.000 A 
ATOM      7  C   UNL     1       3.999   2.941  20.121  0.00  0.00    +0.000 A 
ATOM      8  N   UNL     1       4.961   3.238  19.218  0.00  0.00    +0.000 NA
ATOM      9  C   UNL     1       4.912   4.467  18.640  0.00  0.00    +0.000 A 
ATOM     10  N   UNL     1       5.948   4.832  17.742  0.00  0.00    +0.000 N 
ATOM     11  C   UNL     1       7.094   4.133  17.464  0.00  0.00    +0.000 A 
ATOM     12  N   UNL     1       7.836   4.800  16.607  0.00  0.00    +0.000 NA
ATOM     13  C   UNL     1       7.095   5.920  16.375  0.00  0.00    +0.000 A 
ATOM     14  N   UNL     1       5.940   5.996  17.039  0.00  0.00    +0.000 NA
ATOM     15  C   UNL     1       3.925   5.407  18.919  0.00  0.00    +0.000 A 
ENDBRANCH   2   5
BRANCH   1  20
ATOM     16  C   UNL     1      -0.173  10.216  19.693  0.00  0.00    +0.000 A 
ATOM     17  C   UNL     1      -0.419  10.537  21.036  0.00  0.00    +0.000 A 
ATOM     18  C   UNL     1       0.244   9.862  22.055  0.00  0.00    +0.000 A 
ATOM     19  C   UNL     1       1.137   8.840  21.749  0.00  0.00    +0.000 A 
ATOM     20  C   UNL     1       1.381   8.480  20.421  0.00  0.00    +0.000 A 
ATOM     21  C   UNL     1       0.756   9.203  19.394  0.00  0.00    +0.000 A 
BRANCH  16  25
ATOM     22  C   UNL     1      -3.002  10.922  15.726  0.00  0.00    +0.000 C 
ATOM     23  C   UNL     1      -2.156  11.111  16.922  0.00  0.00    +0.000 A 
ATOM     24  N   UNL     1      -1.700  10.190  17.738  0.00  0.00    +0.000 NA
ATOM     25  C   UNL     1      -0.938  10.894  18.650  0.00  0.00    +0.000 A 
ATOM     26  N   UNL     1      -0.932  12.220  18.433  0.00  0.00    +0.000 NA
ATOM     27  N   UNL     1      -1.701  12.328  17.338  0.00  0.00    +0.000 N 
ATOM     28  H   UNL     1      -1.855  13.240  16.924  0.00  0.00    +0.000 HD
ENDBRANCH  16  25
ENDBRANCH   1  20
TORSDOF 3
ENDMDL
MODEL 5
REMARK VINA RESULT:      -8.5      2.714      4.434
REMARK  Name = 
REMARK  4 active torsions:
REMARK  status: ('A' for Active; 'I' for Inactive)
REMARK    1  A    between atoms: C_1  and  C_2
REMARK    2  A    between atoms: C_4  and  C_5
REMARK    3  A    between atoms: C_9  and  N_10
REMARK    4  A    between atoms: C_11  and  C_13
REMARK                            x       y       z     vdW  Elec       q    Type
REMARK                         _______ _______ _______ _____ _____    ______ ____
ROOT
ATOM      1  N   UNL     1       1.512   6.789  20.994  0.00  0.00    +0.000 N 
ATOM      2  C   UNL     1       1.512   8.019  20.351  0.00  0.00    +0.000 C 
ATOM      3  O   UNL     1       1.901   8.248  19.211  0.00  0.00    +0.000 OA
ATOM      4  H   UNL     1       0.964   6.691  21.839  0.00  0.00    +0.000 HD
ENDROOT
BRANCH   2   5
ATOM      5  C   UNL     1       0.931   9.159  21.106  0.00  0.00    +0.000 A 
ATOM      6  C   UNL     1       0.443   8.927  22.396  0.00  0.00    +0.000 A 
ATOM      7  C   UNL     1      -0.174   9.968  23.063  0.00  0.00    +0.000 A 
ATOM      8  N   UNL     1      -0.352  11.194  22.524  0.00  0.00    +0.000 NA
ATOM      9  C   UNL     1       0.119  11.395  21.264  0.00  0.00    +0.000 A 
ATOM     10  N   UNL     1      -0.117  12.651  20.648  0.00  0.00    +0.000 N 
ATOM     11  C   UNL     1      -0.887  13.681  21.123  0.00  0.00    +0.000 A 
ATOM     12  N   UNL     1      -0.898  14.674  20.261  0.00  0.00    +0.000 NA
ATOM     13  C   UNL     1      -0.105  14.209  19.256  0.00  0.00    +0.000 A 
ATOM     14  N   UNL     1       0.395  12.985  19.433  0.00  0.00    +0.000 NA
ATOM     15  C   UNL     1       0.778  10.416  20.528  0.00  0.00    +0.000 A 
ENDBRANCH   2   5
BRANCH   1  20
ATOM     16  C   UNL     1       3.795   4.472  19.194  0.00  0.00    +0.000 A 
ATOM     17  C   UNL     1       3.193   3.236  19.469  0.00  0.00    +0.000 A 
ATOM     18  C   UNL     1       2.009   3.175  20.197  0.00  0.00    +0.000 A 
ATOM     19  C   UNL     1       1.430   4.342  20.684  0.00  0.00    +0.000 A 
ATOM     20  C   UNL     1       2.022   5.585  20.449  0.00  0.00    +0.000 A 
ATOM     21  C   UNL     1       3.183   5.648  19.663  0.00  0.00    +0.000 A 
BRANCH  16  25
ATOM     22  C   UNL     1       7.071   4.582  15.520  0.00  0.00    +0.000 C 
ATOM     23  C   UNL     1       6.422   4.537  16.846  0.00  0.00    +0.000 A 
ATOM     24  N   UNL     1       5.142   4.653  17.119  0.00  0.00    +0.000 NA
ATOM     25  C   UNL     1       5.075   4.497  18.489  0.00  0.00    +0.000 A 
ATOM     26  N   UNL     1       6.273   4.314  19.068  0.00  0.00    +0.000 NA
ATOM     27  N   UNL     1       7.101   4.338  18.012  0.00  0.00    +0.000 N 
ATOM     28  H   UNL     1       8.095   4.196  18.152  0.00  0.00    +0.000 HD
ENDBRANCH  16  25
ENDBRANCH   1  20
TORSDOF 3
ENDMDL
MODEL 6
REMARK VINA RESULT:      -8.4      3.753      9.133
REMARK  Name = 
REMARK  4 active torsions:
REMARK  status: ('A' for Active; 'I' for Inactive)
REMARK    1  A    between atoms: C_1  and  C_2
REMARK    2  A    between atoms: C_4  and  C_5
REMARK    3  A    between atoms: C_9  and  N_10
REMARK    4  A    between atoms: C_11  and  C_13
REMARK                            x       y       z     vdW  Elec       q    Type
REMARK                         _______ _______ _______ _____ _____    ______ ____
ROOT
ATOM      1  N   UNL     1       1.081   9.076  19.424  0.00  0.00    +0.000 N 
ATOM      2  C   UNL     1       1.953   8.888  18.360  0.00  0.00    +0.000 C 
ATOM      3  O   UNL     1       2.166   9.671  17.441  0.00  0.00    +0.000 OA
ATOM      4  H   UNL     1       1.163   8.460  20.223  0.00  0.00    +0.000 HD
ENDROOT
BRANCH   2   5
ATOM      5  C   UNL     1       2.746   7.630  18.370  0.00  0.00    +0.000 A 
ATOM      6  C   UNL     1       3.654   7.404  17.331  0.00  0.00    +0.000 A 
ATOM      7  C   UNL     1       4.326   6.198  17.296  0.00  0.00    +0.000 A 
ATOM      8  N   UNL     1       4.134   5.213  18.202  0.00  0.00    +0.000 NA
ATOM      9  C   UNL     1       3.238   5.448  19.197  0.00  0.00    +0.000 A 
ATOM     10  N   UNL     1       2.965   4.407  20.120  0.00  0.00    +0.000 N 
ATOM     11  C   UNL     1       3.408   3.111  20.069  0.00  0.00    +0.000 A 
ATOM     12  N   UNL     1       2.921   2.424  21.078  0.00  0.00    +0.000 NA
ATOM     13  C   UNL     1       2.175   3.351  21.741  0.00  0.00    +0.000 A 
ATOM     14  N   UNL     1       2.161   4.572  21.204  0.00  0.00    +0.000 NA
ATOM     15  C   UNL     1       2.537   6.643  19.329  0.00  0.00    +0.000 A 
ENDBRANCH   2   5
BRANCH   1  20
ATOM     16  C   UNL     1      -1.754  11.419  18.885  0.00  0.00    +0.000 A 
ATOM     17  C   UNL     1      -1.577  12.303  19.958  0.00  0.00    +0.000 A 
ATOM     18  C   UNL     1      -0.495  12.159  20.821  0.00  0.00    +0.000 A 
ATOM     19  C   UNL     1       0.404  11.113  20.640  0.00  0.00    +0.000 A 
ATOM     20  C   UNL     1       0.238  10.200  19.596  0.00  0.00    +0.000 A 
ATOM     21  C   UNL     1      -0.820  10.385  18.692  0.00  0.00    +0.000 A 
BRANCH  16  25
ATOM     22  C   UNL     1      -6.453  12.010  17.537  0.00  0.00    +0.000 C 
ATOM     23  C   UNL     1      -4.989  11.807  17.544  0.00  0.00    +0.000 A 
ATOM     24  N   UNL     1      -4.176  11.857  18.574  0.00  0.00    +0.000 NA
ATOM     25  C   UNL     1      -2.938  11.555  18.040  0.00  0.00    +0.000 A 
ATOM     26  N   UNL     1      -2.962  11.347  16.714  0.00  0.00    +0.000 NA
ATOM     27  N   UNL     1      -4.264  11.507  16.429  0.00  0.00    +0.000 N 
ATOM     28  H   UNL     1      -4.586  11.380  15.476  0.00  0.00    +0.000 HD
ENDBRANCH  16  25
ENDBRANCH   1  20
TORSDOF 3
ENDMDL
MODEL 7
REMARK VINA RESULT:      -8.4      3.609      8.520
REMARK  Name = 
REMARK  4 active torsions:
REMARK  status: ('A' for Active; 'I' for Inactive)
REMARK    1  A    between atoms: C_1  and  C_2
REMARK    2  A    between atoms: C_4  and  C_5
REMARK    3  A    between atoms: C_9  and  N_10
REMARK    4  A    between atoms: C_11  and  C_13
REMARK                            x       y       z     vdW  Elec       q    Type
REMARK                         _______ _______ _______ _____ _____    ______ ____
ROOT
ATOM      1  N   UNL     1       1.438   8.814  19.284  0.00  0.00    +0.000 N 
ATOM      2  C   UNL     1       2.221   8.400  18.216  0.00  0.00    +0.000 C 
ATOM      3  O   UNL     1       2.306   8.941  17.118  0.00  0.00    +0.000 OA
ATOM      4  H   UNL     1       1.625   8.417  20.196  0.00  0.00    +0.000 HD
ENDROOT
BRANCH   2   5
ATOM      5  C   UNL     1       3.082   7.211  18.449  0.00  0.00    +0.000 A 
ATOM      6  C   UNL     1       4.192   7.017  17.620  0.00  0.00    +0.000 A 
ATOM      7  C   UNL     1       4.940   5.868  17.783  0.00  0.00    +0.000 A 
ATOM      8  N   UNL     1       4.643   4.908  18.687  0.00  0.00    +0.000 NA
ATOM      9  C   UNL     1       3.553   5.111  19.474  0.00  0.00    +0.000 A 
ATOM     10  N   UNL     1       3.177   4.089  20.382  0.00  0.00    +0.000 N 
ATOM     11  C   UNL     1       3.711   2.831  20.490  0.00  0.00    +0.000 A 
ATOM     12  N   UNL     1       3.083   2.149  21.422  0.00  0.00    +0.000 NA
ATOM     13  C   UNL     1       2.157   3.040  21.875  0.00  0.00    +0.000 A 
ATOM     14  N   UNL     1       2.164   4.233  21.279  0.00  0.00    +0.000 NA
ATOM     15  C   UNL     1       2.757   6.250  19.402  0.00  0.00    +0.000 A 
ENDBRANCH   2   5
BRANCH   1  20
ATOM     16  C   UNL     1      -1.390  10.991  18.243  0.00  0.00    +0.000 A 
ATOM     17  C   UNL     1      -1.351  11.974  19.242  0.00  0.00    +0.000 A 
ATOM     18  C   UNL     1      -0.362  11.949  20.219  0.00  0.00    +0.000 A 
ATOM     19  C   UNL     1       0.580  10.926  20.230  0.00  0.00    +0.000 A 
ATOM     20  C   UNL     1       0.550   9.916  19.264  0.00  0.00    +0.000 A 
ATOM     21  C   UNL     1      -0.412   9.980  18.244  0.00  0.00    +0.000 A 
BRANCH  16  25
ATOM     22  C   UNL     1      -3.943  10.186  14.111  0.00  0.00    +0.000 C 
ATOM     23  C   UNL     1      -3.512  10.622  15.455  0.00  0.00    +0.000 A 
ATOM     24  N   UNL     1      -2.408  10.300  16.089  0.00  0.00    +0.000 NA
ATOM     25  C   UNL     1      -2.483  11.006  17.274  0.00  0.00    +0.000 A 
ATOM     26  N   UNL     1      -3.607  11.731  17.397  0.00  0.00    +0.000 NA
ATOM     27  N   UNL     1      -4.233  11.475  16.237  0.00  0.00    +0.000 N 
ATOM     28  H   UNL     1      -5.121  11.922  16.040  0.00  0.00    +0.000 HD
ENDBRANCH  16  25
ENDBRANCH   1  20
TORSDOF 3
ENDMDL
MODEL 8
REMARK VINA RESULT:      -8.3      2.565      3.808
REMARK  Name = 
REMARK  4 active torsions:
REMARK  status: ('A' for Active; 'I' for Inactive)
REMARK    1  A    between atoms: C_1  and  C_2
REMARK    2  A    between atoms: C_4  and  C_5
REMARK    3  A    between atoms: C_9  and  N_10
REMARK    4  A    between atoms: C_11  and  C_13
REMARK                            x       y       z     vdW  Elec       q    Type
REMARK                         _______ _______ _______ _____ _____    ______ ____
ROOT
ATOM      1  N   UNL     1       2.111   7.346  19.036  0.00  0.00    +0.000 N 
ATOM      2  C   UNL     1       2.013   8.468  18.224  0.00  0.00    +0.000 C 
ATOM      3  O   UNL     1       2.674   8.702  17.218  0.00  0.00    +0.000 OA
ATOM      4  H   UNL     1       1.366   7.169  19.698  0.00  0.00    +0.000 HD
ENDROOT
BRANCH   2   5
ATOM      5  C   UNL     1       0.964   9.456  18.586  0.00  0.00    +0.000 A 
ATOM      6  C   UNL     1       1.013  10.050  19.851  0.00  0.00    +0.000 A 
ATOM      7  C   UNL     1      -0.010  10.902  20.217  0.00  0.00    +0.000 A 
ATOM      8  N   UNL     1      -1.071  11.175  19.425  0.00  0.00    +0.000 NA
ATOM      9  C   UNL     1      -1.105  10.577  18.204  0.00  0.00    +0.000 A 
ATOM     10  N   UNL     1      -2.240  10.790  17.380  0.00  0.00    +0.000 N 
ATOM     11  C   UNL     1      -3.400  11.441  17.711  0.00  0.00    +0.000 A 
ATOM     12  N   UNL     1      -4.242  11.409  16.702  0.00  0.00    +0.000 NA
ATOM     13  C   UNL     1      -3.548  10.723  15.752  0.00  0.00    +0.000 A 
ATOM     14  N   UNL     1      -2.328  10.318  16.107  0.00  0.00    +0.000 NA
ATOM     15  C   UNL     1      -0.106   9.728  17.738  0.00  0.00    +0.000 A 
ENDBRANCH   2   5
BRANCH   1  20
ATOM     16  C   UNL     1       4.764   5.264  17.472  0.00  0.00    +0.000 A 
ATOM     17  C   UNL     1       5.027   4.349  18.501  0.00  0.00    +0.000 A 
ATOM     18  C   UNL     1       4.293   4.385  19.682  0.00  0.00    +0.000 A 
ATOM     19  C   UNL     1       3.310   5.353  19.862  0.00  0.00    +0.000 A 
ATOM     20  C   UNL     1       3.045   6.295  18.864  0.00  0.00    +0.000 A 
ATOM     21  C   UNL     1       3.745   6.217  17.651  0.00  0.00    +0.000 A 
BRANCH  16  25
ATOM     22  C   UNL     1       6.525   3.971  13.059  0.00  0.00    +0.000 C 
ATOM     23  C   UNL     1       6.302   4.619  14.368  0.00  0.00    +0.000 A 
ATOM     24  N   UNL     1       5.298   4.435  15.195  0.00  0.00    +0.000 NA
ATOM     25  C   UNL     1       5.600   5.244  16.274  0.00  0.00    +0.000 A 
ATOM     26  N   UNL     1       6.741   5.936  16.124  0.00  0.00    +0.000 NA
ATOM     27  N   UNL     1       7.164   5.520  14.920  0.00  0.00    +0.000 N 
ATOM     28  H   UNL     1       8.041   5.869  14.550  0.00  0.00    +0.000 HD
ENDBRANCH  16  25
ENDBRANCH   1  20
TORSDOF 3
ENDMDL
MODEL 9
REMARK VINA RESULT:      -8.3      3.570      9.176
REMARK  Name = 
REMARK  4 active torsions:
REMARK  status: ('A' for Active; 'I' for Inactive)
REMARK    1  A    between atoms: C_1  and  C_2
REMARK    2  A    between atoms: C_4  and  C_5
REMARK    3  A    between atoms: C_9  and  N_10
REMARK    4  A    between atoms: C_11  and  C_13
REMARK                            x       y       z     vdW  Elec       q    Type
REMARK                         _______ _______ _______ _____ _____    ______ ____
ROOT
ATOM      1  N   UNL     1       1.424   8.712  19.291  0.00  0.00    +0.000 N 
ATOM      2  C   UNL     1       2.147   8.587  18.112  0.00  0.00    +0.000 C 
ATOM      3  O   UNL     1       2.197   9.399  17.195  0.00  0.00    +0.000 OA
ATOM      4  H   UNL     1       1.642   8.083  20.054  0.00  0.00    +0.000 HD
ENDROOT
BRANCH   2   5
ATOM      5  C   UNL     1       2.983   7.366  17.976  0.00  0.00    +0.000 A 
ATOM      6  C   UNL     1       4.198   7.461  17.291  0.00  0.00    +0.000 A 
ATOM      7  C   UNL     1       4.933   6.308  17.092  0.00  0.00    +0.000 A 
ATOM      8  N   UNL     1       4.527   5.087  17.505  0.00  0.00    +0.000 NA
ATOM      9  C   UNL     1       3.337   5.015  18.158  0.00  0.00    +0.000 A 
ATOM     10  N   UNL     1       2.853   3.738  18.541  0.00  0.00    +0.000 N 
ATOM     11  C   UNL     1       3.385   2.515  18.221  0.00  0.00    +0.000 A 
ATOM     12  N   UNL     1       2.644   1.552  18.724  0.00  0.00    +0.000 NA
ATOM     13  C   UNL     1       1.653   2.236  19.361  0.00  0.00    +0.000 A 
ATOM     14  N   UNL     1       1.725   3.566  19.282  0.00  0.00    +0.000 NA
ATOM     15  C   UNL     1       2.544   6.125  18.430  0.00  0.00    +0.000 A 
ENDBRANCH   2   5
BRANCH   1  20
ATOM     16  C   UNL     1      -1.397  11.117  19.024  0.00  0.00    +0.000 A 
ATOM     17  C   UNL     1      -1.272  11.810  20.237  0.00  0.00    +0.000 A 
ATOM     18  C   UNL     1      -0.229  11.523  21.110  0.00  0.00    +0.000 A 
ATOM     19  C   UNL     1       0.684  10.520  20.798  0.00  0.00    +0.000 A 
ATOM     20  C   UNL     1       0.568   9.793  19.610  0.00  0.00    +0.000 A 
ATOM     21  C   UNL     1      -0.450  10.128  18.704  0.00  0.00    +0.000 A 
BRANCH  16  25
ATOM     22  C   UNL     1      -6.017  12.054  17.603  0.00  0.00    +0.000 C 
ATOM     23  C   UNL     1      -4.564  11.787  17.634  0.00  0.00    +0.000 A 
ATOM     24  N   UNL     1      -3.787  11.692  18.687  0.00  0.00    +0.000 NA
ATOM     25  C   UNL     1      -2.544  11.394  18.163  0.00  0.00    +0.000 A 
ATOM     26  N   UNL     1      -2.530  11.328  16.822  0.00  0.00    +0.000 NA
ATOM     27  N   UNL     1      -3.813  11.574  16.515  0.00  0.00    +0.000 N 
ATOM     28  H   UNL     1      -4.106  11.563  15.545  0.00  0.00    +0.000 HD
ENDBRANCH  16  25
ENDBRANCH   1  20
TORSDOF 3
ENDMDL
