MODEL 1
REMARK VINA RESULT:      -8.8      0.000      0.000
REMARK  Name = 
REMARK  3 active torsions:
REMARK  status: ('A' for Active; 'I' for Inactive)
REMARK    1  A    between atoms: C_2  and  C_4
REMARK    2  A    between atoms: C_10  and  N_11
REMARK    3  A    between atoms: C_12  and  C_14
REMARK                            x       y       z     vdW  Elec       q    Type
REMARK                         _______ _______ _______ _____ _____    ______ ____
ROOT
ATOM      1  C   UNL     1       6.731   5.243  18.295  0.00  0.00    +0.000 A 
ATOM      2  N   UNL     1       7.029   4.285  17.388  0.00  0.00    +0.000 NA
ATOM      3  N   UNL     1       5.827   3.827  16.999  0.00  0.00    +0.000 N 
ATOM      4  C   UNL     1       4.769   4.458  17.587  0.00  0.00    +0.000 A 
ATOM      5  C   UNL     1       3.397   4.290  17.425  0.00  0.00    +0.000 A 
ATOM      6  C   UNL     1       2.562   5.116  18.187  0.00  0.00    +0.000 A 
ATOM      7  C   UNL     1       3.062   6.061  19.090  0.00  0.00    +0.000 A 
ATOM      8  C   UNL     1       4.455   6.198  19.230  0.00  0.00    +0.000 A 
ATOM      9  C   UNL     1       5.320   5.386  18.460  0.00  0.00    +0.000 A 
ATOM     10  H   UNL     1       5.792   3.081  16.314  0.00  0.00    +0.000 HD
ENDROOT
BRANCH   1  12
ATOM     11  N   UNL     1       8.284   5.416  20.090  0.00  0.00    +0.000 N 
ATOM     12  C   UNL     1       7.789   6.011  18.962  0.00  0.00    +0.000 C 
ATOM     13  O   UNL     1       8.220   7.088  18.561  0.00  0.00    +0.000 OA
ATOM     14  H   UNL     1       9.051   5.840  20.586  0.00  0.00    +0.000 HD
ATOM     15  H   UNL     1       7.929   4.502  20.348  0.00  0.00    +0.000 HD
ENDBRANCH   1  12
BRANCH   7  16
ATOM     16  N   UNL     1       2.234   6.903  19.878  0.00  0.00    +0.000 N 
ATOM     17  C   UNL     1       1.848   8.192  19.546  0.00  0.00    +0.000 C 
ATOM     18  O   UNL     1       2.141   8.787  18.512  0.00  0.00    +0.000 OA
ATOM     19  H   UNL     1       1.875   6.487  20.727  0.00  0.00    +0.000 HD
BRANCH  17  20
ATOM     20  C   UNL     1       1.002   8.942  20.505  0.00  0.00    +0.000 A 
ATOM     21  C   UNL     1       1.142   8.901  21.880  0.00  0.00    +0.000 A 
ATOM     22  N   UNL     1       0.440   9.692  22.737  0.00  0.00    +0.000 NA
ATOM     23  C   UNL     1      -0.414  10.596  22.217  0.00  0.00    +0.000 A 
ATOM     24  C   UNL     1      -1.087  11.485  23.049  0.00  0.00    +0.000 A 
ATOM     25  C   UNL     1      -1.947  12.463  22.535  0.00  0.00    +0.000 A 
ATOM     26  C   UNL     1      -2.157  12.539  21.167  0.00  0.00    +0.000 A 
ATOM     27  F   UNL     1      -2.971  13.477  20.670  0.00  0.00    +0.000 F 
ATOM     28  C   UNL     1      -1.518  11.660  20.307  0.00  0.00    +0.000 A 
ATOM     29  C   UNL     1      -0.637  10.700  20.828  0.00  0.00    +0.000 A 
ATOM     30  C   UNL     1       0.075   9.847  19.982  0.00  0.00    +0.000 A 
ENDBRANCH  17  20
ENDBRANCH   7  16
TORSDOF 3
ENDMDL
MODEL 2
REMARK VINA RESULT:      -8.5      4.054      9.503
REMARK  Name = 
REMARK  3 active torsions:
REMARK  status: ('A' for Active; 'I' for Inactive)
REMARK    1  A    between atoms: C_2  and  C_4
REMARK    2  A    between atoms: C_10  and  N_11
REMARK    3  A    between atoms: C_12  and  C_14
REMARK                            x       y       z     vdW  Elec       q    Type
REMARK                         _______ _______ _______ _____ _____    ______ ____
ROOT
ATOM      1  C   UNL     1      -2.427  11.751  18.872  0.00  0.00    +0.000 A 
ATOM      2  N   UNL     1      -2.834  12.776  19.655  0.00  0.00    +0.000 NA
ATOM      3  N   UNL     1      -1.985  12.739  20.696  0.00  0.00    +0.000 N 
ATOM      4  C   UNL     1      -1.035  11.763  20.613  0.00  0.00    +0.000 A 
ATOM      5  C   UNL     1       0.017  11.434  21.462  0.00  0.00    +0.000 A 
ATOM      6  C   UNL     1       0.830  10.361  21.078  0.00  0.00    +0.000 A 
ATOM      7  C   UNL     1       0.604   9.629  19.907  0.00  0.00    +0.000 A 
ATOM      8  C   UNL     1      -0.471   9.989  19.076  0.00  0.00    +0.000 A 
ATOM      9  C   UNL     1      -1.300  11.079  19.434  0.00  0.00    +0.000 A 
ATOM     10  H   UNL     1      -2.100  13.421  21.438  0.00  0.00    +0.000 HD
ENDROOT
BRANCH   1  12
ATOM     11  N   UNL     1      -2.313  11.629  16.498  0.00  0.00    +0.000 N 
ATOM     12  C   UNL     1      -3.100  11.452  17.603  0.00  0.00    +0.000 C 
ATOM     13  O   UNL     1      -4.261  11.065  17.509  0.00  0.00    +0.000 OA
ATOM     14  H   UNL     1      -2.669  11.397  15.585  0.00  0.00    +0.000 HD
ATOM     15  H   UNL     1      -1.346  11.900  16.634  0.00  0.00    +0.000 HD
ENDBRANCH   1  12
BRANCH   7  16
ATOM     16  N   UNL     1       1.411   8.532  19.503  0.00  0.00    +0.000 N 
ATOM     17  C   UNL     1       2.142   8.461  18.326  0.00  0.00    +0.000 C 
ATOM     18  O   UNL     1       2.222   9.342  17.475  0.00  0.00    +0.000 OA
ATOM     19  H   UNL     1       1.475   7.772  20.166  0.00  0.00    +0.000 HD
BRANCH  17  20
ATOM     20  C   UNL     1       2.908   7.223  18.048  0.00  0.00    +0.000 A 
ATOM     21  C   UNL     1       2.573   5.966  18.518  0.00  0.00    +0.000 A 
ATOM     22  N   UNL     1       3.215   4.824  18.149  0.00  0.00    +0.000 NA
ATOM     23  C   UNL     1       4.212   4.915  17.246  0.00  0.00    +0.000 A 
ATOM     24  C   UNL     1       4.837   3.766  16.773  0.00  0.00    +0.000 A 
ATOM     25  C   UNL     1       5.844   3.825  15.802  0.00  0.00    +0.000 A 
ATOM     26  C   UNL     1       6.250   5.057  15.312  0.00  0.00    +0.000 A 
ATOM     27  F   UNL     1       7.207   5.119  14.378  0.00  0.00    +0.000 F 
ATOM     28  C   UNL     1       5.663   6.225  15.770  0.00  0.00    +0.000 A 
ATOM     29  C   UNL     1       4.636   6.155  16.723  0.00  0.00    +0.000 A 
ATOM     30  C   UNL     1       3.976   7.309  17.152  0.00  0.00    +0.000 A 
ENDBRANCH  17  20
ENDBRANCH   7  16
TORSDOF 3
ENDMDL
MODEL 3
REMARK VINA RESULT:      -8.3      1.528      1.906
REMARK  Name = 
REMARK  3 active torsions:
REMARK  status: ('A' for Active; 'I' for Inactive)
REMARK    1  A    between atoms: C_2  and  C_4
REMARK    2  A    between atoms: C_10  and  N_11
REMARK    3  A    between atoms: C_12  and  C_14
REMARK                            x       y       z     vdW  Elec       q    Type
REMARK                         _______ _______ _______ _____ _____    ______ ____
ROOT
ATOM      1  C   UNL     1       6.457   5.657  17.589  0.00  0.00    +0.000 A 
ATOM      2  N   UNL     1       6.718   4.357  17.317  0.00  0.00    +0.000 NA
ATOM      3  N   UNL     1       5.508   3.774  17.353  0.00  0.00    +0.000 N 
ATOM      4  C   UNL     1       4.477   4.632  17.606  0.00  0.00    +0.000 A 
ATOM      5  C   UNL     1       3.106   4.416  17.690  0.00  0.00    +0.000 A 
ATOM      6  C   UNL     1       2.303   5.531  17.963  0.00  0.00    +0.000 A 
ATOM      7  C   UNL     1       2.837   6.809  18.161  0.00  0.00    +0.000 A 
ATOM      8  C   UNL     1       4.229   6.987  18.073  0.00  0.00    +0.000 A 
ATOM      9  C   UNL     1       5.060   5.880  17.783  0.00  0.00    +0.000 A 
ATOM     10  H   UNL     1       5.447   2.776  17.185  0.00  0.00    +0.000 HD
ENDROOT
BRANCH   1  12
ATOM     11  N   UNL     1       8.164   6.740  18.843  0.00  0.00    +0.000 N 
ATOM     12  C   UNL     1       7.533   6.653  17.633  0.00  0.00    +0.000 C 
ATOM     13  O   UNL     1       7.868   7.353  16.682  0.00  0.00    +0.000 OA
ATOM     14  H   UNL     1       8.953   7.357  18.956  0.00  0.00    +0.000 HD
ATOM     15  H   UNL     1       7.883   6.103  19.580  0.00  0.00    +0.000 HD
ENDBRANCH   1  12
BRANCH   7  16
ATOM     16  N   UNL     1       2.043   7.952  18.447  0.00  0.00    +0.000 N 
ATOM     17  C   UNL     1       1.572   8.313  19.700  0.00  0.00    +0.000 C 
ATOM     18  O   UNL     1       1.794   7.717  20.751  0.00  0.00    +0.000 OA
ATOM     19  H   UNL     1       1.855   8.558  17.659  0.00  0.00    +0.000 HD
BRANCH  17  20
ATOM     20  C   UNL     1       0.727   9.525  19.811  0.00  0.00    +0.000 A 
ATOM     21  C   UNL     1       0.251  10.256  18.738  0.00  0.00    +0.000 A 
ATOM     22  N   UNL     1      -0.626  11.290  18.856  0.00  0.00    +0.000 NA
ATOM     23  C   UNL     1      -1.088  11.599  20.085  0.00  0.00    +0.000 A 
ATOM     24  C   UNL     1      -2.053  12.589  20.243  0.00  0.00    +0.000 A 
ATOM     25  C   UNL     1      -2.584  12.902  21.500  0.00  0.00    +0.000 A 
ATOM     26  C   UNL     1      -2.127  12.228  22.622  0.00  0.00    +0.000 A 
ATOM     27  F   UNL     1      -2.638  12.516  23.825  0.00  0.00    +0.000 F 
ATOM     28  C   UNL     1      -1.156  11.246  22.507  0.00  0.00    +0.000 A 
ATOM     29  C   UNL     1      -0.648  10.921  21.241  0.00  0.00    +0.000 A 
ATOM     30  C   UNL     1       0.280   9.889  21.084  0.00  0.00    +0.000 A 
ENDBRANCH  17  20
ENDBRANCH   7  16
TORSDOF 3
ENDMDL
MODEL 4
REMARK VINA RESULT:      -8.3      1.760      2.063
REMARK  Name = 
REMARK  3 active torsions:
REMARK  status: ('A' for Active; 'I' for Inactive)
REMARK    1  A    between atoms: C_2  and  C_4
REMARK    2  A    between atoms: C_10  and  N_11
REMARK    3  A    between atoms: C_12  and  C_14
REMARK                            x       y       z     vdW  Elec       q    Type
REMARK                         _______ _______ _______ _____ _____    ______ ____
ROOT
ATOM      1  C   UNL     1       6.641   5.733  17.524  0.00  0.00    +0.000 A 
ATOM      2  N   UNL     1       7.071   4.547  17.036  0.00  0.00    +0.000 NA
ATOM      3  N   UNL     1       5.946   3.820  16.924  0.00  0.00    +0.000 N 
ATOM      4  C   UNL     1       4.810   4.483  17.288  0.00  0.00    +0.000 A 
ATOM      5  C   UNL     1       3.477   4.086  17.284  0.00  0.00    +0.000 A 
ATOM      6  C   UNL     1       2.534   5.025  17.721  0.00  0.00    +0.000 A 
ATOM      7  C   UNL     1       2.896   6.303  18.162  0.00  0.00    +0.000 A 
ATOM      8  C   UNL     1       4.254   6.666  18.156  0.00  0.00    +0.000 A 
ATOM      9  C   UNL     1       5.225   5.741  17.705  0.00  0.00    +0.000 A 
ATOM     10  H   UNL     1       6.017   2.869  16.580  0.00  0.00    +0.000 HD
ENDROOT
BRANCH   1  12
ATOM     11  N   UNL     1       8.251   6.724  18.968  0.00  0.00    +0.000 N 
ATOM     12  C   UNL     1       7.579   6.831  17.782  0.00  0.00    +0.000 C 
ATOM     13  O   UNL     1       7.774   7.770  17.016  0.00  0.00    +0.000 OA
ATOM     14  H   UNL     1       8.957   7.401  19.209  0.00  0.00    +0.000 HD
ATOM     15  H   UNL     1       8.092   5.902  19.540  0.00  0.00    +0.000 HD
ENDBRANCH   1  12
BRANCH   7  16
ATOM     16  N   UNL     1       1.957   7.267  18.616  0.00  0.00    +0.000 N 
ATOM     17  C   UNL     1       1.817   8.552  18.117  0.00  0.00    +0.000 C 
ATOM     18  O   UNL     1       2.462   9.039  17.191  0.00  0.00    +0.000 OA
ATOM     19  H   UNL     1       1.322   6.949  19.336  0.00  0.00    +0.000 HD
BRANCH  17  20
ATOM     20  C   UNL     1       0.802   9.440  18.732  0.00  0.00    +0.000 A 
ATOM     21  C   UNL     1       1.043  10.299  19.789  0.00  0.00    +0.000 A 
ATOM     22  N   UNL     1       0.134  11.197  20.258  0.00  0.00    +0.000 NA
ATOM     23  C   UNL     1      -1.059  11.282  19.635  0.00  0.00    +0.000 A 
ATOM     24  C   UNL     1      -1.985  12.245  20.022  0.00  0.00    +0.000 A 
ATOM     25  C   UNL     1      -3.213  12.388  19.365  0.00  0.00    +0.000 A 
ATOM     26  C   UNL     1      -3.531  11.537  18.318  0.00  0.00    +0.000 A 
ATOM     27  F   UNL     1      -4.700  11.674  17.681  0.00  0.00    +0.000 F 
ATOM     28  C   UNL     1      -2.642  10.555  17.913  0.00  0.00    +0.000 A 
ATOM     29  C   UNL     1      -1.402  10.436  18.559  0.00  0.00    +0.000 A 
ATOM     30  C   UNL     1      -0.456   9.504  18.129  0.00  0.00    +0.000 A 
ENDBRANCH  17  20
ENDBRANCH   7  16
TORSDOF 3
ENDMDL
MODEL 5
REMARK VINA RESULT:      -8.3      1.969      2.279
REMARK  Name = 
REMARK  3 active torsions:
REMARK  status: ('A' for Active; 'I' for Inactive)
REMARK    1  A    between atoms: C_2  and  C_4
REMARK    2  A    between atoms: C_10  and  N_11
REMARK    3  A    between atoms: C_12  and  C_14
REMARK                            x       y       z     vdW  Elec       q    Type
REMARK                         _______ _______ _______ _____ _____    ______ ____
ROOT
ATOM      1  C   UNL     1       5.836   4.920  16.515  0.00  0.00    +0.000 A 
ATOM      2  N   UNL     1       5.842   3.618  16.149  0.00  0.00    +0.000 NA
ATOM      3  N   UNL     1       4.688   3.141  16.645  0.00  0.00    +0.000 N 
ATOM      4  C   UNL     1       3.925   4.072  17.289  0.00  0.00    +0.000 A 
ATOM      5  C   UNL     1       2.678   3.972  17.896  0.00  0.00    +0.000 A 
ATOM      6  C   UNL     1       2.157   5.138  18.472  0.00  0.00    +0.000 A 
ATOM      7  C   UNL     1       2.850   6.354  18.461  0.00  0.00    +0.000 A 
ATOM      8  C   UNL     1       4.110   6.414  17.841  0.00  0.00    +0.000 A 
ATOM      9  C   UNL     1       4.652   5.254  17.239  0.00  0.00    +0.000 A 
ATOM     10  H   UNL     1       4.468   2.161  16.503  0.00  0.00    +0.000 HD
ENDROOT
BRANCH   1  12
ATOM     11  N   UNL     1       7.513   5.528  14.941  0.00  0.00    +0.000 N 
ATOM     12  C   UNL     1       6.939   5.815  16.149  0.00  0.00    +0.000 C 
ATOM     13  O   UNL     1       7.326   6.755  16.837  0.00  0.00    +0.000 OA
ATOM     14  H   UNL     1       8.242   6.120  14.577  0.00  0.00    +0.000 HD
ATOM     15  H   UNL     1       7.121   4.773  14.388  0.00  0.00    +0.000 HD
ENDBRANCH   1  12
BRANCH   7  16
ATOM     16  N   UNL     1       2.344   7.546  19.045  0.00  0.00    +0.000 N 
ATOM     17  C   UNL     1       1.964   8.684  18.351  0.00  0.00    +0.000 C 
ATOM     18  O   UNL     1       1.981   8.822  17.131  0.00  0.00    +0.000 OA
ATOM     19  H   UNL     1       2.222   7.520  20.049  0.00  0.00    +0.000 HD
BRANCH  17  20
ATOM     20  C   UNL     1       1.486   9.854  19.126  0.00  0.00    +0.000 A 
ATOM     21  C   UNL     1       1.630  11.172  18.734  0.00  0.00    +0.000 A 
ATOM     22  N   UNL     1       1.074  12.224  19.395  0.00  0.00    +0.000 NA
ATOM     23  C   UNL     1       0.307  11.967  20.473  0.00  0.00    +0.000 A 
ATOM     24  C   UNL     1      -0.354  13.002  21.127  0.00  0.00    +0.000 A 
ATOM     25  C   UNL     1      -1.193  12.762  22.222  0.00  0.00    +0.000 A 
ATOM     26  C   UNL     1      -1.356  11.466  22.686  0.00  0.00    +0.000 A 
ATOM     27  F   UNL     1      -2.163  11.229  23.727  0.00  0.00    +0.000 F 
ATOM     28  C   UNL     1      -0.702  10.410  22.072  0.00  0.00    +0.000 A 
ATOM     29  C   UNL     1       0.115  10.656  20.958  0.00  0.00    +0.000 A 
ATOM     30  C   UNL     1       0.731   9.605  20.275  0.00  0.00    +0.000 A 
ENDBRANCH  17  20
ENDBRANCH   7  16
TORSDOF 3
ENDMDL
MODEL 6
REMARK VINA RESULT:      -8.3      3.169      4.346
REMARK  Name = 
REMARK  3 active torsions:
REMARK  status: ('A' for Active; 'I' for Inactive)
REMARK    1  A    between atoms: C_2  and  C_4
REMARK    2  A    between atoms: C_10  and  N_11
REMARK    3  A    between atoms: C_12  and  C_14
REMARK                            x       y       z     vdW  Elec       q    Type
REMARK                         _______ _______ _______ _____ _____    ______ ____
ROOT
ATOM      1  C   UNL     1       2.340   3.124  18.555  0.00  0.00    +0.000 A 
ATOM      2  N   UNL     1       3.345   2.240  18.357  0.00  0.00    +0.000 NA
ATOM      3  N   UNL     1       4.356   3.001  17.908  0.00  0.00    +0.000 N 
ATOM      4  C   UNL     1       4.068   4.333  17.831  0.00  0.00    +0.000 A 
ATOM      5  C   UNL     1       4.849   5.418  17.448  0.00  0.00    +0.000 A 
ATOM      6  C   UNL     1       4.243   6.681  17.488  0.00  0.00    +0.000 A 
ATOM      7  C   UNL     1       2.911   6.862  17.875  0.00  0.00    +0.000 A 
ATOM      8  C   UNL     1       2.152   5.740  18.250  0.00  0.00    +0.000 A 
ATOM      9  C   UNL     1       2.744   4.455  18.234  0.00  0.00    +0.000 A 
ATOM     10  H   UNL     1       5.235   2.550  17.675  0.00  0.00    +0.000 HD
ENDROOT
BRANCH   1  12
ATOM     11  N   UNL     1       0.798   3.045  20.365  0.00  0.00    +0.000 N 
ATOM     12  C   UNL     1       1.036   2.688  19.066  0.00  0.00    +0.000 C 
ATOM     13  O   UNL     1       0.206   2.068  18.409  0.00  0.00    +0.000 OA
ATOM     14  H   UNL     1      -0.093   2.839  20.789  0.00  0.00    +0.000 HD
ATOM     15  H   UNL     1       1.495   3.602  20.848  0.00  0.00    +0.000 HD
ENDBRANCH   1  12
BRANCH   7  16
ATOM     16  N   UNL     1       2.275   8.132  17.914  0.00  0.00    +0.000 N 
ATOM     17  C   UNL     1       1.707   8.713  19.038  0.00  0.00    +0.000 C 
ATOM     18  O   UNL     1       1.693   8.231  20.168  0.00  0.00    +0.000 OA
ATOM     19  H   UNL     1       2.289   8.652  17.048  0.00  0.00    +0.000 HD
BRANCH  17  20
ATOM     20  C   UNL     1       1.055  10.036  18.892  0.00  0.00    +0.000 A 
ATOM     21  C   UNL     1      -0.292  10.278  19.094  0.00  0.00    +0.000 A 
ATOM     22  N   UNL     1      -0.848  11.520  19.078  0.00  0.00    +0.000 NA
ATOM     23  C   UNL     1      -0.037  12.581  18.893  0.00  0.00    +0.000 A 
ATOM     24  C   UNL     1      -0.547  13.874  18.959  0.00  0.00    +0.000 A 
ATOM     25  C   UNL     1       0.277  14.996  18.815  0.00  0.00    +0.000 A 
ATOM     26  C   UNL     1       1.632  14.823  18.578  0.00  0.00    +0.000 A 
ATOM     27  F   UNL     1       2.427  15.892  18.448  0.00  0.00    +0.000 F 
ATOM     28  C   UNL     1       2.175  13.551  18.490  0.00  0.00    +0.000 A 
ATOM     29  C   UNL     1       1.347  12.432  18.662  0.00  0.00    +0.000 A 
ATOM     30  C   UNL     1       1.876  11.140  18.650  0.00  0.00    +0.000 A 
ENDBRANCH  17  20
ENDBRANCH   7  16
TORSDOF 3
ENDMDL
MODEL 7
REMARK VINA RESULT:      -8.3      2.510      3.483
REMARK  Name = 
REMARK  3 active torsions:
REMARK  status: ('A' for Active; 'I' for Inactive)
REMARK    1  A    between atoms: C_2  and  C_4
REMARK    2  A    between atoms: C_10  and  N_11
REMARK    3  A    between atoms: C_12  and  C_14
REMARK                            x       y       z     vdW  Elec       q    Type
REMARK                         _______ _______ _______ _____ _____    ______ ____
ROOT
ATOM      1  C   UNL     1       3.115   3.402  19.980  0.00  0.00    +0.000 A 
ATOM      2  N   UNL     1       4.076   2.654  19.392  0.00  0.00    +0.000 NA
ATOM      3  N   UNL     1       4.609   3.480  18.476  0.00  0.00    +0.000 N 
ATOM      4  C   UNL     1       4.062   4.730  18.460  0.00  0.00    +0.000 A 
ATOM      5  C   UNL     1       4.360   5.850  17.691  0.00  0.00    +0.000 A 
ATOM      6  C   UNL     1       3.602   7.004  17.930  0.00  0.00    +0.000 A 
ATOM      7  C   UNL     1       2.577   7.044  18.882  0.00  0.00    +0.000 A 
ATOM      8  C   UNL     1       2.303   5.891  19.637  0.00  0.00    +0.000 A 
ATOM      9  C   UNL     1       3.063   4.717  19.425  0.00  0.00    +0.000 A 
ATOM     10  H   UNL     1       5.360   3.132  17.889  0.00  0.00    +0.000 HD
ENDROOT
BRANCH   1  12
ATOM     11  N   UNL     1       0.948   2.868  20.805  0.00  0.00    +0.000 N 
ATOM     12  C   UNL     1       2.291   2.861  21.066  0.00  0.00    +0.000 C 
ATOM     13  O   UNL     1       2.737   2.422  22.122  0.00  0.00    +0.000 OA
ATOM     14  H   UNL     1       0.305   2.466  21.467  0.00  0.00    +0.000 HD
ATOM     15  H   UNL     1       0.636   3.193  19.896  0.00  0.00    +0.000 HD
ENDBRANCH   1  12
BRANCH   7  16
ATOM     16  N   UNL     1       1.791   8.200  19.135  0.00  0.00    +0.000 N 
ATOM     17  C   UNL     1       1.347   8.615  20.381  0.00  0.00    +0.000 C 
ATOM     18  O   UNL     1       1.589   8.063  21.451  0.00  0.00    +0.000 OA
ATOM     19  H   UNL     1       1.589   8.774  18.327  0.00  0.00    +0.000 HD
BRANCH  17  20
ATOM     20  C   UNL     1       0.507   9.834  20.458  0.00  0.00    +0.000 A 
ATOM     21  C   UNL     1       0.160  10.622  19.376  0.00  0.00    +0.000 A 
ATOM     22  N   UNL     1      -0.714  11.663  19.448  0.00  0.00    +0.000 NA
ATOM     23  C   UNL     1      -1.306  11.920  20.632  0.00  0.00    +0.000 A 
ATOM     24  C   UNL     1      -2.272  12.917  20.731  0.00  0.00    +0.000 A 
ATOM     25  C   UNL     1      -2.935  13.178  21.936  0.00  0.00    +0.000 A 
ATOM     26  C   UNL     1      -2.611  12.445  23.067  0.00  0.00    +0.000 A 
ATOM     27  F   UNL     1      -3.249  12.683  24.220  0.00  0.00    +0.000 F 
ATOM     28  C   UNL     1      -1.644  11.454  23.012  0.00  0.00    +0.000 A 
ATOM     29  C   UNL     1      -1.002  11.182  21.794  0.00  0.00    +0.000 A 
ATOM     30  C   UNL     1      -0.074  10.144  21.690  0.00  0.00    +0.000 A 
ENDBRANCH  17  20
ENDBRANCH   7  16
TORSDOF 3
ENDMDL
MODEL 8
REMARK VINA RESULT:      -8.2      3.723      9.282
REMARK  Name = 
REMARK  3 active torsions:
REMARK  status: ('A' for Active; 'I' for Inactive)
REMARK    1  A    between atoms: C_2  and  C_4
REMARK    2  A    between atoms: C_10  and  N_11
REMARK    3  A    between atoms: C_12  and  C_14
REMARK                            x       y       z     vdW  Elec       q    Type
REMARK                         _______ _______ _______ _____ _____    ______ ____
ROOT
ATOM      1  C   UNL     1      -1.418  11.800  19.776  0.00  0.00    +0.000 A 
ATOM      2  N   UNL     1      -1.931  12.550  20.778  0.00  0.00    +0.000 NA
ATOM      3  N   UNL     1      -1.423  11.991  21.889  0.00  0.00    +0.000 N 
ATOM      4  C   UNL     1      -0.588  10.936  21.656  0.00  0.00    +0.000 A 
ATOM      5  C   UNL     1       0.139  10.134  22.530  0.00  0.00    +0.000 A 
ATOM      6  C   UNL     1       0.921   9.122  21.960  0.00  0.00    +0.000 A 
ATOM      7  C   UNL     1       0.970   8.899  20.580  0.00  0.00    +0.000 A 
ATOM      8  C   UNL     1       0.217   9.727  19.729  0.00  0.00    +0.000 A 
ATOM      9  C   UNL     1      -0.569  10.767  20.278  0.00  0.00    +0.000 A 
ATOM     10  H   UNL     1      -1.679  12.383  22.788  0.00  0.00    +0.000 HD
ENDROOT
BRANCH   1  12
ATOM     11  N   UNL     1      -0.930  13.062  17.819  0.00  0.00    +0.000 N 
ATOM     12  C   UNL     1      -1.725  12.096  18.372  0.00  0.00    +0.000 C 
ATOM     13  O   UNL     1      -2.603  11.537  17.722  0.00  0.00    +0.000 OA
ATOM     14  H   UNL     1      -1.027  13.296  16.844  0.00  0.00    +0.000 HD
ATOM     15  H   UNL     1      -0.185  13.455  18.384  0.00  0.00    +0.000 HD
ENDBRANCH   1  12
BRANCH   7  16
ATOM     16  N   UNL     1       1.749   7.873  19.981  0.00  0.00    +0.000 N 
ATOM     17  C   UNL     1       2.271   7.904  18.698  0.00  0.00    +0.000 C 
ATOM     18  O   UNL     1       2.162   8.830  17.899  0.00  0.00    +0.000 OA
ATOM     19  H   UNL     1       1.961   7.084  20.578  0.00  0.00    +0.000 HD
BRANCH  17  20
ATOM     20  C   UNL     1       3.038   6.728  18.222  0.00  0.00    +0.000 A 
ATOM     21  C   UNL     1       2.685   5.411  18.450  0.00  0.00    +0.000 A 
ATOM     22  N   UNL     1       3.331   4.347  17.899  0.00  0.00    +0.000 NA
ATOM     23  C   UNL     1       4.351   4.588  17.052  0.00  0.00    +0.000 A 
ATOM     24  C   UNL     1       4.983   3.536  16.397  0.00  0.00    +0.000 A 
ATOM     25  C   UNL     1       6.016   3.758  15.478  0.00  0.00    +0.000 A 
ATOM     26  C   UNL     1       6.441   5.053  15.227  0.00  0.00    +0.000 A 
ATOM     27  F   UNL     1       7.422   5.273  14.343  0.00  0.00    +0.000 F 
ATOM     28  C   UNL     1       5.847   6.127  15.871  0.00  0.00    +0.000 A 
ATOM     29  C   UNL     1       4.795   5.898  16.771  0.00  0.00    +0.000 A 
ATOM     30  C   UNL     1       4.130   6.963  17.382  0.00  0.00    +0.000 A 
ENDBRANCH  17  20
ENDBRANCH   7  16
TORSDOF 3
ENDMDL
MODEL 9
REMARK VINA RESULT:      -8.2      2.037      2.151
REMARK  Name = 
REMARK  3 active torsions:
REMARK  status: ('A' for Active; 'I' for Inactive)
REMARK    1  A    between atoms: C_2  and  C_4
REMARK    2  A    between atoms: C_10  and  N_11
REMARK    3  A    between atoms: C_12  and  C_14
REMARK                            x       y       z     vdW  Elec       q    Type
REMARK                         _______ _______ _______ _____ _____    ______ ____
ROOT
ATOM      1  C   UNL     1       5.952   4.844  16.374  0.00  0.00    +0.000 A 
ATOM      2  N   UNL     1       5.997   3.544  16.004  0.00  0.00    +0.000 NA
ATOM      3  N   UNL     1       4.830   3.045  16.446  0.00  0.00    +0.000 N 
ATOM      4  C   UNL     1       4.023   3.961  17.057  0.00  0.00    +0.000 A 
ATOM      5  C   UNL     1       2.752   3.837  17.608  0.00  0.00    +0.000 A 
ATOM      6  C   UNL     1       2.185   4.992  18.163  0.00  0.00    +0.000 A 
ATOM      7  C   UNL     1       2.857   6.219  18.188  0.00  0.00    +0.000 A 
ATOM      8  C   UNL     1       4.142   6.304  17.625  0.00  0.00    +0.000 A 
ATOM      9  C   UNL     1       4.731   5.155  17.045  0.00  0.00    +0.000 A 
ATOM     10  H   UNL     1       4.635   2.062  16.291  0.00  0.00    +0.000 HD
ENDROOT
BRANCH   1  12
ATOM     11  N   UNL     1       7.602   5.571  14.821  0.00  0.00    +0.000 N 
ATOM     12  C   UNL     1       7.054   5.760  16.060  0.00  0.00    +0.000 C 
ATOM     13  O   UNL     1       7.464   6.636  16.816  0.00  0.00    +0.000 OA
ATOM     14  H   UNL     1       8.328   6.187  14.492  0.00  0.00    +0.000 HD
ATOM     15  H   UNL     1       7.192   4.868  14.215  0.00  0.00    +0.000 HD
ENDBRANCH   1  12
BRANCH   7  16
ATOM     16  N   UNL     1       2.305   7.400  18.752  0.00  0.00    +0.000 N 
ATOM     17  C   UNL     1       1.782   7.513  20.031  0.00  0.00    +0.000 C 
ATOM     18  O   UNL     1       1.743   6.620  20.874  0.00  0.00    +0.000 OA
ATOM     19  H   UNL     1       2.348   8.223  18.166  0.00  0.00    +0.000 HD
BRANCH  17  20
ATOM     20  C   UNL     1       1.217   8.818  20.447  0.00  0.00    +0.000 A 
ATOM     21  C   UNL     1       1.144   9.265  21.754  0.00  0.00    +0.000 A 
ATOM     22  N   UNL     1       0.738  10.516  22.104  0.00  0.00    +0.000 NA
ATOM     23  C   UNL     1       0.424  11.384  21.122  0.00  0.00    +0.000 A 
ATOM     24  C   UNL     1       0.090  12.700  21.429  0.00  0.00    +0.000 A 
ATOM     25  C   UNL     1      -0.198  13.636  20.428  0.00  0.00    +0.000 A 
ATOM     26  C   UNL     1      -0.175  13.245  19.099  0.00  0.00    +0.000 A 
ATOM     27  F   UNL     1      -0.440  14.137  18.137  0.00  0.00    +0.000 F 
ATOM     28  C   UNL     1       0.138  11.940  18.754  0.00  0.00    +0.000 A 
ATOM     29  C   UNL     1       0.451  11.014  19.761  0.00  0.00    +0.000 A 
ATOM     30  C   UNL     1       0.839   9.711  19.442  0.00  0.00    +0.000 A 
ENDBRANCH  17  20
ENDBRANCH   7  16
TORSDOF 3
ENDMDL
