MODEL 1
REMARK VINA RESULT:      -8.0      0.000      0.000
REMARK  Name = 
REMARK  6 active torsions:
REMARK  status: ('A' for Active; 'I' for Inactive)
REMARK    1  A    between atoms: C_2  and  C_18
REMARK    2  A    between atoms: N_3  and  C_4
REMARK    3  A    between atoms: C_4  and  C_5
REMARK    4  A    between atoms: C_5  and  C_6
REMARK    5  A    between atoms: C_8  and  C_9
REMARK    6  A    between atoms: C_23  and  C_24
REMARK                            x       y       z     vdW  Elec       q    Type
REMARK                         _______ _______ _______ _____ _____    ______ ____
ROOT
ATOM      1  O   UNL     1       2.360   4.024  21.335  0.00  0.00    +0.000 OA
ATOM      2  C   UNL     1       2.042   4.432  20.224  0.00  0.00    +0.000 C 
ATOM      3  N   UNL     1       1.818   3.600  19.149  0.00  0.00    +0.000 N 
ATOM      4  H   UNL     1       1.704   3.988  18.221  0.00  0.00    +0.000 HD
ENDROOT
BRANCH   2   5
ATOM      5  C   UNL     1       1.902   5.892  19.996  0.00  0.00    +0.000 A 
ATOM      6  C   UNL     1       2.361   6.405  18.779  0.00  0.00    +0.000 A 
ATOM      7  C   UNL     1       2.319   7.774  18.555  0.00  0.00    +0.000 A 
ATOM      8  F   UNL     1       2.755   8.266  17.389  0.00  0.00    +0.000 F 
ATOM      9  C   UNL     1       1.844   8.648  19.526  0.00  0.00    +0.000 A 
ATOM     10  C   UNL     1       1.390   8.152  20.757  0.00  0.00    +0.000 A 
ATOM     11  C   UNL     1       1.412   6.760  20.983  0.00  0.00    +0.000 A 
BRANCH  10  12
ATOM     12  C   UNL     1       0.919   9.095  21.838  0.00  0.00    +0.000 C 
ATOM     13  F   UNL     1      -0.252   8.717  22.419  0.00  0.00    +0.000 F 
ATOM     14  F   UNL     1       1.823   9.210  22.851  0.00  0.00    +0.000 F 
ATOM     15  F   UNL     1       0.718  10.357  21.371  0.00  0.00    +0.000 F 
ENDBRANCH  10  12
ENDBRANCH   2   5
BRANCH   3  16
ATOM     16  C   UNL     1       2.006   2.160  19.283  0.00  0.00    +0.000 C 
BRANCH  16  17
ATOM     17  C   UNL     1       3.383   1.706  18.803  0.00  0.00    +0.000 C 
BRANCH  17  18
ATOM     18  C   UNL     1       4.144   2.817  18.187  0.00  0.00    +0.000 A 
ATOM     19  N   UNL     1       4.937   3.709  18.736  0.00  0.00    +0.000 NA
ATOM     20  C   UNL     1       5.296   4.497  17.661  0.00  0.00    +0.000 A 
ATOM     21  N   UNL     1       4.745   4.108  16.498  0.00  0.00    +0.000 NA
ATOM     22  O   UNL     1       3.984   2.994  16.845  0.00  0.00    +0.000 OA
BRANCH  20  23
ATOM     23  C   UNL     1       6.159   5.665  17.808  0.00  0.00    +0.000 A 
ATOM     24  C   UNL     1       5.855   6.858  17.132  0.00  0.00    +0.000 A 
ATOM     25  C   UNL     1       6.691   7.974  17.240  0.00  0.00    +0.000 A 
ATOM     26  C   UNL     1       7.837   7.906  18.027  0.00  0.00    +0.000 A 
ATOM     27 CL   UNL     1       8.873   9.274  18.151  0.00  0.00    +0.000 Cl
ATOM     28  C   UNL     1       8.151   6.735  18.713  0.00  0.00    +0.000 A 
ATOM     29  C   UNL     1       7.315   5.618  18.605  0.00  0.00    +0.000 A 
ENDBRANCH  20  23
ENDBRANCH  17  18
ENDBRANCH  16  17
ENDBRANCH   3  16
TORSDOF 6
ENDMDL
MODEL 2
REMARK VINA RESULT:      -7.7      3.393      5.842
REMARK  Name = 
REMARK  6 active torsions:
REMARK  status: ('A' for Active; 'I' for Inactive)
REMARK    1  A    between atoms: C_2  and  C_18
REMARK    2  A    between atoms: N_3  and  C_4
REMARK    3  A    between atoms: C_4  and  C_5
REMARK    4  A    between atoms: C_5  and  C_6
REMARK    5  A    between atoms: C_8  and  C_9
REMARK    6  A    between atoms: C_23  and  C_24
REMARK                            x       y       z     vdW  Elec       q    Type
REMARK                         _______ _______ _______ _____ _____    ______ ____
ROOT
ATOM      1  O   UNL     1       2.469   3.505  16.521  0.00  0.00    +0.000 OA
ATOM      2  C   UNL     1       3.458   3.269  17.204  0.00  0.00    +0.000 C 
ATOM      3  N   UNL     1       3.460   2.368  18.247  0.00  0.00    +0.000 N 
ATOM      4  H   UNL     1       4.254   2.315  18.872  0.00  0.00    +0.000 HD
ENDROOT
BRANCH   2   5
ATOM      5  C   UNL     1       4.726   3.988  16.924  0.00  0.00    +0.000 A 
ATOM      6  C   UNL     1       5.165   4.035  15.598  0.00  0.00    +0.000 A 
ATOM      7  C   UNL     1       6.383   4.632  15.302  0.00  0.00    +0.000 A 
ATOM      8  F   UNL     1       6.803   4.679  14.032  0.00  0.00    +0.000 F 
ATOM      9  C   UNL     1       7.184   5.169  16.303  0.00  0.00    +0.000 A 
ATOM     10  C   UNL     1       6.764   5.121  17.641  0.00  0.00    +0.000 A 
ATOM     11  C   UNL     1       5.518   4.534  17.946  0.00  0.00    +0.000 A 
BRANCH  10  12
ATOM     12  C   UNL     1       7.647   5.657  18.742  0.00  0.00    +0.000 C 
ATOM     13  F   UNL     1       8.145   6.896  18.487  0.00  0.00    +0.000 F 
ATOM     14  F   UNL     1       6.985   5.753  19.930  0.00  0.00    +0.000 F 
ATOM     15  F   UNL     1       8.723   4.858  18.976  0.00  0.00    +0.000 F 
ENDBRANCH  10  12
ENDBRANCH   2   5
BRANCH   3  16
ATOM     16  C   UNL     1       2.232   1.677  18.621  0.00  0.00    +0.000 C 
BRANCH  16  17
ATOM     17  C   UNL     1       1.527   2.342  19.802  0.00  0.00    +0.000 C 
BRANCH  17  18
ATOM     18  C   UNL     1       1.901   3.769  19.931  0.00  0.00    +0.000 A 
ATOM     19  N   UNL     1       1.294   4.849  19.492  0.00  0.00    +0.000 NA
ATOM     20  C   UNL     1       2.153   5.857  19.879  0.00  0.00    +0.000 A 
ATOM     21  N   UNL     1       3.245   5.418  20.528  0.00  0.00    +0.000 NA
ATOM     22  O   UNL     1       3.077   4.035  20.566  0.00  0.00    +0.000 OA
BRANCH  20  23
ATOM     23  C   UNL     1       1.898   7.259  19.561  0.00  0.00    +0.000 A 
ATOM     24  C   UNL     1       2.222   7.766  18.292  0.00  0.00    +0.000 A 
ATOM     25  C   UNL     1       2.011   9.114  17.986  0.00  0.00    +0.000 A 
ATOM     26  C   UNL     1       1.472   9.966  18.946  0.00  0.00    +0.000 A 
ATOM     27 CL   UNL     1       1.224  11.627  18.575  0.00  0.00    +0.000 Cl
ATOM     28  C   UNL     1       1.136   9.481  20.208  0.00  0.00    +0.000 A 
ATOM     29  C   UNL     1       1.347   8.131  20.514  0.00  0.00    +0.000 A 
ENDBRANCH  20  23
ENDBRANCH  17  18
ENDBRANCH  16  17
ENDBRANCH   3  16
TORSDOF 6
ENDMDL
MODEL 3
REMARK VINA RESULT:      -7.6      5.216      9.112
REMARK  Name = 
REMARK  6 active torsions:
REMARK  status: ('A' for Active; 'I' for Inactive)
REMARK    1  A    between atoms: C_2  and  C_18
REMARK    2  A    between atoms: N_3  and  C_4
REMARK    3  A    between atoms: C_4  and  C_5
REMARK    4  A    between atoms: C_5  and  C_6
REMARK    5  A    between atoms: C_8  and  C_9
REMARK    6  A    between atoms: C_23  and  C_24
REMARK                            x       y       z     vdW  Elec       q    Type
REMARK                         _______ _______ _______ _____ _____    ______ ____
ROOT
ATOM      1  O   UNL     1       1.311   5.034  20.318  0.00  0.00    +0.000 OA
ATOM      2  C   UNL     1       2.138   5.711  19.719  0.00  0.00    +0.000 C 
ATOM      3  N   UNL     1       2.353   7.047  19.983  0.00  0.00    +0.000 N 
ATOM      4  H   UNL     1       2.938   7.598  19.367  0.00  0.00    +0.000 HD
ENDROOT
BRANCH   2   5
ATOM      5  C   UNL     1       2.948   5.090  18.642  0.00  0.00    +0.000 A 
ATOM      6  C   UNL     1       2.985   3.694  18.582  0.00  0.00    +0.000 A 
ATOM      7  C   UNL     1       3.791   3.071  17.639  0.00  0.00    +0.000 A 
ATOM      8  F   UNL     1       3.824   1.734  17.579  0.00  0.00    +0.000 F 
ATOM      9  C   UNL     1       4.576   3.811  16.763  0.00  0.00    +0.000 A 
ATOM     10  C   UNL     1       4.560   5.212  16.816  0.00  0.00    +0.000 A 
ATOM     11  C   UNL     1       3.728   5.851  17.759  0.00  0.00    +0.000 A 
BRANCH  10  12
ATOM     12  C   UNL     1       5.445   6.026  15.902  0.00  0.00    +0.000 C 
ATOM     13  F   UNL     1       6.520   6.573  16.531  0.00  0.00    +0.000 F 
ATOM     14  F   UNL     1       5.946   5.282  14.876  0.00  0.00    +0.000 F 
ATOM     15  F   UNL     1       4.778   7.061  15.324  0.00  0.00    +0.000 F 
ENDBRANCH  10  12
ENDBRANCH   2   5
BRANCH   3  16
ATOM     16  C   UNL     1       1.545   7.738  20.980  0.00  0.00    +0.000 C 
BRANCH  16  17
ATOM     17  C   UNL     1       0.947   9.038  20.444  0.00  0.00    +0.000 C 
BRANCH  17  18
ATOM     18  C   UNL     1       0.230   9.788  21.500  0.00  0.00    +0.000 A 
ATOM     19  N   UNL     1      -0.539  10.850  21.415  0.00  0.00    +0.000 NA
ATOM     20  C   UNL     1      -0.860  11.099  22.734  0.00  0.00    +0.000 A 
ATOM     21  N   UNL     1      -0.311  10.227  23.597  0.00  0.00    +0.000 NA
ATOM     22  O   UNL     1       0.410   9.358  22.781  0.00  0.00    +0.000 OA
BRANCH  20  23
ATOM     23  C   UNL     1      -1.686  12.235  23.131  0.00  0.00    +0.000 A 
ATOM     24  C   UNL     1      -1.122  13.518  23.230  0.00  0.00    +0.000 A 
ATOM     25  C   UNL     1      -1.895  14.608  23.638  0.00  0.00    +0.000 A 
ATOM     26  C   UNL     1      -3.240  14.426  23.950  0.00  0.00    +0.000 A 
ATOM     27 CL   UNL     1      -4.189  15.765  24.466  0.00  0.00    +0.000 Cl
ATOM     28  C   UNL     1      -3.820  13.164  23.850  0.00  0.00    +0.000 A 
ATOM     29  C   UNL     1      -3.046  12.072  23.440  0.00  0.00    +0.000 A 
ENDBRANCH  20  23
ENDBRANCH  17  18
ENDBRANCH  16  17
ENDBRANCH   3  16
TORSDOF 6
ENDMDL
MODEL 4
REMARK VINA RESULT:      -7.6      3.209      5.862
REMARK  Name = 
REMARK  6 active torsions:
REMARK  status: ('A' for Active; 'I' for Inactive)
REMARK    1  A    between atoms: C_2  and  C_18
REMARK    2  A    between atoms: N_3  and  C_4
REMARK    3  A    between atoms: C_4  and  C_5
REMARK    4  A    between atoms: C_5  and  C_6
REMARK    5  A    between atoms: C_8  and  C_9
REMARK    6  A    between atoms: C_23  and  C_24
REMARK                            x       y       z     vdW  Elec       q    Type
REMARK                         _______ _______ _______ _____ _____    ______ ____
ROOT
ATOM      1  O   UNL     1       2.616   3.186  16.393  0.00  0.00    +0.000 OA
ATOM      2  C   UNL     1       3.715   3.183  16.933  0.00  0.00    +0.000 C 
ATOM      3  N   UNL     1       4.002   2.440  18.058  0.00  0.00    +0.000 N 
ATOM      4  H   UNL     1       4.874   2.582  18.552  0.00  0.00    +0.000 HD
ENDROOT
BRANCH   2   5
ATOM      5  C   UNL     1       4.804   4.026  16.378  0.00  0.00    +0.000 A 
ATOM      6  C   UNL     1       5.340   3.659  15.139  0.00  0.00    +0.000 A 
ATOM      7  C   UNL     1       6.410   4.374  14.619  0.00  0.00    +0.000 A 
ATOM      8  F   UNL     1       6.921   4.025  13.432  0.00  0.00    +0.000 F 
ATOM      9  C   UNL     1       6.971   5.438  15.315  0.00  0.00    +0.000 A 
ATOM     10  C   UNL     1       6.453   5.813  16.564  0.00  0.00    +0.000 A 
ATOM     11  C   UNL     1       5.353   5.103  17.089  0.00  0.00    +0.000 A 
BRANCH  10  12
ATOM     12  C   UNL     1       7.085   6.935  17.351  0.00  0.00    +0.000 C 
ATOM     13  F   UNL     1       8.156   7.500  16.731  0.00  0.00    +0.000 F 
ATOM     14  F   UNL     1       6.209   7.951  17.592  0.00  0.00    +0.000 F 
ATOM     15  F   UNL     1       7.528   6.525  18.570  0.00  0.00    +0.000 F 
ENDBRANCH  10  12
ENDBRANCH   2   5
BRANCH   3  16
ATOM     16  C   UNL     1       2.961   1.644  18.697  0.00  0.00    +0.000 C 
BRANCH  16  17
ATOM     17  C   UNL     1       2.359   2.343  19.915  0.00  0.00    +0.000 C 
BRANCH  17  18
ATOM     18  C   UNL     1       2.606   3.803  19.887  0.00  0.00    +0.000 A 
ATOM     19  N   UNL     1       1.792   4.797  19.614  0.00  0.00    +0.000 NA
ATOM     20  C   UNL     1       2.618   5.899  19.703  0.00  0.00    +0.000 A 
ATOM     21  N   UNL     1       3.890   5.597  20.018  0.00  0.00    +0.000 NA
ATOM     22  O   UNL     1       3.882   4.209  20.142  0.00  0.00    +0.000 OA
BRANCH  20  23
ATOM     23  C   UNL     1       2.140   7.252  19.433  0.00  0.00    +0.000 A 
ATOM     24  C   UNL     1       2.378   7.849  18.184  0.00  0.00    +0.000 A 
ATOM     25  C   UNL     1       1.953   9.155  17.924  0.00  0.00    +0.000 A 
ATOM     26  C   UNL     1       1.284   9.874  18.911  0.00  0.00    +0.000 A 
ATOM     27 CL   UNL     1       0.771  11.486  18.597  0.00  0.00    +0.000 Cl
ATOM     28  C   UNL     1       1.031   9.297  20.153  0.00  0.00    +0.000 A 
ATOM     29  C   UNL     1       1.456   7.989  20.413  0.00  0.00    +0.000 A 
ENDBRANCH  20  23
ENDBRANCH  17  18
ENDBRANCH  16  17
ENDBRANCH   3  16
TORSDOF 6
ENDMDL
MODEL 5
REMARK VINA RESULT:      -7.5      5.172      8.085
REMARK  Name = 
REMARK  6 active torsions:
REMARK  status: ('A' for Active; 'I' for Inactive)
REMARK    1  A    between atoms: C_2  and  C_18
REMARK    2  A    between atoms: N_3  and  C_4
REMARK    3  A    between atoms: C_4  and  C_5
REMARK    4  A    between atoms: C_5  and  C_6
REMARK    5  A    between atoms: C_8  and  C_9
REMARK    6  A    between atoms: C_23  and  C_24
REMARK                            x       y       z     vdW  Elec       q    Type
REMARK                         _______ _______ _______ _____ _____    ______ ____
ROOT
ATOM      1  O   UNL     1       7.250   4.707  17.162  0.00  0.00    +0.000 OA
ATOM      2  C   UNL     1       6.315   4.415  16.427  0.00  0.00    +0.000 C 
ATOM      3  N   UNL     1       5.057   4.101  16.894  0.00  0.00    +0.000 N 
ATOM      4  H   UNL     1       4.360   3.725  16.264  0.00  0.00    +0.000 HD
ENDROOT
BRANCH   2   5
ATOM      5  C   UNL     1       6.527   4.372  14.959  0.00  0.00    +0.000 A 
ATOM      6  C   UNL     1       7.617   5.077  14.440  0.00  0.00    +0.000 A 
ATOM      7  C   UNL     1       7.808   5.127  13.067  0.00  0.00    +0.000 A 
ATOM      8  F   UNL     1       8.853   5.799  12.570  0.00  0.00    +0.000 F 
ATOM      9  C   UNL     1       6.924   4.502  12.194  0.00  0.00    +0.000 A 
ATOM     10  C   UNL     1       5.819   3.799  12.696  0.00  0.00    +0.000 A 
ATOM     11  C   UNL     1       5.630   3.728  14.092  0.00  0.00    +0.000 A 
BRANCH  10  12
ATOM     12  C   UNL     1       4.825   3.158  11.757  0.00  0.00    +0.000 C 
ATOM     13  F   UNL     1       5.180   1.907  11.360  0.00  0.00    +0.000 F 
ATOM     14  F   UNL     1       3.589   3.040  12.319  0.00  0.00    +0.000 F 
ATOM     15  F   UNL     1       4.652   3.881  10.618  0.00  0.00    +0.000 F 
ENDBRANCH  10  12
ENDBRANCH   2   5
BRANCH   3  16
ATOM     16  C   UNL     1       4.796   4.056  18.328  0.00  0.00    +0.000 C 
BRANCH  16  17
ATOM     17  C   UNL     1       3.308   4.176  18.653  0.00  0.00    +0.000 C 
BRANCH  17  18
ATOM     18  C   UNL     1       2.902   5.586  18.852  0.00  0.00    +0.000 A 
ATOM     19  N   UNL     1       2.229   6.146  19.832  0.00  0.00    +0.000 NA
ATOM     20  C   UNL     1       2.128   7.459  19.418  0.00  0.00    +0.000 A 
ATOM     21  N   UNL     1       2.714   7.699  18.233  0.00  0.00    +0.000 NA
ATOM     22  O   UNL     1       3.229   6.460  17.858  0.00  0.00    +0.000 OA
BRANCH  20  23
ATOM     23  C   UNL     1       1.408   8.464  20.195  0.00  0.00    +0.000 A 
ATOM     24  C   UNL     1       0.996   9.663  19.590  0.00  0.00    +0.000 A 
ATOM     25  C   UNL     1       0.333  10.646  20.330  0.00  0.00    +0.000 A 
ATOM     26  C   UNL     1       0.075  10.438  21.682  0.00  0.00    +0.000 A 
ATOM     27 CL   UNL     1      -0.728  11.653  22.598  0.00  0.00    +0.000 Cl
ATOM     28  C   UNL     1       0.468   9.253  22.299  0.00  0.00    +0.000 A 
ATOM     29  C   UNL     1       1.131   8.268  21.557  0.00  0.00    +0.000 A 
ENDBRANCH  20  23
ENDBRANCH  17  18
ENDBRANCH  16  17
ENDBRANCH   3  16
TORSDOF 6
ENDMDL
MODEL 6
REMARK VINA RESULT:      -7.5      3.225      5.859
REMARK  Name = 
REMARK  6 active torsions:
REMARK  status: ('A' for Active; 'I' for Inactive)
REMARK    1  A    between atoms: C_2  and  C_18
REMARK    2  A    between atoms: N_3  and  C_4
REMARK    3  A    between atoms: C_4  and  C_5
REMARK    4  A    between atoms: C_5  and  C_6
REMARK    5  A    between atoms: C_8  and  C_9
REMARK    6  A    between atoms: C_23  and  C_24
REMARK                            x       y       z     vdW  Elec       q    Type
REMARK                         _______ _______ _______ _____ _____    ______ ____
ROOT
ATOM      1  O   UNL     1       2.616   3.132  16.419  0.00  0.00    +0.000 OA
ATOM      2  C   UNL     1       3.710   3.180  16.969  0.00  0.00    +0.000 C 
ATOM      3  N   UNL     1       4.012   2.475  18.114  0.00  0.00    +0.000 N 
ATOM      4  H   UNL     1       4.873   2.659  18.612  0.00  0.00    +0.000 HD
ENDROOT
BRANCH   2   5
ATOM      5  C   UNL     1       4.773   4.046  16.402  0.00  0.00    +0.000 A 
ATOM      6  C   UNL     1       5.273   3.717  15.139  0.00  0.00    +0.000 A 
ATOM      7  C   UNL     1       6.321   4.455  14.605  0.00  0.00    +0.000 A 
ATOM      8  F   UNL     1       6.797   4.142  13.394  0.00  0.00    +0.000 F 
ATOM      9  C   UNL     1       6.895   5.505  15.311  0.00  0.00    +0.000 A 
ATOM     10  C   UNL     1       6.414   5.843  16.585  0.00  0.00    +0.000 A 
ATOM     11  C   UNL     1       5.336   5.110  17.124  0.00  0.00    +0.000 A 
BRANCH  10  12
ATOM     12  C   UNL     1       7.061   6.950  17.382  0.00  0.00    +0.000 C 
ATOM     13  F   UNL     1       7.500   6.554  18.607  0.00  0.00    +0.000 F 
ATOM     14  F   UNL     1       8.144   7.477  16.744  0.00  0.00    +0.000 F 
ATOM     15  F   UNL     1       6.213   7.990  17.602  0.00  0.00    +0.000 F 
ENDBRANCH  10  12
ENDBRANCH   2   5
BRANCH   3  16
ATOM     16  C   UNL     1       2.993   1.659  18.763  0.00  0.00    +0.000 C 
BRANCH  16  17
ATOM     17  C   UNL     1       2.321   2.384  19.928  0.00  0.00    +0.000 C 
BRANCH  17  18
ATOM     18  C   UNL     1       2.579   3.841  19.889  0.00  0.00    +0.000 A 
ATOM     19  N   UNL     1       1.762   4.842  19.652  0.00  0.00    +0.000 NA
ATOM     20  C   UNL     1       2.601   5.937  19.703  0.00  0.00    +0.000 A 
ATOM     21  N   UNL     1       3.883   5.624  19.959  0.00  0.00    +0.000 NA
ATOM     22  O   UNL     1       3.869   4.236  20.085  0.00  0.00    +0.000 OA
BRANCH  20  23
ATOM     23  C   UNL     1       2.123   7.294  19.455  0.00  0.00    +0.000 A 
ATOM     24  C   UNL     1       1.536   8.037  20.492  0.00  0.00    +0.000 A 
ATOM     25  C   UNL     1       1.047   9.326  20.259  0.00  0.00    +0.000 A 
ATOM     26  C   UNL     1       1.141   9.883  18.987  0.00  0.00    +0.000 A 
ATOM     27 CL   UNL     1       0.527  11.464  18.696  0.00  0.00    +0.000 Cl
ATOM     28  C   UNL     1       1.728   9.166  17.947  0.00  0.00    +0.000 A 
ATOM     29  C   UNL     1       2.218   7.876  18.180  0.00  0.00    +0.000 A 
ENDBRANCH  20  23
ENDBRANCH  17  18
ENDBRANCH  16  17
ENDBRANCH   3  16
TORSDOF 6
ENDMDL
MODEL 7
REMARK VINA RESULT:      -7.4      3.263      5.647
REMARK  Name = 
REMARK  6 active torsions:
REMARK  status: ('A' for Active; 'I' for Inactive)
REMARK    1  A    between atoms: C_2  and  C_18
REMARK    2  A    between atoms: N_3  and  C_4
REMARK    3  A    between atoms: C_4  and  C_5
REMARK    4  A    between atoms: C_5  and  C_6
REMARK    5  A    between atoms: C_8  and  C_9
REMARK    6  A    between atoms: C_23  and  C_24
REMARK                            x       y       z     vdW  Elec       q    Type
REMARK                         _______ _______ _______ _____ _____    ______ ____
ROOT
ATOM      1  O   UNL     1       2.891   3.154  16.684  0.00  0.00    +0.000 OA
ATOM      2  C   UNL     1       3.758   3.308  17.535  0.00  0.00    +0.000 C 
ATOM      3  N   UNL     1       3.898   2.482  18.630  0.00  0.00    +0.000 N 
ATOM      4  H   UNL     1       4.530   2.733  19.378  0.00  0.00    +0.000 HD
ENDROOT
BRANCH   2   5
ATOM      5  C   UNL     1       4.706   4.443  17.413  0.00  0.00    +0.000 A 
ATOM      6  C   UNL     1       4.564   5.290  16.310  0.00  0.00    +0.000 A 
ATOM      7  C   UNL     1       5.477   6.318  16.116  0.00  0.00    +0.000 A 
ATOM      8  F   UNL     1       5.339   7.132  15.062  0.00  0.00    +0.000 F 
ATOM      9  C   UNL     1       6.540   6.511  16.990  0.00  0.00    +0.000 A 
ATOM     10  C   UNL     1       6.704   5.664  18.096  0.00  0.00    +0.000 A 
ATOM     11  C   UNL     1       5.769   4.630  18.309  0.00  0.00    +0.000 A 
BRANCH  10  12
ATOM     12  C   UNL     1       7.883   5.833  19.024  0.00  0.00    +0.000 C 
ATOM     13  F   UNL     1       7.546   5.815  20.342  0.00  0.00    +0.000 F 
ATOM     14  F   UNL     1       8.812   4.850  18.859  0.00  0.00    +0.000 F 
ATOM     15  F   UNL     1       8.539   7.007  18.818  0.00  0.00    +0.000 F 
ENDBRANCH  10  12
ENDBRANCH   2   5
BRANCH   3  16
ATOM     16  C   UNL     1       2.958   1.389  18.849  0.00  0.00    +0.000 C 
BRANCH  16  17
ATOM     17  C   UNL     1       1.738   1.824  19.659  0.00  0.00    +0.000 C 
BRANCH  17  18
ATOM     18  C   UNL     1       1.833   3.242  20.075  0.00  0.00    +0.000 A 
ATOM     19  N   UNL     1       1.527   4.341  19.422  0.00  0.00    +0.000 NA
ATOM     20  C   UNL     1       1.885   5.332  20.313  0.00  0.00    +0.000 A 
ATOM     21  N   UNL     1       2.392   4.865  21.466  0.00  0.00    +0.000 NA
ATOM     22  O   UNL     1       2.355   3.481  21.311  0.00  0.00    +0.000 OA
BRANCH  20  23
ATOM     23  C   UNL     1       1.756   6.750  19.989  0.00  0.00    +0.000 A 
ATOM     24  C   UNL     1       1.167   7.633  20.909  0.00  0.00    +0.000 A 
ATOM     25  C   UNL     1       1.009   8.987  20.598  0.00  0.00    +0.000 A 
ATOM     26  C   UNL     1       1.441   9.470  19.366  0.00  0.00    +0.000 A 
ATOM     27 CL   UNL     1       1.236  11.133  18.978  0.00  0.00    +0.000 Cl
ATOM     28  C   UNL     1       2.036   8.612  18.444  0.00  0.00    +0.000 A 
ATOM     29  C   UNL     1       2.194   7.257  18.755  0.00  0.00    +0.000 A 
ENDBRANCH  20  23
ENDBRANCH  17  18
ENDBRANCH  16  17
ENDBRANCH   3  16
TORSDOF 6
ENDMDL
MODEL 8
REMARK VINA RESULT:      -7.4      6.215      9.631
REMARK  Name = 
REMARK  6 active torsions:
REMARK  status: ('A' for Active; 'I' for Inactive)
REMARK    1  A    between atoms: C_2  and  C_18
REMARK    2  A    between atoms: N_3  and  C_4
REMARK    3  A    between atoms: C_4  and  C_5
REMARK    4  A    between atoms: C_5  and  C_6
REMARK    5  A    between atoms: C_8  and  C_9
REMARK    6  A    between atoms: C_23  and  C_24
REMARK                            x       y       z     vdW  Elec       q    Type
REMARK                         _______ _______ _______ _____ _____    ______ ____
ROOT
ATOM      1  O   UNL     1       1.556   8.811  19.527  0.00  0.00    +0.000 OA
ATOM      2  C   UNL     1       1.788   7.829  20.221  0.00  0.00    +0.000 C 
ATOM      3  N   UNL     1       1.739   7.847  21.598  0.00  0.00    +0.000 N 
ATOM      4  H   UNL     1       2.080   7.056  22.129  0.00  0.00    +0.000 HD
ENDROOT
BRANCH   2   5
ATOM      5  C   UNL     1       2.158   6.547  19.570  0.00  0.00    +0.000 A 
ATOM      6  C   UNL     1       3.001   6.605  18.456  0.00  0.00    +0.000 A 
ATOM      7  C   UNL     1       3.310   5.438  17.772  0.00  0.00    +0.000 A 
ATOM      8  F   UNL     1       4.120   5.493  16.707  0.00  0.00    +0.000 F 
ATOM      9  C   UNL     1       2.783   4.213  18.162  0.00  0.00    +0.000 A 
ATOM     10  C   UNL     1       1.926   4.137  19.270  0.00  0.00    +0.000 A 
ATOM     11  C   UNL     1       1.624   5.317  19.983  0.00  0.00    +0.000 A 
BRANCH  10  12
ATOM     12  C   UNL     1       1.308   2.820  19.675  0.00  0.00    +0.000 C 
ATOM     13  F   UNL     1       0.696   2.856  20.889  0.00  0.00    +0.000 F 
ATOM     14  F   UNL     1       0.362   2.402  18.787  0.00  0.00    +0.000 F 
ATOM     15  F   UNL     1       2.226   1.819  19.744  0.00  0.00    +0.000 F 
ENDBRANCH  10  12
ENDBRANCH   2   5
BRANCH   3  16
ATOM     16  C   UNL     1       1.450   9.089  22.306  0.00  0.00    +0.000 C 
BRANCH  16  17
ATOM     17  C   UNL     1      -0.048   9.316  22.495  0.00  0.00    +0.000 C 
BRANCH  17  18
ATOM     18  C   UNL     1      -0.375  10.755  22.617  0.00  0.00    +0.000 A 
ATOM     19  N   UNL     1      -1.329  11.355  23.292  0.00  0.00    +0.000 NA
ATOM     20  C   UNL     1      -1.143  12.683  22.964  0.00  0.00    +0.000 A 
ATOM     21  N   UNL     1      -0.117  12.893  22.121  0.00  0.00    +0.000 NA
ATOM     22  O   UNL     1       0.394  11.616  21.893  0.00  0.00    +0.000 OA
BRANCH  20  23
ATOM     23  C   UNL     1      -2.020  13.737  23.466  0.00  0.00    +0.000 A 
ATOM     24  C   UNL     1      -1.512  14.733  24.315  0.00  0.00    +0.000 A 
ATOM     25  C   UNL     1      -2.348  15.730  24.827  0.00  0.00    +0.000 A 
ATOM     26  C   UNL     1      -3.700  15.740  24.492  0.00  0.00    +0.000 A 
ATOM     27 CL   UNL     1      -4.733  16.958  25.131  0.00  0.00    +0.000 Cl
ATOM     28  C   UNL     1      -4.221  14.765  23.643  0.00  0.00    +0.000 A 
ATOM     29  C   UNL     1      -3.383  13.768  23.131  0.00  0.00    +0.000 A 
ENDBRANCH  20  23
ENDBRANCH  17  18
ENDBRANCH  16  17
ENDBRANCH   3  16
TORSDOF 6
ENDMDL
MODEL 9
REMARK VINA RESULT:      -7.4      3.945      7.053
REMARK  Name = 
REMARK  6 active torsions:
REMARK  status: ('A' for Active; 'I' for Inactive)
REMARK    1  A    between atoms: C_2  and  C_18
REMARK    2  A    between atoms: N_3  and  C_4
REMARK    3  A    between atoms: C_4  and  C_5
REMARK    4  A    between atoms: C_5  and  C_6
REMARK    5  A    between atoms: C_8  and  C_9
REMARK    6  A    between atoms: C_23  and  C_24
REMARK                            x       y       z     vdW  Elec       q    Type
REMARK                         _______ _______ _______ _____ _____    ______ ____
ROOT
ATOM      1  O   UNL     1       2.956   3.536  16.993  0.00  0.00    +0.000 OA
ATOM      2  C   UNL     1       4.138   3.302  17.211  0.00  0.00    +0.000 C 
ATOM      3  N   UNL     1       4.575   2.551  18.281  0.00  0.00    +0.000 N 
ATOM      4  H   UNL     1       5.561   2.508  18.503  0.00  0.00    +0.000 HD
ENDROOT
BRANCH   2   5
ATOM      5  C   UNL     1       5.172   3.857  16.302  0.00  0.00    +0.000 A 
ATOM      6  C   UNL     1       5.995   4.872  16.799  0.00  0.00    +0.000 A 
ATOM      7  C   UNL     1       6.923   5.471  15.959  0.00  0.00    +0.000 A 
ATOM      8  F   UNL     1       7.714   6.441  16.436  0.00  0.00    +0.000 F 
ATOM      9  C   UNL     1       7.038   5.094  14.627  0.00  0.00    +0.000 A 
ATOM     10  C   UNL     1       6.213   4.086  14.107  0.00  0.00    +0.000 A 
ATOM     11  C   UNL     1       5.281   3.458  14.961  0.00  0.00    +0.000 A 
BRANCH  10  12
ATOM     12  C   UNL     1       6.294   3.701  12.650  0.00  0.00    +0.000 C 
ATOM     13  F   UNL     1       7.160   4.466  11.932  0.00  0.00    +0.000 F 
ATOM     14  F   UNL     1       6.700   2.412  12.480  0.00  0.00    +0.000 F 
ATOM     15  F   UNL     1       5.091   3.802  12.022  0.00  0.00    +0.000 F 
ENDBRANCH  10  12
ENDBRANCH   2   5
BRANCH   3  16
ATOM     16  C   UNL     1       3.619   2.033  19.253  0.00  0.00    +0.000 C 
BRANCH  16  17
ATOM     17  C   UNL     1       3.608   2.845  20.547  0.00  0.00    +0.000 C 
BRANCH  17  18
ATOM     18  C   UNL     1       2.805   4.081  20.412  0.00  0.00    +0.000 A 
ATOM     19  N   UNL     1       3.110   5.236  19.864  0.00  0.00    +0.000 NA
ATOM     20  C   UNL     1       1.979   5.991  20.101  0.00  0.00    +0.000 A 
ATOM     21  N   UNL     1       1.017   5.330  20.767  0.00  0.00    +0.000 NA
ATOM     22  O   UNL     1       1.563   4.064  20.972  0.00  0.00    +0.000 OA
BRANCH  20  23
ATOM     23  C   UNL     1       1.880   7.390  19.692  0.00  0.00    +0.000 A 
ATOM     24  C   UNL     1       1.329   8.343  20.564  0.00  0.00    +0.000 A 
ATOM     25  C   UNL     1       1.201   9.679  20.173  0.00  0.00    +0.000 A 
ATOM     26  C   UNL     1       1.623  10.073  18.906  0.00  0.00    +0.000 A 
ATOM     27 CL   UNL     1       1.453  11.714  18.419  0.00  0.00    +0.000 Cl
ATOM     28  C   UNL     1       2.180   9.145  18.030  0.00  0.00    +0.000 A 
ATOM     29  C   UNL     1       2.309   7.807  18.422  0.00  0.00    +0.000 A 
ENDBRANCH  20  23
ENDBRANCH  17  18
ENDBRANCH  16  17
ENDBRANCH   3  16
TORSDOF 6
ENDMDL
