MODEL 1
REMARK VINA RESULT:      -8.1      0.000      0.000
REMARK  Name = 
REMARK  6 active torsions:
REMARK  status: ('A' for Active; 'I' for Inactive)
REMARK    1  A    between atoms: C_1  and  C_2
REMARK    2  A    between atoms: C_2  and  C_3
REMARK    3  A    between atoms: C_3  and  N_4
REMARK    4  A    between atoms: C_6  and  C_7
REMARK    5  A    between atoms: C_13  and  C_14
REMARK    6  A    between atoms: C_16  and  C_17
REMARK                            x       y       z     vdW  Elec       q    Type
REMARK                         _______ _______ _______ _____ _____    ______ ____
ROOT
ATOM      1  C   UNL     1       3.285   5.776  19.484  0.00  0.00    +0.000 C 
ATOM      2  O   UNL     1       4.437   5.733  19.928  0.00  0.00    +0.000 OA
ATOM      3  N   UNL     1       2.877   4.850  18.535  0.00  0.00    +0.000 N 
ATOM      4  C   UNL     1       1.532   4.661  18.006  0.00  0.00    +0.000 C 
ATOM      5  C   UNL     1       1.343   3.154  18.048  0.00  0.00    +0.000 C 
ATOM      6  C   UNL     1       2.725   2.618  17.706  0.00  0.00    +0.000 C 
ATOM      7  C   UNL     1       3.697   3.660  18.287  0.00  0.00    +0.000 C 
ENDROOT
BRANCH   7   8
ATOM      8  C   UNL     1       4.829   3.940  17.354  0.00  0.00    +0.000 A 
ATOM      9  N   UNL     1       4.805   4.003  16.039  0.00  0.00    +0.000 NA
ATOM     10  C   UNL     1       6.120   4.194  15.680  0.00  0.00    +0.000 A 
ATOM     11  N   UNL     1       6.958   4.254  16.726  0.00  0.00    +0.000 NA
ATOM     12  N   UNL     1       6.122   4.087  17.767  0.00  0.00    +0.000 N 
ATOM     13  H   UNL     1       6.480   4.076  18.720  0.00  0.00    +0.000 HD
BRANCH  10  14
ATOM     14  C   UNL     1       6.523   4.287  14.279  0.00  0.00    +0.000 A 
ATOM     15  C   UNL     1       5.950   3.433  13.322  0.00  0.00    +0.000 A 
ATOM     16  C   UNL     1       6.333   3.501  11.981  0.00  0.00    +0.000 A 
ATOM     17  C   UNL     1       7.296   4.424  11.579  0.00  0.00    +0.000 A 
ATOM     18  C   UNL     1       7.874   5.279  12.517  0.00  0.00    +0.000 A 
ATOM     19  C   UNL     1       7.490   5.211  13.860  0.00  0.00    +0.000 A 
ENDBRANCH  10  14
ENDBRANCH   7   8
BRANCH   1  22
ATOM     20  N   UNL     1       1.204   8.584  20.301  0.00  0.00    +0.000 N 
ATOM     21  C   UNL     1       2.223   8.068  19.565  0.00  0.00    +0.000 A 
ATOM     22  C   UNL     1       2.338   6.759  20.001  0.00  0.00    +0.000 A 
ATOM     23  N   UNL     1       1.393   6.545  20.975  0.00  0.00    +0.000 NA
ATOM     24  N   UNL     1       0.720   7.675  21.164  0.00  0.00    +0.000 NA
BRANCH  20  25
ATOM     25  C   UNL     1       0.658   9.933  20.259  0.00  0.00    +0.000 C 
BRANCH  25  27
ATOM     26  C   UNL     1      -0.202   9.614  17.866  0.00  0.00    +0.000 C 
ATOM     27  C   UNL     1       0.548  10.507  18.845  0.00  0.00    +0.000 C 
ATOM     28  C   UNL     1       0.041  11.968  18.843  0.00  0.00    +0.000 C 
ATOM     29  O   UNL     1       1.406  12.457  18.775  0.00  0.00    +0.000 OA
ATOM     30  C   UNL     1       1.848  11.151  18.313  0.00  0.00    +0.000 C 
ENDBRANCH  25  27
ENDBRANCH  20  25
ENDBRANCH   1  22
TORSDOF 5
ENDMDL
MODEL 2
REMARK VINA RESULT:      -7.9      0.732      1.102
REMARK  Name = 
REMARK  6 active torsions:
REMARK  status: ('A' for Active; 'I' for Inactive)
REMARK    1  A    between atoms: C_1  and  C_2
REMARK    2  A    between atoms: C_2  and  C_3
REMARK    3  A    between atoms: C_3  and  N_4
REMARK    4  A    between atoms: C_6  and  C_7
REMARK    5  A    between atoms: C_13  and  C_14
REMARK    6  A    between atoms: C_16  and  C_17
REMARK                            x       y       z     vdW  Elec       q    Type
REMARK                         _______ _______ _______ _____ _____    ______ ____
ROOT
ATOM      1  C   UNL     1       3.280   5.793  19.498  0.00  0.00    +0.000 C 
ATOM      2  O   UNL     1       4.435   5.763  19.936  0.00  0.00    +0.000 OA
ATOM      3  N   UNL     1       2.877   4.863  18.551  0.00  0.00    +0.000 N 
ATOM      4  C   UNL     1       1.531   4.659  18.029  0.00  0.00    +0.000 C 
ATOM      5  C   UNL     1       1.357   3.151  18.074  0.00  0.00    +0.000 C 
ATOM      6  C   UNL     1       2.743   2.628  17.727  0.00  0.00    +0.000 C 
ATOM      7  C   UNL     1       3.707   3.681  18.301  0.00  0.00    +0.000 C 
ENDROOT
BRANCH   7   8
ATOM      8  C   UNL     1       4.832   3.970  17.362  0.00  0.00    +0.000 A 
ATOM      9  N   UNL     1       4.806   4.011  16.047  0.00  0.00    +0.000 NA
ATOM     10  C   UNL     1       6.116   4.226  15.683  0.00  0.00    +0.000 A 
ATOM     11  N   UNL     1       6.953   4.321  16.728  0.00  0.00    +0.000 NA
ATOM     12  N   UNL     1       6.122   4.152  17.772  0.00  0.00    +0.000 N 
ATOM     13  H   UNL     1       6.481   4.164  18.724  0.00  0.00    +0.000 HD
BRANCH  10  14
ATOM     14  C   UNL     1       6.516   4.305  14.280  0.00  0.00    +0.000 A 
ATOM     15  C   UNL     1       5.918   3.463  13.328  0.00  0.00    +0.000 A 
ATOM     16  C   UNL     1       6.298   3.517  11.985  0.00  0.00    +0.000 A 
ATOM     17  C   UNL     1       7.282   4.415  11.578  0.00  0.00    +0.000 A 
ATOM     18  C   UNL     1       7.883   5.259  12.511  0.00  0.00    +0.000 A 
ATOM     19  C   UNL     1       7.503   5.204  13.855  0.00  0.00    +0.000 A 
ENDBRANCH  10  14
ENDBRANCH   7   8
BRANCH   1  22
ATOM     20  N   UNL     1       1.205   8.596  20.350  0.00  0.00    +0.000 N 
ATOM     21  C   UNL     1       2.247   8.096  19.635  0.00  0.00    +0.000 A 
ATOM     22  C   UNL     1       2.325   6.769  20.018  0.00  0.00    +0.000 A 
ATOM     23  N   UNL     1       1.339   6.527  20.942  0.00  0.00    +0.000 NA
ATOM     24  N   UNL     1       0.673   7.658  21.152  0.00  0.00    +0.000 NA
BRANCH  20  25
ATOM     25  C   UNL     1       0.679   9.953  20.344  0.00  0.00    +0.000 C 
BRANCH  25  27
ATOM     26  C   UNL     1       1.751  11.265  18.421  0.00  0.00    +0.000 C 
ATOM     27  C   UNL     1       0.515  10.543  18.942  0.00  0.00    +0.000 C 
ATOM     28  C   UNL     1      -0.056   9.517  17.937  0.00  0.00    +0.000 C 
ATOM     29  O   UNL     1      -1.396  10.032  18.149  0.00  0.00    +0.000 OA
ATOM     30  C   UNL     1      -0.835  11.255  18.701  0.00  0.00    +0.000 C 
ENDBRANCH  25  27
ENDBRANCH  20  25
ENDBRANCH   1  22
TORSDOF 5
ENDMDL
MODEL 3
REMARK VINA RESULT:      -7.9      0.829      1.402
REMARK  Name = 
REMARK  6 active torsions:
REMARK  status: ('A' for Active; 'I' for Inactive)
REMARK    1  A    between atoms: C_1  and  C_2
REMARK    2  A    between atoms: C_2  and  C_3
REMARK    3  A    between atoms: C_3  and  N_4
REMARK    4  A    between atoms: C_6  and  C_7
REMARK    5  A    between atoms: C_13  and  C_14
REMARK    6  A    between atoms: C_16  and  C_17
REMARK                            x       y       z     vdW  Elec       q    Type
REMARK                         _______ _______ _______ _____ _____    ______ ____
ROOT
ATOM      1  C   UNL     1       3.251   6.131  19.280  0.00  0.00    +0.000 C 
ATOM      2  O   UNL     1       4.401   6.164  19.731  0.00  0.00    +0.000 OA
ATOM      3  N   UNL     1       2.869   5.093  18.442  0.00  0.00    +0.000 N 
ATOM      4  C   UNL     1       1.531   4.817  17.932  0.00  0.00    +0.000 C 
ATOM      5  C   UNL     1       1.372   3.321  18.147  0.00  0.00    +0.000 C 
ATOM      6  C   UNL     1       2.767   2.778  17.876  0.00  0.00    +0.000 C 
ATOM      7  C   UNL     1       3.714   3.901  18.337  0.00  0.00    +0.000 C 
ENDROOT
BRANCH   7   8
ATOM      8  C   UNL     1       4.847   4.094  17.383  0.00  0.00    +0.000 A 
ATOM      9  N   UNL     1       4.808   4.122  16.068  0.00  0.00    +0.000 NA
ATOM     10  C   UNL     1       6.126   4.234  15.687  0.00  0.00    +0.000 A 
ATOM     11  N   UNL     1       6.981   4.279  16.722  0.00  0.00    +0.000 NA
ATOM     12  N   UNL     1       6.151   4.185  17.777  0.00  0.00    +0.000 N 
ATOM     13  H   UNL     1       6.520   4.182  18.725  0.00  0.00    +0.000 HD
BRANCH  10  14
ATOM     14  C   UNL     1       6.516   4.266  14.279  0.00  0.00    +0.000 A 
ATOM     15  C   UNL     1       7.490   5.177  13.839  0.00  0.00    +0.000 A 
ATOM     16  C   UNL     1       7.865   5.229  12.494  0.00  0.00    +0.000 A 
ATOM     17  C   UNL     1       7.270   4.370  11.573  0.00  0.00    +0.000 A 
ATOM     18  C   UNL     1       6.302   3.460  11.996  0.00  0.00    +0.000 A 
ATOM     19  C   UNL     1       5.927   3.407  13.341  0.00  0.00    +0.000 A 
ENDBRANCH  10  14
ENDBRANCH   7   8
BRANCH   1  22
ATOM     20  N   UNL     1       0.959   8.868  19.658  0.00  0.00    +0.000 N 
ATOM     21  C   UNL     1       1.887   8.224  18.901  0.00  0.00    +0.000 A 
ATOM     22  C   UNL     1       2.280   7.147  19.676  0.00  0.00    +0.000 A 
ATOM     23  N   UNL     1       1.583   7.189  20.859  0.00  0.00    +0.000 NA
ATOM     24  N   UNL     1       0.793   8.257  20.844  0.00  0.00    +0.000 NA
BRANCH  20  25
ATOM     25  C   UNL     1       0.216  10.076  19.333  0.00  0.00    +0.000 C 
BRANCH  25  27
ATOM     26  C   UNL     1       1.915  11.811  18.515  0.00  0.00    +0.000 C 
ATOM     27  C   UNL     1       0.980  11.367  19.632  0.00  0.00    +0.000 C 
ATOM     28  C   UNL     1       0.051  12.498  20.130  0.00  0.00    +0.000 C 
ATOM     29  O   UNL     1       0.364  12.169  21.509  0.00  0.00    +0.000 OA
ATOM     30  C   UNL     1       1.551  11.456  21.065  0.00  0.00    +0.000 C 
ENDBRANCH  25  27
ENDBRANCH  20  25
ENDBRANCH   1  22
TORSDOF 5
ENDMDL
MODEL 4
REMARK VINA RESULT:      -7.8      0.511      1.034
REMARK  Name = 
REMARK  6 active torsions:
REMARK  status: ('A' for Active; 'I' for Inactive)
REMARK    1  A    between atoms: C_1  and  C_2
REMARK    2  A    between atoms: C_2  and  C_3
REMARK    3  A    between atoms: C_3  and  N_4
REMARK    4  A    between atoms: C_6  and  C_7
REMARK    5  A    between atoms: C_13  and  C_14
REMARK    6  A    between atoms: C_16  and  C_17
REMARK                            x       y       z     vdW  Elec       q    Type
REMARK                         _______ _______ _______ _____ _____    ______ ____
ROOT
ATOM      1  C   UNL     1       3.370   5.644  19.523  0.00  0.00    +0.000 C 
ATOM      2  O   UNL     1       4.534   5.663  19.935  0.00  0.00    +0.000 OA
ATOM      3  N   UNL     1       2.979   4.682  18.603  0.00  0.00    +0.000 N 
ATOM      4  C   UNL     1       1.630   4.420  18.116  0.00  0.00    +0.000 C 
ATOM      5  C   UNL     1       1.513   2.908  18.190  0.00  0.00    +0.000 C 
ATOM      6  C   UNL     1       2.909   2.430  17.819  0.00  0.00    +0.000 C 
ATOM      7  C   UNL     1       3.847   3.527  18.353  0.00  0.00    +0.000 C 
ENDROOT
BRANCH   7   8
ATOM      8  C   UNL     1       4.938   3.841  17.383  0.00  0.00    +0.000 A 
ATOM      9  N   UNL     1       4.875   3.878  16.069  0.00  0.00    +0.000 NA
ATOM     10  C   UNL     1       6.169   4.123  15.669  0.00  0.00    +0.000 A 
ATOM     11  N   UNL     1       7.032   4.242  16.689  0.00  0.00    +0.000 NA
ATOM     12  N   UNL     1       6.234   4.056  17.756  0.00  0.00    +0.000 N 
ATOM     13  H   UNL     1       6.618   4.079  18.698  0.00  0.00    +0.000 HD
BRANCH  10  14
ATOM     14  C   UNL     1       6.529   4.208  14.255  0.00  0.00    +0.000 A 
ATOM     15  C   UNL     1       7.497   5.132  13.829  0.00  0.00    +0.000 A 
ATOM     16  C   UNL     1       7.844   5.235  12.480  0.00  0.00    +0.000 A 
ATOM     17  C   UNL     1       7.226   4.413  11.539  0.00  0.00    +0.000 A 
ATOM     18  C   UNL     1       6.264   3.490  11.947  0.00  0.00    +0.000 A 
ATOM     19  C   UNL     1       5.917   3.387  13.298  0.00  0.00    +0.000 A 
ENDBRANCH  10  14
ENDBRANCH   7   8
BRANCH   1  22
ATOM     20  N   UNL     1       1.234   8.392  20.401  0.00  0.00    +0.000 N 
ATOM     21  C   UNL     1       2.292   7.925  19.688  0.00  0.00    +0.000 A 
ATOM     22  C   UNL     1       2.391   6.592  20.050  0.00  0.00    +0.000 A 
ATOM     23  N   UNL     1       1.400   6.317  20.960  0.00  0.00    +0.000 NA
ATOM     24  N   UNL     1       0.711   7.431  21.181  0.00  0.00    +0.000 NA
BRANCH  20  25
ATOM     25  C   UNL     1       0.683   9.740  20.412  0.00  0.00    +0.000 C 
BRANCH  25  27
ATOM     26  C   UNL     1       0.888   9.411  17.879  0.00  0.00    +0.000 C 
ATOM     27  C   UNL     1       0.545  10.359  19.020  0.00  0.00    +0.000 C 
ATOM     28  C   UNL     1      -0.813  11.073  18.827  0.00  0.00    +0.000 C 
ATOM     29  O   UNL     1      -0.209  12.347  19.171  0.00  0.00    +0.000 OA
ATOM     30  C   UNL     1       1.107  11.793  18.898  0.00  0.00    +0.000 C 
ENDBRANCH  25  27
ENDBRANCH  20  25
ENDBRANCH   1  22
TORSDOF 5
ENDMDL
MODEL 5
REMARK VINA RESULT:      -7.8      1.265      1.649
REMARK  Name = 
REMARK  6 active torsions:
REMARK  status: ('A' for Active; 'I' for Inactive)
REMARK    1  A    between atoms: C_1  and  C_2
REMARK    2  A    between atoms: C_2  and  C_3
REMARK    3  A    between atoms: C_3  and  N_4
REMARK    4  A    between atoms: C_6  and  C_7
REMARK    5  A    between atoms: C_13  and  C_14
REMARK    6  A    between atoms: C_16  and  C_17
REMARK                            x       y       z     vdW  Elec       q    Type
REMARK                         _______ _______ _______ _____ _____    ______ ____
ROOT
ATOM      1  C   UNL     1       3.308   5.702  19.503  0.00  0.00    +0.000 C 
ATOM      2  O   UNL     1       4.467   5.790  19.922  0.00  0.00    +0.000 OA
ATOM      3  N   UNL     1       2.974   4.699  18.604  0.00  0.00    +0.000 N 
ATOM      4  C   UNL     1       1.644   4.357  18.115  0.00  0.00    +0.000 C 
ATOM      5  C   UNL     1       1.602   2.843  18.227  0.00  0.00    +0.000 C 
ATOM      6  C   UNL     1       3.023   2.427  17.878  0.00  0.00    +0.000 C 
ATOM      7  C   UNL     1       3.901   3.583  18.390  0.00  0.00    +0.000 C 
ENDROOT
BRANCH   7   8
ATOM      8  C   UNL     1       4.983   3.926  17.420  0.00  0.00    +0.000 A 
ATOM      9  N   UNL     1       4.924   3.943  16.106  0.00  0.00    +0.000 NA
ATOM     10  C   UNL     1       6.209   4.234  15.707  0.00  0.00    +0.000 A 
ATOM     11  N   UNL     1       7.062   4.401  16.730  0.00  0.00    +0.000 NA
ATOM     12  N   UNL     1       6.268   4.198  17.796  0.00  0.00    +0.000 N 
ATOM     13  H   UNL     1       6.646   4.250  18.739  0.00  0.00    +0.000 HD
BRANCH  10  14
ATOM     14  C   UNL     1       6.572   4.314  14.294  0.00  0.00    +0.000 A 
ATOM     15  C   UNL     1       5.963   3.458  13.361  0.00  0.00    +0.000 A 
ATOM     16  C   UNL     1       6.307   3.513  12.008  0.00  0.00    +0.000 A 
ATOM     17  C   UNL     1       7.265   4.426  11.572  0.00  0.00    +0.000 A 
ATOM     18  C   UNL     1       7.876   5.283  12.486  0.00  0.00    +0.000 A 
ATOM     19  C   UNL     1       7.532   5.228  13.840  0.00  0.00    +0.000 A 
ENDBRANCH  10  14
ENDBRANCH   7   8
BRANCH   1  22
ATOM     20  N   UNL     1       0.968   8.325  20.233  0.00  0.00    +0.000 N 
ATOM     21  C   UNL     1       2.012   7.872  19.489  0.00  0.00    +0.000 A 
ATOM     22  C   UNL     1       2.279   6.612  19.998  0.00  0.00    +0.000 A 
ATOM     23  N   UNL     1       1.397   6.364  21.020  0.00  0.00    +0.000 NA
ATOM     24  N   UNL     1       0.613   7.427  21.168  0.00  0.00    +0.000 NA
BRANCH  20  25
ATOM     25  C   UNL     1       0.281   9.604  20.132  0.00  0.00    +0.000 C 
BRANCH  25  27
ATOM     26  C   UNL     1       1.426  11.852  20.579  0.00  0.00    +0.000 C 
ATOM     27  C   UNL     1       0.736  10.630  21.171  0.00  0.00    +0.000 C 
ATOM     28  C   UNL     1      -0.387  10.993  22.169  0.00  0.00    +0.000 C 
ATOM     29  O   UNL     1       0.125  10.024  23.120  0.00  0.00    +0.000 OA
ATOM     30  C   UNL     1       1.402  10.020  22.425  0.00  0.00    +0.000 C 
ENDBRANCH  25  27
ENDBRANCH  20  25
ENDBRANCH   1  22
TORSDOF 5
ENDMDL
MODEL 6
REMARK VINA RESULT:      -7.6      0.633      1.088
REMARK  Name = 
REMARK  6 active torsions:
REMARK  status: ('A' for Active; 'I' for Inactive)
REMARK    1  A    between atoms: C_1  and  C_2
REMARK    2  A    between atoms: C_2  and  C_3
REMARK    3  A    between atoms: C_3  and  N_4
REMARK    4  A    between atoms: C_6  and  C_7
REMARK    5  A    between atoms: C_13  and  C_14
REMARK    6  A    between atoms: C_16  and  C_17
REMARK                            x       y       z     vdW  Elec       q    Type
REMARK                         _______ _______ _______ _____ _____    ______ ____
ROOT
ATOM      1  C   UNL     1       3.230   6.201  19.226  0.00  0.00    +0.000 C 
ATOM      2  O   UNL     1       4.375   6.246  19.685  0.00  0.00    +0.000 OA
ATOM      3  N   UNL     1       2.852   5.139  18.416  0.00  0.00    +0.000 N 
ATOM      4  C   UNL     1       1.518   4.849  17.904  0.00  0.00    +0.000 C 
ATOM      5  C   UNL     1       1.354   3.361  18.164  0.00  0.00    +0.000 C 
ATOM      6  C   UNL     1       2.750   2.808  17.922  0.00  0.00    +0.000 C 
ATOM      7  C   UNL     1       3.695   3.942  18.356  0.00  0.00    +0.000 C 
ENDROOT
BRANCH   7   8
ATOM      8  C   UNL     1       4.837   4.103  17.406  0.00  0.00    +0.000 A 
ATOM      9  N   UNL     1       4.800   4.175  16.093  0.00  0.00    +0.000 NA
ATOM     10  C   UNL     1       6.122   4.226  15.714  0.00  0.00    +0.000 A 
ATOM     11  N   UNL     1       6.977   4.193  16.747  0.00  0.00    +0.000 NA
ATOM     12  N   UNL     1       6.144   4.111  17.800  0.00  0.00    +0.000 N 
ATOM     13  H   UNL     1       6.513   4.057  18.747  0.00  0.00    +0.000 HD
BRANCH  10  14
ATOM     14  C   UNL     1       6.512   4.282  14.307  0.00  0.00    +0.000 A 
ATOM     15  C   UNL     1       5.921   3.412  13.376  0.00  0.00    +0.000 A 
ATOM     16  C   UNL     1       6.291   3.443  12.030  0.00  0.00    +0.000 A 
ATOM     17  C   UNL     1       7.259   4.347  11.597  0.00  0.00    +0.000 A 
ATOM     18  C   UNL     1       7.854   5.219  12.508  0.00  0.00    +0.000 A 
ATOM     19  C   UNL     1       7.483   5.187  13.856  0.00  0.00    +0.000 A 
ENDBRANCH  10  14
ENDBRANCH   7   8
BRANCH   1  22
ATOM     20  N   UNL     1       0.933   8.947  19.494  0.00  0.00    +0.000 N 
ATOM     21  C   UNL     1       1.860   8.275  18.763  0.00  0.00    +0.000 A 
ATOM     22  C   UNL     1       2.257   7.231  19.581  0.00  0.00    +0.000 A 
ATOM     23  N   UNL     1       1.562   7.321  20.762  0.00  0.00    +0.000 NA
ATOM     24  N   UNL     1       0.770   8.386  20.705  0.00  0.00    +0.000 NA
BRANCH  20  25
ATOM     25  C   UNL     1       0.186  10.140  19.122  0.00  0.00    +0.000 C 
BRANCH  25  27
ATOM     26  C   UNL     1       1.109  11.347  21.185  0.00  0.00    +0.000 C 
ATOM     27  C   UNL     1       0.760  11.432  19.705  0.00  0.00    +0.000 C 
ATOM     28  C   UNL     1       1.909  12.006  18.844  0.00  0.00    +0.000 C 
ATOM     29  O   UNL     1       0.980  12.897  18.172  0.00  0.00    +0.000 OA
ATOM     30  C   UNL     1       0.028  12.717  19.257  0.00  0.00    +0.000 C 
ENDBRANCH  25  27
ENDBRANCH  20  25
ENDBRANCH   1  22
TORSDOF 5
ENDMDL
MODEL 7
REMARK VINA RESULT:      -7.6      3.294      8.894
REMARK  Name = 
REMARK  6 active torsions:
REMARK  status: ('A' for Active; 'I' for Inactive)
REMARK    1  A    between atoms: C_1  and  C_2
REMARK    2  A    between atoms: C_2  and  C_3
REMARK    3  A    between atoms: C_3  and  N_4
REMARK    4  A    between atoms: C_6  and  C_7
REMARK    5  A    between atoms: C_13  and  C_14
REMARK    6  A    between atoms: C_16  and  C_17
REMARK                            x       y       z     vdW  Elec       q    Type
REMARK                         _______ _______ _______ _____ _____    ______ ____
ROOT
ATOM      1  C   UNL     1       1.962   8.669  18.349  0.00  0.00    +0.000 C 
ATOM      2  O   UNL     1       1.734   9.475  17.442  0.00  0.00    +0.000 OA
ATOM      3  N   UNL     1       1.451   8.895  19.619  0.00  0.00    +0.000 N 
ATOM      4  C   UNL     1       1.499   7.994  20.765  0.00  0.00    +0.000 C 
ATOM      5  C   UNL     1       0.083   8.042  21.313  0.00  0.00    +0.000 C 
ATOM      6  C   UNL     1      -0.330   9.489  21.091  0.00  0.00    +0.000 C 
ATOM      7  C   UNL     1       0.409   9.909  19.808  0.00  0.00    +0.000 C 
ENDROOT
BRANCH   7   8
ATOM      8  C   UNL     1       0.976  11.286  19.922  0.00  0.00    +0.000 A 
ATOM      9  N   UNL     1       1.160  12.172  18.967  0.00  0.00    +0.000 NA
ATOM     10  C   UNL     1       1.790  13.225  19.591  0.00  0.00    +0.000 A 
ATOM     11  N   UNL     1       2.000  13.022  20.901  0.00  0.00    +0.000 NA
ATOM     12  N   UNL     1       1.483  11.794  21.083  0.00  0.00    +0.000 N 
ATOM     13  H   UNL     1       1.507  11.354  22.001  0.00  0.00    +0.000 HD
BRANCH  10  14
ATOM     14  C   UNL     1       2.200  14.417  18.853  0.00  0.00    +0.000 A 
ATOM     15  C   UNL     1       3.393  14.411  18.111  0.00  0.00    +0.000 A 
ATOM     16  C   UNL     1       3.805  15.547  17.410  0.00  0.00    +0.000 A 
ATOM     17  C   UNL     1       3.029  16.703  17.441  0.00  0.00    +0.000 A 
ATOM     18  C   UNL     1       1.841  16.723  18.171  0.00  0.00    +0.000 A 
ATOM     19  C   UNL     1       1.428  15.587  18.874  0.00  0.00    +0.000 A 
ENDBRANCH  10  14
ENDBRANCH   7   8
BRANCH   1  22
ATOM     20  N   UNL     1       3.241   5.384  17.669  0.00  0.00    +0.000 N 
ATOM     21  C   UNL     1       2.178   6.180  17.959  0.00  0.00    +0.000 A 
ATOM     22  C   UNL     1       2.718   7.450  18.072  0.00  0.00    +0.000 A 
ATOM     23  N   UNL     1       4.071   7.365  17.851  0.00  0.00    +0.000 NA
ATOM     24  N   UNL     1       4.381   6.093  17.626  0.00  0.00    +0.000 NA
BRANCH  20  25
ATOM     25  C   UNL     1       3.251   3.945  17.450  0.00  0.00    +0.000 C 
BRANCH  25  27
ATOM     26  C   UNL     1       1.398   2.810  18.807  0.00  0.00    +0.000 C 
ATOM     27  C   UNL     1       2.882   3.131  18.692  0.00  0.00    +0.000 C 
ATOM     28  C   UNL     1       3.786   1.890  18.871  0.00  0.00    +0.000 C 
ATOM     29  O   UNL     1       4.638   2.624  19.788  0.00  0.00    +0.000 OA
ATOM     30  C   UNL     1       3.575   3.596  19.992  0.00  0.00    +0.000 C 
ENDBRANCH  25  27
ENDBRANCH  20  25
ENDBRANCH   1  22
TORSDOF 5
ENDMDL
MODEL 8
REMARK VINA RESULT:      -7.6      1.292      1.527
REMARK  Name = 
REMARK  6 active torsions:
REMARK  status: ('A' for Active; 'I' for Inactive)
REMARK    1  A    between atoms: C_1  and  C_2
REMARK    2  A    between atoms: C_2  and  C_3
REMARK    3  A    between atoms: C_3  and  N_4
REMARK    4  A    between atoms: C_6  and  C_7
REMARK    5  A    between atoms: C_13  and  C_14
REMARK    6  A    between atoms: C_16  and  C_17
REMARK                            x       y       z     vdW  Elec       q    Type
REMARK                         _______ _______ _______ _____ _____    ______ ____
ROOT
ATOM      1  C   UNL     1       3.281   6.440  19.007  0.00  0.00    +0.000 C 
ATOM      2  O   UNL     1       4.426   6.519  19.464  0.00  0.00    +0.000 OA
ATOM      3  N   UNL     1       2.902   5.317  18.286  0.00  0.00    +0.000 N 
ATOM      4  C   UNL     1       1.568   4.990  17.796  0.00  0.00    +0.000 C 
ATOM      5  C   UNL     1       1.400   3.528  18.174  0.00  0.00    +0.000 C 
ATOM      6  C   UNL     1       2.795   2.953  17.981  0.00  0.00    +0.000 C 
ATOM      7  C   UNL     1       3.742   4.117  18.324  0.00  0.00    +0.000 C 
ENDROOT
BRANCH   7   8
ATOM      8  C   UNL     1       4.886   4.198  17.366  0.00  0.00    +0.000 A 
ATOM      9  N   UNL     1       4.845   4.279  16.053  0.00  0.00    +0.000 NA
ATOM     10  C   UNL     1       6.164   4.235  15.665  0.00  0.00    +0.000 A 
ATOM     11  N   UNL     1       7.022   4.132  16.692  0.00  0.00    +0.000 NA
ATOM     12  N   UNL     1       6.193   4.106  17.750  0.00  0.00    +0.000 N 
ATOM     13  H   UNL     1       6.563   4.020  18.694  0.00  0.00    +0.000 HD
BRANCH  10  14
ATOM     14  C   UNL     1       6.548   4.269  14.255  0.00  0.00    +0.000 A 
ATOM     15  C   UNL     1       5.984   3.356  13.349  0.00  0.00    +0.000 A 
ATOM     16  C   UNL     1       6.349   3.367  12.001  0.00  0.00    +0.000 A 
ATOM     17  C   UNL     1       7.282   4.293  11.542  0.00  0.00    +0.000 A 
ATOM     18  C   UNL     1       7.849   5.208  12.428  0.00  0.00    +0.000 A 
ATOM     19  C   UNL     1       7.485   5.196  13.778  0.00  0.00    +0.000 A 
ENDBRANCH  10  14
ENDBRANCH   7   8
BRANCH   1  22
ATOM     20  N   UNL     1       0.876   8.790  20.266  0.00  0.00    +0.000 N 
ATOM     21  C   UNL     1       1.634   7.680  20.470  0.00  0.00    +0.000 A 
ATOM     22  C   UNL     1       2.311   7.498  19.276  0.00  0.00    +0.000 A 
ATOM     23  N   UNL     1       1.932   8.494  18.409  0.00  0.00    +0.000 NA
ATOM     24  N   UNL     1       1.039   9.266  19.020  0.00  0.00    +0.000 NA
BRANCH  20  25
ATOM     25  C   UNL     1      -0.041   9.435  21.194  0.00  0.00    +0.000 C 
BRANCH  25  27
ATOM     26  C   UNL     1      -1.309  10.887  19.506  0.00  0.00    +0.000 C 
ATOM     27  C   UNL     1      -0.458  10.843  20.767  0.00  0.00    +0.000 C 
ATOM     28  C   UNL     1      -1.064  11.655  21.935  0.00  0.00    +0.000 C 
ATOM     29  O   UNL     1       0.223  12.274  22.193  0.00  0.00    +0.000 OA
ATOM     30  C   UNL     1       0.667  11.899  20.860  0.00  0.00    +0.000 C 
ENDBRANCH  25  27
ENDBRANCH  20  25
ENDBRANCH   1  22
TORSDOF 5
ENDMDL
MODEL 9
REMARK VINA RESULT:      -7.5      0.744      1.439
REMARK  Name = 
REMARK  6 active torsions:
REMARK  status: ('A' for Active; 'I' for Inactive)
REMARK    1  A    between atoms: C_1  and  C_2
REMARK    2  A    between atoms: C_2  and  C_3
REMARK    3  A    between atoms: C_3  and  N_4
REMARK    4  A    between atoms: C_6  and  C_7
REMARK    5  A    between atoms: C_13  and  C_14
REMARK    6  A    between atoms: C_16  and  C_17
REMARK                            x       y       z     vdW  Elec       q    Type
REMARK                         _______ _______ _______ _____ _____    ______ ____
ROOT
ATOM      1  C   UNL     1       3.224   6.435  19.084  0.00  0.00    +0.000 C 
ATOM      2  O   UNL     1       4.366   6.509  19.550  0.00  0.00    +0.000 OA
ATOM      3  N   UNL     1       2.853   5.324  18.341  0.00  0.00    +0.000 N 
ATOM      4  C   UNL     1       1.523   5.002  17.836  0.00  0.00    +0.000 C 
ATOM      5  C   UNL     1       1.356   3.534  18.188  0.00  0.00    +0.000 C 
ATOM      6  C   UNL     1       2.754   2.966  17.995  0.00  0.00    +0.000 C 
ATOM      7  C   UNL     1       3.696   4.125  18.364  0.00  0.00    +0.000 C 
ENDROOT
BRANCH   7   8
ATOM      8  C   UNL     1       4.846   4.226  17.416  0.00  0.00    +0.000 A 
ATOM      9  N   UNL     1       4.815   4.283  16.102  0.00  0.00    +0.000 NA
ATOM     10  C   UNL     1       6.139   4.273  15.726  0.00  0.00    +0.000 A 
ATOM     11  N   UNL     1       6.990   4.214  16.763  0.00  0.00    +0.000 NA
ATOM     12  N   UNL     1       6.151   4.181  17.814  0.00  0.00    +0.000 N 
ATOM     13  H   UNL     1       6.515   4.122  18.763  0.00  0.00    +0.000 HD
BRANCH  10  14
ATOM     14  C   UNL     1       6.535   4.295  14.320  0.00  0.00    +0.000 A 
ATOM     15  C   UNL     1       7.508   5.207  13.876  0.00  0.00    +0.000 A 
ATOM     16  C   UNL     1       7.889   5.250  12.533  0.00  0.00    +0.000 A 
ATOM     17  C   UNL     1       7.302   4.380  11.616  0.00  0.00    +0.000 A 
ATOM     18  C   UNL     1       6.337   3.469  12.042  0.00  0.00    +0.000 A 
ATOM     19  C   UNL     1       5.955   3.426  13.386  0.00  0.00    +0.000 A 
ENDBRANCH  10  14
ENDBRANCH   7   8
BRANCH   1  22
ATOM     20  N   UNL     1       0.878   9.152  19.141  0.00  0.00    +0.000 N 
ATOM     21  C   UNL     1       1.775   8.406  18.444  0.00  0.00    +0.000 A 
ATOM     22  C   UNL     1       2.250   7.487  19.364  0.00  0.00    +0.000 A 
ATOM     23  N   UNL     1       1.627   7.719  20.566  0.00  0.00    +0.000 NA
ATOM     24  N   UNL     1       0.806   8.753  20.422  0.00  0.00    +0.000 NA
BRANCH  20  25
ATOM     25  C   UNL     1       0.079  10.272  18.665  0.00  0.00    +0.000 C 
BRANCH  25  27
ATOM     26  C   UNL     1      -0.470  11.604  20.784  0.00  0.00    +0.000 C 
ATOM     27  C   UNL     1       0.288  11.560  19.464  0.00  0.00    +0.000 C 
ATOM     28  C   UNL     1       1.783  11.924  19.611  0.00  0.00    +0.000 C 
ATOM     29  O   UNL     1       1.692  12.821  18.473  0.00  0.00    +0.000 OA
ATOM     30  C   UNL     1       0.246  12.852  18.618  0.00  0.00    +0.000 C 
ENDBRANCH  25  27
ENDBRANCH  20  25
ENDBRANCH   1  22
TORSDOF 5
ENDMDL
