MODEL 1
REMARK VINA RESULT:      -8.5      0.000      0.000
REMARK  Name = 
REMARK  6 active torsions:
REMARK  status: ('A' for Active; 'I' for Inactive)
REMARK    1  A    between atoms: C_1  and  C_2
REMARK    2  A    between atoms: C_2  and  C_3
REMARK    3  A    between atoms: C_5  and  N_6
REMARK    4  A    between atoms: C_7  and  C_9
REMARK    5  A    between atoms: C_9  and  C_10
REMARK    6  A    between atoms: N_13  and  C_14
REMARK                            x       y       z     vdW  Elec       q    Type
REMARK                         _______ _______ _______ _____ _____    ______ ____
ROOT
ATOM      1  N   UNL     1       4.392   4.153  16.965  0.00  0.00    +0.000 N 
ATOM      2  C   UNL     1       3.508   3.205  17.434  0.00  0.00    +0.000 C 
ATOM      3  O   UNL     1       3.827   2.039  17.656  0.00  0.00    +0.000 OA
ATOM      4  H   UNL     1       4.047   5.073  16.720  0.00  0.00    +0.000 HD
ENDROOT
BRANCH   1   9
ATOM      5  C   UNL     1       7.802   6.816  18.249  0.00  0.00    +0.000 C 
ATOM      6  C   UNL     1       6.880   6.101  17.249  0.00  0.00    +0.000 C 
ATOM      7  C   UNL     1       5.583   6.923  17.141  0.00  0.00    +0.000 C 
ATOM      8  C   UNL     1       6.695   4.655  17.726  0.00  0.00    +0.000 C 
ATOM      9  C   UNL     1       5.805   3.862  16.770  0.00  0.00    +0.000 C 
ATOM     10  C   UNL     1       6.232   4.142  15.348  0.00  0.00    +0.000 A 
ATOM     11  C   UNL     1       5.788   3.306  14.304  0.00  0.00    +0.000 A 
ATOM     12  C   UNL     1       6.210   3.538  12.992  0.00  0.00    +0.000 A 
ATOM     13  C   UNL     1       7.069   4.595  12.724  0.00  0.00    +0.000 A 
ATOM     14  F   UNL     1       7.481   4.805  11.465  0.00  0.00    +0.000 F 
ATOM     15  C   UNL     1       7.507   5.436  13.737  0.00  0.00    +0.000 A 
ATOM     16  C   UNL     1       7.074   5.220  15.045  0.00  0.00    +0.000 A 
ATOM     17  O   UNL     1       7.546   6.114  15.973  0.00  0.00    +0.000 OA
ENDBRANCH   1   9
BRANCH   2  18
ATOM     18  C   UNL     1       2.104   3.715  17.674  0.00  0.00    +0.000 C 
BRANCH  18  19
ATOM     19  C   UNL     1       2.114   4.876  18.599  0.00  0.00    +0.000 A 
ATOM     20  C   UNL     1       2.552   4.905  19.938  0.00  0.00    +0.000 A 
ATOM     21  C   UNL     1       2.428   6.216  20.319  0.00  0.00    +0.000 A 
ATOM     22  N   UNL     1       1.961   6.916  19.228  0.00  0.00    +0.000 N 
ATOM     23  N   UNL     1       1.703   6.080  18.185  0.00  0.00    +0.000 NA
BRANCH  22  24
ATOM     24  C   UNL     1       1.782   8.323  19.108  0.00  0.00    +0.000 A 
ATOM     25  C   UNL     1       2.238   9.010  17.974  0.00  0.00    +0.000 A 
ATOM     26  C   UNL     1       2.020  10.385  17.855  0.00  0.00    +0.000 A 
ATOM     27  C   UNL     1       1.358  11.081  18.864  0.00  0.00    +0.000 A 
ATOM     28  C   UNL     1       0.909  10.405  19.998  0.00  0.00    +0.000 A 
ATOM     29  C   UNL     1       1.116   9.028  20.120  0.00  0.00    +0.000 A 
ENDBRANCH  22  24
ENDBRANCH  18  19
ENDBRANCH   2  18
TORSDOF 4
ENDMDL
MODEL 2
REMARK VINA RESULT:      -8.3      3.415      5.586
REMARK  Name = 
REMARK  6 active torsions:
REMARK  status: ('A' for Active; 'I' for Inactive)
REMARK    1  A    between atoms: C_1  and  C_2
REMARK    2  A    between atoms: C_2  and  C_3
REMARK    3  A    between atoms: C_5  and  N_6
REMARK    4  A    between atoms: C_7  and  C_9
REMARK    5  A    between atoms: C_9  and  C_10
REMARK    6  A    between atoms: N_13  and  C_14
REMARK                            x       y       z     vdW  Elec       q    Type
REMARK                         _______ _______ _______ _____ _____    ______ ____
ROOT
ATOM      1  N   UNL     1       2.242   7.014  18.844  0.00  0.00    +0.000 N 
ATOM      2  C   UNL     1       2.009   8.342  18.562  0.00  0.00    +0.000 C 
ATOM      3  O   UNL     1       2.148   8.826  17.441  0.00  0.00    +0.000 OA
ATOM      4  H   UNL     1       2.193   6.696  19.805  0.00  0.00    +0.000 HD
ENDROOT
BRANCH   1   9
ATOM      5  C   UNL     1       1.440   2.576  19.017  0.00  0.00    +0.000 C 
ATOM      6  C   UNL     1       2.304   3.846  19.006  0.00  0.00    +0.000 C 
ATOM      7  C   UNL     1       2.275   4.441  20.426  0.00  0.00    +0.000 C 
ATOM      8  C   UNL     1       1.774   4.771  17.904  0.00  0.00    +0.000 C 
ATOM      9  C   UNL     1       2.598   6.054  17.809  0.00  0.00    +0.000 C 
ATOM     10  C   UNL     1       4.067   5.707  17.865  0.00  0.00    +0.000 A 
ATOM     11  C   UNL     1       5.030   6.662  17.485  0.00  0.00    +0.000 A 
ATOM     12  C   UNL     1       6.388   6.333  17.499  0.00  0.00    +0.000 A 
ATOM     13  C   UNL     1       6.783   5.060  17.888  0.00  0.00    +0.000 A 
ATOM     14  F   UNL     1       8.086   4.746  17.887  0.00  0.00    +0.000 F 
ATOM     15  C   UNL     1       5.850   4.110  18.278  0.00  0.00    +0.000 A 
ATOM     16  C   UNL     1       4.494   4.439  18.283  0.00  0.00    +0.000 A 
ATOM     17  O   UNL     1       3.651   3.440  18.700  0.00  0.00    +0.000 OA
ENDBRANCH   1   9
BRANCH   2  18
ATOM     18  C   UNL     1       1.548   9.168  19.744  0.00  0.00    +0.000 C 
BRANCH  18  19
ATOM     19  C   UNL     1       0.669  10.279  19.301  0.00  0.00    +0.000 A 
ATOM     20  C   UNL     1       1.020  11.631  19.117  0.00  0.00    +0.000 A 
ATOM     21  C   UNL     1      -0.116  12.225  18.631  0.00  0.00    +0.000 A 
ATOM     22  N   UNL     1      -1.074  11.241  18.517  0.00  0.00    +0.000 N 
ATOM     23  N   UNL     1      -0.613  10.052  18.992  0.00  0.00    +0.000 NA
BRANCH  22  24
ATOM     24  C   UNL     1      -2.377  11.356  17.954  0.00  0.00    +0.000 A 
ATOM     25  C   UNL     1      -2.608  11.037  16.609  0.00  0.00    +0.000 A 
ATOM     26  C   UNL     1      -3.900  11.118  16.083  0.00  0.00    +0.000 A 
ATOM     27  C   UNL     1      -4.961  11.525  16.888  0.00  0.00    +0.000 A 
ATOM     28  C   UNL     1      -4.737  11.850  18.226  0.00  0.00    +0.000 A 
ATOM     29  C   UNL     1      -3.449  11.763  18.761  0.00  0.00    +0.000 A 
ENDBRANCH  22  24
ENDBRANCH  18  19
ENDBRANCH   2  18
TORSDOF 4
ENDMDL
MODEL 3
REMARK VINA RESULT:      -8.2      3.795      5.740
REMARK  Name = 
REMARK  6 active torsions:
REMARK  status: ('A' for Active; 'I' for Inactive)
REMARK    1  A    between atoms: C_1  and  C_2
REMARK    2  A    between atoms: C_2  and  C_3
REMARK    3  A    between atoms: C_5  and  N_6
REMARK    4  A    between atoms: C_7  and  C_9
REMARK    5  A    between atoms: C_9  and  C_10
REMARK    6  A    between atoms: N_13  and  C_14
REMARK                            x       y       z     vdW  Elec       q    Type
REMARK                         _______ _______ _______ _____ _____    ______ ____
ROOT
ATOM      1  N   UNL     1       3.168   6.967  18.355  0.00  0.00    +0.000 N 
ATOM      2  C   UNL     1       2.327   7.968  18.791  0.00  0.00    +0.000 C 
ATOM      3  O   UNL     1       1.861   8.007  19.927  0.00  0.00    +0.000 OA
ATOM      4  H   UNL     1       3.448   6.946  17.382  0.00  0.00    +0.000 HD
ENDROOT
BRANCH   1   9
ATOM      5  C   UNL     1       6.860   4.459  17.691  0.00  0.00    +0.000 C 
ATOM      6  C   UNL     1       5.353   4.734  17.802  0.00  0.00    +0.000 C 
ATOM      7  C   UNL     1       4.894   5.357  16.471  0.00  0.00    +0.000 C 
ATOM      8  C   UNL     1       5.121   5.608  19.041  0.00  0.00    +0.000 C 
ATOM      9  C   UNL     1       3.636   5.911  19.239  0.00  0.00    +0.000 C 
ATOM     10  C   UNL     1       2.841   4.641  19.048  0.00  0.00    +0.000 A 
ATOM     11  C   UNL     1       1.502   4.579  19.480  0.00  0.00    +0.000 A 
ATOM     12  C   UNL     1       0.772   3.396  19.340  0.00  0.00    +0.000 A 
ATOM     13  C   UNL     1       1.376   2.281  18.773  0.00  0.00    +0.000 A 
ATOM     14  F   UNL     1       0.676   1.144  18.652  0.00  0.00    +0.000 F 
ATOM     15  C   UNL     1       2.690   2.326  18.330  0.00  0.00    +0.000 A 
ATOM     16  C   UNL     1       3.416   3.511  18.452  0.00  0.00    +0.000 A 
ATOM     17  O   UNL     1       4.701   3.463  17.970  0.00  0.00    +0.000 OA
ENDBRANCH   1   9
BRANCH   2  18
ATOM     18  C   UNL     1       2.030   9.037  17.762  0.00  0.00    +0.000 C 
BRANCH  18  19
ATOM     19  C   UNL     1       0.957   9.945  18.237  0.00  0.00    +0.000 A 
ATOM     20  C   UNL     1       1.078  11.023  19.135  0.00  0.00    +0.000 A 
ATOM     21  C   UNL     1      -0.173  11.582  19.183  0.00  0.00    +0.000 A 
ATOM     22  N   UNL     1      -0.974  10.865  18.321  0.00  0.00    +0.000 N 
ATOM     23  N   UNL     1      -0.296   9.812  17.786  0.00  0.00    +0.000 NA
BRANCH  22  24
ATOM     24  C   UNL     1      -2.321  11.139  17.952  0.00  0.00    +0.000 A 
ATOM     25  C   UNL     1      -2.786  10.844  16.662  0.00  0.00    +0.000 A 
ATOM     26  C   UNL     1      -4.122  11.084  16.328  0.00  0.00    +0.000 A 
ATOM     27  C   UNL     1      -4.994  11.626  17.270  0.00  0.00    +0.000 A 
ATOM     28  C   UNL     1      -4.536  11.928  18.552  0.00  0.00    +0.000 A 
ATOM     29  C   UNL     1      -3.204  11.682  18.896  0.00  0.00    +0.000 A 
ENDBRANCH  22  24
ENDBRANCH  18  19
ENDBRANCH   2  18
TORSDOF 4
ENDMDL
MODEL 4
REMARK VINA RESULT:      -8.0      3.678      5.782
REMARK  Name = 
REMARK  6 active torsions:
REMARK  status: ('A' for Active; 'I' for Inactive)
REMARK    1  A    between atoms: C_1  and  C_2
REMARK    2  A    between atoms: C_2  and  C_3
REMARK    3  A    between atoms: C_5  and  N_6
REMARK    4  A    between atoms: C_7  and  C_9
REMARK    5  A    between atoms: C_9  and  C_10
REMARK    6  A    between atoms: N_13  and  C_14
REMARK                            x       y       z     vdW  Elec       q    Type
REMARK                         _______ _______ _______ _____ _____    ______ ____
ROOT
ATOM      1  N   UNL     1       3.100   6.960  18.346  0.00  0.00    +0.000 N 
ATOM      2  C   UNL     1       2.259   7.962  18.778  0.00  0.00    +0.000 C 
ATOM      3  O   UNL     1       1.859   8.050  19.937  0.00  0.00    +0.000 OA
ATOM      4  H   UNL     1       3.324   6.894  17.360  0.00  0.00    +0.000 HD
ENDROOT
BRANCH   1   9
ATOM      5  C   UNL     1       6.896   4.617  17.660  0.00  0.00    +0.000 C 
ATOM      6  C   UNL     1       5.380   4.820  17.809  0.00  0.00    +0.000 C 
ATOM      7  C   UNL     1       4.850   5.365  16.471  0.00  0.00    +0.000 C 
ATOM      8  C   UNL     1       5.141   5.730  19.020  0.00  0.00    +0.000 C 
ATOM      9  C   UNL     1       3.649   5.965  19.255  0.00  0.00    +0.000 C 
ATOM     10  C   UNL     1       2.915   4.650  19.138  0.00  0.00    +0.000 A 
ATOM     11  C   UNL     1       1.595   4.538  19.615  0.00  0.00    +0.000 A 
ATOM     12  C   UNL     1       0.924   3.314  19.543  0.00  0.00    +0.000 A 
ATOM     13  C   UNL     1       1.567   2.210  19.001  0.00  0.00    +0.000 A 
ATOM     14  F   UNL     1       0.924   1.034  18.946  0.00  0.00    +0.000 F 
ATOM     15  C   UNL     1       2.863   2.304  18.514  0.00  0.00    +0.000 A 
ATOM     16  C   UNL     1       3.530   3.527  18.567  0.00  0.00    +0.000 A 
ATOM     17  O   UNL     1       4.800   3.525  18.046  0.00  0.00    +0.000 OA
ENDBRANCH   1   9
BRANCH   2  18
ATOM     18  C   UNL     1       1.872   8.966  17.715  0.00  0.00    +0.000 C 
BRANCH  18  19
ATOM     19  C   UNL     1       1.067  10.069  18.296  0.00  0.00    +0.000 A 
ATOM     20  C   UNL     1       1.530  11.307  18.784  0.00  0.00    +0.000 A 
ATOM     21  C   UNL     1       0.395  11.992  19.134  0.00  0.00    +0.000 A 
ATOM     22  N   UNL     1      -0.679  11.184  18.832  0.00  0.00    +0.000 N 
ATOM     23  N   UNL     1      -0.265   9.970  18.376  0.00  0.00    +0.000 NA
BRANCH  22  24
ATOM     24  C   UNL     1      -2.063  11.508  18.916  0.00  0.00    +0.000 A 
ATOM     25  C   UNL     1      -2.548  12.320  19.950  0.00  0.00    +0.000 A 
ATOM     26  C   UNL     1      -3.903  12.660  19.996  0.00  0.00    +0.000 A 
ATOM     27  C   UNL     1      -4.778  12.187  19.022  0.00  0.00    +0.000 A 
ATOM     28  C   UNL     1      -4.303  11.373  17.994  0.00  0.00    +0.000 A 
ATOM     29  C   UNL     1      -2.949  11.036  17.936  0.00  0.00    +0.000 A 
ENDBRANCH  22  24
ENDBRANCH  18  19
ENDBRANCH   2  18
TORSDOF 4
ENDMDL
MODEL 5
REMARK VINA RESULT:      -7.9      1.116      1.761
REMARK  Name = 
REMARK  6 active torsions:
REMARK  status: ('A' for Active; 'I' for Inactive)
REMARK    1  A    between atoms: C_1  and  C_2
REMARK    2  A    between atoms: C_2  and  C_3
REMARK    3  A    between atoms: C_5  and  N_6
REMARK    4  A    between atoms: C_7  and  C_9
REMARK    5  A    between atoms: C_9  and  C_10
REMARK    6  A    between atoms: N_13  and  C_14
REMARK                            x       y       z     vdW  Elec       q    Type
REMARK                         _______ _______ _______ _____ _____    ______ ____
ROOT
ATOM      1  N   UNL     1       4.325   4.372  16.979  0.00  0.00    +0.000 N 
ATOM      2  C   UNL     1       3.668   4.243  18.183  0.00  0.00    +0.000 C 
ATOM      3  O   UNL     1       4.182   3.739  19.179  0.00  0.00    +0.000 OA
ATOM      4  H   UNL     1       3.817   4.717  16.174  0.00  0.00    +0.000 HD
ENDROOT
BRANCH   1   9
ATOM      5  C   UNL     1       7.877   6.849  18.250  0.00  0.00    +0.000 C 
ATOM      6  C   UNL     1       6.926   6.167  17.254  0.00  0.00    +0.000 C 
ATOM      7  C   UNL     1       5.685   7.065  17.105  0.00  0.00    +0.000 C 
ATOM      8  C   UNL     1       6.643   4.749  17.764  0.00  0.00    +0.000 C 
ATOM      9  C   UNL     1       5.719   3.988  16.814  0.00  0.00    +0.000 C 
ATOM     10  C   UNL     1       6.183   4.203  15.393  0.00  0.00    +0.000 A 
ATOM     11  C   UNL     1       5.703   3.371  14.363  0.00  0.00    +0.000 A 
ATOM     12  C   UNL     1       6.157   3.541  13.053  0.00  0.00    +0.000 A 
ATOM     13  C   UNL     1       7.085   4.534  12.772  0.00  0.00    +0.000 A 
ATOM     14  F   UNL     1       7.528   4.686  11.515  0.00  0.00    +0.000 F 
ATOM     15  C   UNL     1       7.560   5.373  13.770  0.00  0.00    +0.000 A 
ATOM     16  C   UNL     1       7.096   5.219  15.076  0.00  0.00    +0.000 A 
ATOM     17  O   UNL     1       7.610   6.105  15.989  0.00  0.00    +0.000 OA
ENDBRANCH   1   9
BRANCH   2  18
ATOM     18  C   UNL     1       2.257   4.789  18.196  0.00  0.00    +0.000 C 
BRANCH  18  19
ATOM     19  C   UNL     1       2.255   6.243  18.491  0.00  0.00    +0.000 A 
ATOM     20  C   UNL     1       2.755   7.285  17.685  0.00  0.00    +0.000 A 
ATOM     21  C   UNL     1       2.445   8.435  18.366  0.00  0.00    +0.000 A 
ATOM     22  N   UNL     1       1.768   8.064  19.507  0.00  0.00    +0.000 N 
ATOM     23  N   UNL     1       1.708   6.708  19.621  0.00  0.00    +0.000 NA
BRANCH  22  24
ATOM     24  C   UNL     1       1.150   8.913  20.468  0.00  0.00    +0.000 A 
ATOM     25  C   UNL     1       0.522  10.103  20.075  0.00  0.00    +0.000 A 
ATOM     26  C   UNL     1      -0.114  10.906  21.026  0.00  0.00    +0.000 A 
ATOM     27  C   UNL     1      -0.117  10.534  22.368  0.00  0.00    +0.000 A 
ATOM     28  C   UNL     1       0.513   9.355  22.767  0.00  0.00    +0.000 A 
ATOM     29  C   UNL     1       1.142   8.542  21.820  0.00  0.00    +0.000 A 
ENDBRANCH  22  24
ENDBRANCH  18  19
ENDBRANCH   2  18
TORSDOF 4
ENDMDL
MODEL 6
REMARK VINA RESULT:      -7.8      4.472      8.883
REMARK  Name = 
REMARK  6 active torsions:
REMARK  status: ('A' for Active; 'I' for Inactive)
REMARK    1  A    between atoms: C_1  and  C_2
REMARK    2  A    between atoms: C_2  and  C_3
REMARK    3  A    between atoms: C_5  and  N_6
REMARK    4  A    between atoms: C_7  and  C_9
REMARK    5  A    between atoms: C_9  and  C_10
REMARK    6  A    between atoms: N_13  and  C_14
REMARK                            x       y       z     vdW  Elec       q    Type
REMARK                         _______ _______ _______ _____ _____    ______ ____
ROOT
ATOM      1  N   UNL     1       0.861   9.569  19.220  0.00  0.00    +0.000 N 
ATOM      2  C   UNL     1       1.744   8.676  18.653  0.00  0.00    +0.000 C 
ATOM      3  O   UNL     1       2.179   8.795  17.510  0.00  0.00    +0.000 OA
ATOM      4  H   UNL     1       0.474   9.368  20.135  0.00  0.00    +0.000 HD
ENDROOT
BRANCH   1   9
ATOM      5  C   UNL     1       0.255  13.601  21.155  0.00  0.00    +0.000 C 
ATOM      6  C   UNL     1      -0.173  12.303  20.454  0.00  0.00    +0.000 C 
ATOM      7  C   UNL     1      -0.230  11.195  21.520  0.00  0.00    +0.000 C 
ATOM      8  C   UNL     1       0.802  12.044  19.299  0.00  0.00    +0.000 C 
ATOM      9  C   UNL     1       0.432  10.776  18.530  0.00  0.00    +0.000 C 
ATOM     10  C   UNL     1      -1.058  10.765  18.280  0.00  0.00    +0.000 A 
ATOM     11  C   UNL     1      -1.604   9.880  17.331  0.00  0.00    +0.000 A 
ATOM     12  C   UNL     1      -2.977   9.891  17.068  0.00  0.00    +0.000 A 
ATOM     13  C   UNL     1      -3.798  10.781  17.746  0.00  0.00    +0.000 A 
ATOM     14  F   UNL     1      -5.112  10.798  17.482  0.00  0.00    +0.000 F 
ATOM     15  C   UNL     1      -3.280  11.653  18.694  0.00  0.00    +0.000 A 
ATOM     16  C   UNL     1      -1.914  11.633  18.973  0.00  0.00    +0.000 A 
ATOM     17  O   UNL     1      -1.499  12.518  19.936  0.00  0.00    +0.000 OA
ENDBRANCH   1   9
BRANCH   2  18
ATOM     18  C   UNL     1       2.158   7.536  19.557  0.00  0.00    +0.000 C 
BRANCH  18  19
ATOM     19  C   UNL     1       2.618   6.370  18.762  0.00  0.00    +0.000 A 
ATOM     20  C   UNL     1       1.893   5.203  18.448  0.00  0.00    +0.000 A 
ATOM     21  C   UNL     1       2.728   4.480  17.635  0.00  0.00    +0.000 A 
ATOM     22  N   UNL     1       3.878   5.221  17.469  0.00  0.00    +0.000 N 
ATOM     23  N   UNL     1       3.840   6.357  18.217  0.00  0.00    +0.000 NA
BRANCH  22  24
ATOM     24  C   UNL     1       4.985   4.931  16.622  0.00  0.00    +0.000 A 
ATOM     25  C   UNL     1       4.786   4.532  15.293  0.00  0.00    +0.000 A 
ATOM     26  C   UNL     1       5.884   4.289  14.463  0.00  0.00    +0.000 A 
ATOM     27  C   UNL     1       7.179   4.433  14.955  0.00  0.00    +0.000 A 
ATOM     28  C   UNL     1       7.384   4.823  16.277  0.00  0.00    +0.000 A 
ATOM     29  C   UNL     1       6.291   5.076  17.110  0.00  0.00    +0.000 A 
ENDBRANCH  22  24
ENDBRANCH  18  19
ENDBRANCH   2  18
TORSDOF 4
ENDMDL
MODEL 7
REMARK VINA RESULT:      -7.8      3.184      5.568
REMARK  Name = 
REMARK  6 active torsions:
REMARK  status: ('A' for Active; 'I' for Inactive)
REMARK    1  A    between atoms: C_1  and  C_2
REMARK    2  A    between atoms: C_2  and  C_3
REMARK    3  A    between atoms: C_5  and  N_6
REMARK    4  A    between atoms: C_7  and  C_9
REMARK    5  A    between atoms: C_9  and  C_10
REMARK    6  A    between atoms: N_13  and  C_14
REMARK                            x       y       z     vdW  Elec       q    Type
REMARK                         _______ _______ _______ _____ _____    ______ ____
ROOT
ATOM      1  N   UNL     1       2.218   7.000  18.824  0.00  0.00    +0.000 N 
ATOM      2  C   UNL     1       1.969   8.320  18.514  0.00  0.00    +0.000 C 
ATOM      3  O   UNL     1       2.109   8.783  17.385  0.00  0.00    +0.000 OA
ATOM      4  H   UNL     1       2.167   6.701  19.790  0.00  0.00    +0.000 HD
ENDROOT
BRANCH   1   9
ATOM      5  C   UNL     1       1.441   2.561  19.062  0.00  0.00    +0.000 C 
ATOM      6  C   UNL     1       2.298   3.836  19.041  0.00  0.00    +0.000 C 
ATOM      7  C   UNL     1       2.247   4.455  20.449  0.00  0.00    +0.000 C 
ATOM      8  C   UNL     1       1.776   4.739  17.916  0.00  0.00    +0.000 C 
ATOM      9  C   UNL     1       2.593   6.026  17.810  0.00  0.00    +0.000 C 
ATOM     10  C   UNL     1       4.063   5.688  17.891  0.00  0.00    +0.000 A 
ATOM     11  C   UNL     1       5.026   6.643  17.507  0.00  0.00    +0.000 A 
ATOM     12  C   UNL     1       6.386   6.323  17.543  0.00  0.00    +0.000 A 
ATOM     13  C   UNL     1       6.783   5.060  17.959  0.00  0.00    +0.000 A 
ATOM     14  F   UNL     1       8.088   4.754  17.980  0.00  0.00    +0.000 F 
ATOM     15  C   UNL     1       5.850   4.110  18.353  0.00  0.00    +0.000 A 
ATOM     16  C   UNL     1       4.493   4.430  18.335  0.00  0.00    +0.000 A 
ATOM     17  O   UNL     1       3.650   3.433  18.759  0.00  0.00    +0.000 OA
ENDBRANCH   1   9
BRANCH   2  18
ATOM     18  C   UNL     1       1.490   9.162  19.676  0.00  0.00    +0.000 C 
BRANCH  18  19
ATOM     19  C   UNL     1       0.792  10.380  19.195  0.00  0.00    +0.000 A 
ATOM     20  C   UNL     1      -0.558  10.503  18.812  0.00  0.00    +0.000 A 
ATOM     21  C   UNL     1      -0.722  11.834  18.526  0.00  0.00    +0.000 A 
ATOM     22  N   UNL     1       0.486  12.454  18.763  0.00  0.00    +0.000 N 
ATOM     23  N   UNL     1       1.440  11.548  19.112  0.00  0.00    +0.000 NA
BRANCH  22  24
ATOM     24  C   UNL     1       0.774  13.847  18.713  0.00  0.00    +0.000 A 
ATOM     25  C   UNL     1       2.085  14.302  18.507  0.00  0.00    +0.000 A 
ATOM     26  C   UNL     1       2.345  15.672  18.422  0.00  0.00    +0.000 A 
ATOM     27  C   UNL     1       1.307  16.592  18.550  0.00  0.00    +0.000 A 
ATOM     28  C   UNL     1       0.002  16.147  18.762  0.00  0.00    +0.000 A 
ATOM     29  C   UNL     1      -0.267  14.778  18.839  0.00  0.00    +0.000 A 
ENDBRANCH  22  24
ENDBRANCH  18  19
ENDBRANCH   2  18
TORSDOF 4
ENDMDL
MODEL 8
REMARK VINA RESULT:      -7.8      4.442      8.866
REMARK  Name = 
REMARK  6 active torsions:
REMARK  status: ('A' for Active; 'I' for Inactive)
REMARK    1  A    between atoms: C_1  and  C_2
REMARK    2  A    between atoms: C_2  and  C_3
REMARK    3  A    between atoms: C_5  and  N_6
REMARK    4  A    between atoms: C_7  and  C_9
REMARK    5  A    between atoms: C_9  and  C_10
REMARK    6  A    between atoms: N_13  and  C_14
REMARK                            x       y       z     vdW  Elec       q    Type
REMARK                         _______ _______ _______ _____ _____    ______ ____
ROOT
ATOM      1  N   UNL     1       0.820   9.576  19.700  0.00  0.00    +0.000 N 
ATOM      2  C   UNL     1       1.642   8.591  19.198  0.00  0.00    +0.000 C 
ATOM      3  O   UNL     1       2.103   8.616  18.059  0.00  0.00    +0.000 OA
ATOM      4  H   UNL     1       0.404   9.454  20.615  0.00  0.00    +0.000 HD
ENDROOT
BRANCH   1   9
ATOM      5  C   UNL     1       0.065  13.661  21.465  0.00  0.00    +0.000 C 
ATOM      6  C   UNL     1      -0.302  12.353  20.746  0.00  0.00    +0.000 C 
ATOM      7  C   UNL     1      -0.502  11.271  21.822  0.00  0.00    +0.000 C 
ATOM      8  C   UNL     1       0.796  12.053  19.719  0.00  0.00    +0.000 C 
ATOM      9  C   UNL     1       0.495  10.774  18.939  0.00  0.00    +0.000 C 
ATOM     10  C   UNL     1      -0.956  10.780  18.517  0.00  0.00    +0.000 A 
ATOM     11  C   UNL     1      -1.404   9.880  17.530  0.00  0.00    +0.000 A 
ATOM     12  C   UNL     1      -2.736   9.907  17.109  0.00  0.00    +0.000 A 
ATOM     13  C   UNL     1      -3.615  10.824  17.669  0.00  0.00    +0.000 A 
ATOM     14  F   UNL     1      -4.889  10.855  17.252  0.00  0.00    +0.000 F 
ATOM     15  C   UNL     1      -3.195  11.710  18.651  0.00  0.00    +0.000 A 
ATOM     16  C   UNL     1      -1.871  11.675  19.087  0.00  0.00    +0.000 A 
ATOM     17  O   UNL     1      -1.555  12.576  20.074  0.00  0.00    +0.000 OA
ENDBRANCH   1   9
BRANCH   2  18
ATOM     18  C   UNL     1       1.953   7.472  20.168  0.00  0.00    +0.000 C 
BRANCH  18  19
ATOM     19  C   UNL     1       2.494   6.289  19.456  0.00  0.00    +0.000 A 
ATOM     20  C   UNL     1       1.840   5.069  19.194  0.00  0.00    +0.000 A 
ATOM     21  C   UNL     1       2.733   4.345  18.447  0.00  0.00    +0.000 A 
ATOM     22  N   UNL     1       3.848   5.134  18.266  0.00  0.00    +0.000 N 
ATOM     23  N   UNL     1       3.730   6.309  18.943  0.00  0.00    +0.000 NA
BRANCH  22  24
ATOM     24  C   UNL     1       4.991   4.855  17.465  0.00  0.00    +0.000 A 
ATOM     25  C   UNL     1       6.282   4.925  18.009  0.00  0.00    +0.000 A 
ATOM     26  C   UNL     1       7.391   4.611  17.220  0.00  0.00    +0.000 A 
ATOM     27  C   UNL     1       7.222   4.236  15.889  0.00  0.00    +0.000 A 
ATOM     28  C   UNL     1       5.942   4.172  15.340  0.00  0.00    +0.000 A 
ATOM     29  C   UNL     1       4.827   4.476  16.125  0.00  0.00    +0.000 A 
ENDBRANCH  22  24
ENDBRANCH  18  19
ENDBRANCH   2  18
TORSDOF 4
ENDMDL
MODEL 9
REMARK VINA RESULT:      -7.7      2.241      3.068
REMARK  Name = 
REMARK  6 active torsions:
REMARK  status: ('A' for Active; 'I' for Inactive)
REMARK    1  A    between atoms: C_1  and  C_2
REMARK    2  A    between atoms: C_2  and  C_3
REMARK    3  A    between atoms: C_5  and  N_6
REMARK    4  A    between atoms: C_7  and  C_9
REMARK    5  A    between atoms: C_9  and  C_10
REMARK    6  A    between atoms: N_13  and  C_14
REMARK                            x       y       z     vdW  Elec       q    Type
REMARK                         _______ _______ _______ _____ _____    ______ ____
ROOT
ATOM      1  N   UNL     1       4.259   6.577  17.834  0.00  0.00    +0.000 N 
ATOM      2  C   UNL     1       2.893   6.739  17.919  0.00  0.00    +0.000 C 
ATOM      3  O   UNL     1       2.105   5.797  17.946  0.00  0.00    +0.000 OA
ATOM      4  H   UNL     1       4.848   7.395  17.729  0.00  0.00    +0.000 HD
ENDROOT
BRANCH   1   9
ATOM      5  C   UNL     1       8.377   5.670  19.443  0.00  0.00    +0.000 C 
ATOM      6  C   UNL     1       7.296   5.827  18.362  0.00  0.00    +0.000 C 
ATOM      7  C   UNL     1       7.178   7.327  18.036  0.00  0.00    +0.000 C 
ATOM      8  C   UNL     1       6.010   5.172  18.879  0.00  0.00    +0.000 C 
ATOM      9  C   UNL     1       4.884   5.263  17.850  0.00  0.00    +0.000 C 
ATOM     10  C   UNL     1       5.426   4.897  16.489  0.00  0.00    +0.000 A 
ATOM     11  C   UNL     1       4.539   4.598  15.436  0.00  0.00    +0.000 A 
ATOM     12  C   UNL     1       5.034   4.222  14.185  0.00  0.00    +0.000 A 
ATOM     13  C   UNL     1       6.406   4.142  13.986  0.00  0.00    +0.000 A 
ATOM     14  F   UNL     1       6.877   3.768  12.787  0.00  0.00    +0.000 F 
ATOM     15  C   UNL     1       7.296   4.444  15.007  0.00  0.00    +0.000 A 
ATOM     16  C   UNL     1       6.807   4.838  16.252  0.00  0.00    +0.000 A 
ATOM     17  O   UNL     1       7.763   5.133  17.191  0.00  0.00    +0.000 OA
ENDBRANCH   1   9
BRANCH   2  18
ATOM     18  C   UNL     1       2.431   8.178  17.994  0.00  0.00    +0.000 C 
BRANCH  18  19
ATOM     19  C   UNL     1       1.703   8.434  19.261  0.00  0.00    +0.000 A 
ATOM     20  C   UNL     1       1.825   7.736  20.479  0.00  0.00    +0.000 A 
ATOM     21  C   UNL     1       1.005   8.405  21.351  0.00  0.00    +0.000 A 
ATOM     22  N   UNL     1       0.455   9.465  20.662  0.00  0.00    +0.000 N 
ATOM     23  N   UNL     1       0.832   9.446  19.354  0.00  0.00    +0.000 NA
BRANCH  22  24
ATOM     24  C   UNL     1      -0.371  10.504  21.177  0.00  0.00    +0.000 A 
ATOM     25  C   UNL     1      -0.989  11.422  20.317  0.00  0.00    +0.000 A 
ATOM     26  C   UNL     1      -1.827  12.412  20.836  0.00  0.00    +0.000 A 
ATOM     27  C   UNL     1      -2.045  12.498  22.209  0.00  0.00    +0.000 A 
ATOM     28  C   UNL     1      -1.427  11.592  23.071  0.00  0.00    +0.000 A 
ATOM     29  C   UNL     1      -0.595  10.594  22.558  0.00  0.00    +0.000 A 
ENDBRANCH  22  24
ENDBRANCH  18  19
ENDBRANCH   2  18
TORSDOF 4
ENDMDL
