MODEL 1
REMARK VINA RESULT:      -8.6      0.000      0.000
REMARK  Name = 
REMARK  3 active torsions:
REMARK  status: ('A' for Active; 'I' for Inactive)
REMARK    1  A    between atoms: C_2  and  C_3
REMARK    2  A    between atoms: C_6  and  C_7
REMARK    3  A    between atoms: C_7  and  N_8
REMARK                            x       y       z     vdW  Elec       q    Type
REMARK                         _______ _______ _______ _____ _____    ______ ____
ROOT
ATOM      1  C   UNL     1       2.540   6.508  18.572  0.00  0.00    +0.000 A 
ATOM      2  C   UNL     1       2.621   7.604  17.712  0.00  0.00    +0.000 A 
ATOM      3  C   UNL     1       2.109   8.831  18.133  0.00  0.00    +0.000 A 
ATOM      4  C   UNL     1       1.473   8.947  19.382  0.00  0.00    +0.000 A 
ATOM      5  C   UNL     1       1.595   7.898  20.304  0.00  0.00    +0.000 A 
ATOM      6  C   UNL     1       2.182   6.695  19.913  0.00  0.00    +0.000 A 
ENDROOT
BRANCH   1   8
ATOM      7  O   UNL     1       1.648   4.433  17.949  0.00  0.00    +0.000 OA
ATOM      8  C   UNL     1       2.656   5.138  18.018  0.00  0.00    +0.000 C 
ATOM      9  N   UNL     1       3.904   4.718  17.574  0.00  0.00    +0.000 N 
ATOM     10  C   UNL     1       4.091   3.536  16.722  0.00  0.00    +0.000 C 
ATOM     11  C   UNL     1       5.407   3.820  15.994  0.00  0.00    +0.000 C 
ATOM     12  C   UNL     1       6.131   4.494  17.120  0.00  0.00    +0.000 A 
ATOM     13  C   UNL     1       7.485   4.532  17.383  0.00  0.00    +0.000 A 
ATOM     14  C   UNL     1       7.920   5.212  18.516  0.00  0.00    +0.000 A 
ATOM     15  C   UNL     1       7.000   5.880  19.334  0.00  0.00    +0.000 A 
ATOM     16  C   UNL     1       5.630   5.819  19.077  0.00  0.00    +0.000 A 
ATOM     17  C   UNL     1       5.206   5.101  17.975  0.00  0.00    +0.000 A 
ENDBRANCH   1   8
BRANCH   4  18
ATOM     18  C   UNL     1       0.456  10.052  19.627  0.00  0.00    +0.000 C 
BRANCH  18  19
ATOM     19  N   UNL     1       1.110  11.193  20.263  0.00  0.00    +0.000 N 
ATOM     20  N   UNL     1       0.809  11.494  21.542  0.00  0.00    +0.000 NA
ATOM     21  N   UNL     1       1.005  12.807  21.688  0.00  0.00    +0.000 NA
ATOM     22  C   UNL     1       1.444  13.315  20.496  0.00  0.00    +0.000 A 
ATOM     23  C   UNL     1       1.613  14.639  20.067  0.00  0.00    +0.000 A 
ATOM     24  C   UNL     1       2.105  14.849  18.770  0.00  0.00    +0.000 A 
ATOM     25  C   UNL     1       2.484  13.772  17.963  0.00  0.00    +0.000 A 
ATOM     26  C   UNL     1       2.290  12.448  18.375  0.00  0.00    +0.000 A 
ATOM     27  C   UNL     1       1.704  12.264  19.627  0.00  0.00    +0.000 A 
ENDBRANCH  18  19
ENDBRANCH   4  18
TORSDOF 3
ENDMDL
MODEL 2
REMARK VINA RESULT:      -8.3      1.657      1.967
REMARK  Name = 
REMARK  3 active torsions:
REMARK  status: ('A' for Active; 'I' for Inactive)
REMARK    1  A    between atoms: C_2  and  C_3
REMARK    2  A    between atoms: C_6  and  C_7
REMARK    3  A    between atoms: C_7  and  N_8
REMARK                            x       y       z     vdW  Elec       q    Type
REMARK                         _______ _______ _______ _____ _____    ______ ____
ROOT
ATOM      1  C   UNL     1       2.462   5.781  19.103  0.00  0.00    +0.000 A 
ATOM      2  C   UNL     1       2.540   7.120  18.716  0.00  0.00    +0.000 A 
ATOM      3  C   UNL     1       1.975   8.094  19.539  0.00  0.00    +0.000 A 
ATOM      4  C   UNL     1       1.290   7.727  20.711  0.00  0.00    +0.000 A 
ATOM      5  C   UNL     1       1.411   6.412  21.182  0.00  0.00    +0.000 A 
ATOM      6  C   UNL     1       2.050   5.450  20.399  0.00  0.00    +0.000 A 
ENDROOT
BRANCH   1   8
ATOM      7  O   UNL     1       1.686   3.994  17.802  0.00  0.00    +0.000 OA
ATOM      8  C   UNL     1       2.641   4.718  18.085  0.00  0.00    +0.000 C 
ATOM      9  N   UNL     1       3.883   4.604  17.474  0.00  0.00    +0.000 N 
ATOM     10  C   UNL     1       4.099   3.829  16.244  0.00  0.00    +0.000 C 
ATOM     11  C   UNL     1       5.338   4.477  15.622  0.00  0.00    +0.000 C 
ATOM     12  C   UNL     1       6.085   4.767  16.888  0.00  0.00    +0.000 A 
ATOM     13  C   UNL     1       7.447   4.835  17.097  0.00  0.00    +0.000 A 
ATOM     14  C   UNL     1       7.907   5.102  18.383  0.00  0.00    +0.000 A 
ATOM     15  C   UNL     1       6.998   5.342  19.420  0.00  0.00    +0.000 A 
ATOM     16  C   UNL     1       5.621   5.250  19.209  0.00  0.00    +0.000 A 
ATOM     17  C   UNL     1       5.178   4.938  17.938  0.00  0.00    +0.000 A 
ENDBRANCH   1   8
BRANCH   4  18
ATOM     18  C   UNL     1       0.231   8.645  21.302  0.00  0.00    +0.000 C 
BRANCH  18  19
ATOM     19  N   UNL     1       0.460  10.016  20.855  0.00  0.00    +0.000 N 
ATOM     20  N   UNL     1       1.040  10.894  21.697  0.00  0.00    +0.000 NA
ATOM     21  N   UNL     1       0.603  12.108  21.354  0.00  0.00    +0.000 NA
ATOM     22  C   UNL     1      -0.240  11.979  20.284  0.00  0.00    +0.000 A 
ATOM     23  C   UNL     1      -1.097  12.904  19.671  0.00  0.00    +0.000 A 
ATOM     24  C   UNL     1      -1.839  12.475  18.561  0.00  0.00    +0.000 A 
ATOM     25  C   UNL     1      -1.671  11.187  18.041  0.00  0.00    +0.000 A 
ATOM     26  C   UNL     1      -0.841  10.250  18.667  0.00  0.00    +0.000 A 
ATOM     27  C   UNL     1      -0.192  10.669  19.828  0.00  0.00    +0.000 A 
ENDBRANCH  18  19
ENDBRANCH   4  18
TORSDOF 3
ENDMDL
MODEL 3
REMARK VINA RESULT:      -8.3      1.872      2.437
REMARK  Name = 
REMARK  3 active torsions:
REMARK  status: ('A' for Active; 'I' for Inactive)
REMARK    1  A    between atoms: C_2  and  C_3
REMARK    2  A    between atoms: C_6  and  C_7
REMARK    3  A    between atoms: C_7  and  N_8
REMARK                            x       y       z     vdW  Elec       q    Type
REMARK                         _______ _______ _______ _____ _____    ______ ____
ROOT
ATOM      1  C   UNL     1       2.550   6.193  18.695  0.00  0.00    +0.000 A 
ATOM      2  C   UNL     1       2.518   7.462  18.115  0.00  0.00    +0.000 A 
ATOM      3  C   UNL     1       1.973   8.522  18.841  0.00  0.00    +0.000 A 
ATOM      4  C   UNL     1       1.416   8.302  20.113  0.00  0.00    +0.000 A 
ATOM      5  C   UNL     1       1.653   7.077  20.753  0.00  0.00    +0.000 A 
ATOM      6  C   UNL     1       2.273   6.039  20.059  0.00  0.00    +0.000 A 
ENDROOT
BRANCH   1   8
ATOM      7  O   UNL     1       1.705   4.320  17.570  0.00  0.00    +0.000 OA
ATOM      8  C   UNL     1       2.698   5.001  17.827  0.00  0.00    +0.000 C 
ATOM      9  N   UNL     1       3.960   4.719  17.318  0.00  0.00    +0.000 N 
ATOM     10  C   UNL     1       4.180   3.781  16.207  0.00  0.00    +0.000 C 
ATOM     11  C   UNL     1       5.502   4.252  15.595  0.00  0.00    +0.000 C 
ATOM     12  C   UNL     1       6.197   4.642  16.864  0.00  0.00    +0.000 A 
ATOM     13  C   UNL     1       7.546   4.633  17.154  0.00  0.00    +0.000 A 
ATOM     14  C   UNL     1       7.952   5.023  18.426  0.00  0.00    +0.000 A 
ATOM     15  C   UNL     1       7.008   5.459  19.364  0.00  0.00    +0.000 A 
ATOM     16  C   UNL     1       5.644   5.444  19.074  0.00  0.00    +0.000 A 
ATOM     17  C   UNL     1       5.249   5.010  17.824  0.00  0.00    +0.000 A 
ENDBRANCH   1   8
BRANCH   4  18
ATOM     18  C   UNL     1       0.364   9.251  20.666  0.00  0.00    +0.000 C 
BRANCH  18  19
ATOM     19  N   UNL     1       0.201  10.389  19.766  0.00  0.00    +0.000 N 
ATOM     20  N   UNL     1       0.644  11.601  20.152  0.00  0.00    +0.000 NA
ATOM     21  N   UNL     1      -0.110  12.508  19.526  0.00  0.00    +0.000 NA
ATOM     22  C   UNL     1      -1.014  11.850  18.736  0.00  0.00    +0.000 A 
ATOM     23  C   UNL     1      -2.133  12.316  18.032  0.00  0.00    +0.000 A 
ATOM     24  C   UNL     1      -2.871  11.388  17.284  0.00  0.00    +0.000 A 
ATOM     25  C   UNL     1      -2.457  10.055  17.186  0.00  0.00    +0.000 A 
ATOM     26  C   UNL     1      -1.359   9.577  17.910  0.00  0.00    +0.000 A 
ATOM     27  C   UNL     1      -0.703  10.497  18.727  0.00  0.00    +0.000 A 
ENDBRANCH  18  19
ENDBRANCH   4  18
TORSDOF 3
ENDMDL
MODEL 4
REMARK VINA RESULT:      -8.2      1.896      8.405
REMARK  Name = 
REMARK  3 active torsions:
REMARK  status: ('A' for Active; 'I' for Inactive)
REMARK    1  A    between atoms: C_2  and  C_3
REMARK    2  A    between atoms: C_6  and  C_7
REMARK    3  A    between atoms: C_7  and  N_8
REMARK                            x       y       z     vdW  Elec       q    Type
REMARK                         _______ _______ _______ _____ _____    ______ ____
ROOT
ATOM      1  C   UNL     1       0.757   9.666  18.868  0.00  0.00    +0.000 A 
ATOM      2  C   UNL     1       0.970   9.237  20.179  0.00  0.00    +0.000 A 
ATOM      3  C   UNL     1       1.785   8.127  20.403  0.00  0.00    +0.000 A 
ATOM      4  C   UNL     1       2.338   7.420  19.321  0.00  0.00    +0.000 A 
ATOM      5  C   UNL     1       2.287   7.992  18.042  0.00  0.00    +0.000 A 
ATOM      6  C   UNL     1       1.540   9.150  17.828  0.00  0.00    +0.000 A 
ENDROOT
BRANCH   1   8
ATOM      7  O   UNL     1      -1.437  10.005  18.123  0.00  0.00    +0.000 OA
ATOM      8  C   UNL     1      -0.412  10.524  18.564  0.00  0.00    +0.000 C 
ATOM      9  N   UNL     1      -0.303  11.886  18.817  0.00  0.00    +0.000 N 
ATOM     10  C   UNL     1      -1.466  12.783  18.870  0.00  0.00    +0.000 C 
ATOM     11  C   UNL     1      -0.993  13.935  19.759  0.00  0.00    +0.000 C 
ATOM     12  C   UNL     1       0.428  13.999  19.287  0.00  0.00    +0.000 A 
ATOM     13  C   UNL     1       1.276  15.085  19.228  0.00  0.00    +0.000 A 
ATOM     14  C   UNL     1       2.559  14.896  18.725  0.00  0.00    +0.000 A 
ATOM     15  C   UNL     1       2.983  13.619  18.337  0.00  0.00    +0.000 A 
ATOM     16  C   UNL     1       2.114  12.528  18.376  0.00  0.00    +0.000 A 
ATOM     17  C   UNL     1       0.827  12.738  18.834  0.00  0.00    +0.000 A 
ENDBRANCH   1   8
BRANCH   4  18
ATOM     18  C   UNL     1       2.736   5.961  19.479  0.00  0.00    +0.000 C 
BRANCH  18  19
ATOM     19  N   UNL     1       3.050   5.390  18.173  0.00  0.00    +0.000 N 
ATOM     20  N   UNL     1       2.273   4.405  17.682  0.00  0.00    +0.000 NA
ATOM     21  N   UNL     1       3.041   3.671  16.872  0.00  0.00    +0.000 NA
ATOM     22  C   UNL     1       4.296   4.217  16.852  0.00  0.00    +0.000 A 
ATOM     23  C   UNL     1       5.501   3.736  16.321  0.00  0.00    +0.000 A 
ATOM     24  C   UNL     1       6.640   4.544  16.443  0.00  0.00    +0.000 A 
ATOM     25  C   UNL     1       6.556   5.821  17.009  0.00  0.00    +0.000 A 
ATOM     26  C   UNL     1       5.363   6.294  17.567  0.00  0.00    +0.000 A 
ATOM     27  C   UNL     1       4.269   5.431  17.526  0.00  0.00    +0.000 A 
ENDBRANCH  18  19
ENDBRANCH   4  18
TORSDOF 3
ENDMDL
MODEL 5
REMARK VINA RESULT:      -8.0      2.662      4.091
REMARK  Name = 
REMARK  3 active torsions:
REMARK  status: ('A' for Active; 'I' for Inactive)
REMARK    1  A    between atoms: C_2  and  C_3
REMARK    2  A    between atoms: C_6  and  C_7
REMARK    3  A    between atoms: C_7  and  N_8
REMARK                            x       y       z     vdW  Elec       q    Type
REMARK                         _______ _______ _______ _____ _____    ______ ____
ROOT
ATOM      1  C   UNL     1       2.771   7.362  18.395  0.00  0.00    +0.000 A 
ATOM      2  C   UNL     1       2.343   7.377  19.724  0.00  0.00    +0.000 A 
ATOM      3  C   UNL     1       1.560   8.442  20.169  0.00  0.00    +0.000 A 
ATOM      4  C   UNL     1       1.252   9.509  19.307  0.00  0.00    +0.000 A 
ATOM      5  C   UNL     1       1.509   9.367  17.936  0.00  0.00    +0.000 A 
ATOM      6  C   UNL     1       2.221   8.261  17.473  0.00  0.00    +0.000 A 
ENDROOT
BRANCH   1   8
ATOM      7  O   UNL     1       4.874   7.039  17.417  0.00  0.00    +0.000 OA
ATOM      8  C   UNL     1       3.930   6.521  18.013  0.00  0.00    +0.000 C 
ATOM      9  N   UNL     1       3.907   5.179  18.372  0.00  0.00    +0.000 N 
ATOM     10  C   UNL     1       5.104   4.327  18.348  0.00  0.00    +0.000 C 
ATOM     11  C   UNL     1       4.786   3.229  19.366  0.00  0.00    +0.000 C 
ATOM     12  C   UNL     1       3.323   3.085  19.074  0.00  0.00    +0.000 A 
ATOM     13  C   UNL     1       2.519   1.971  19.194  0.00  0.00    +0.000 A 
ATOM     14  C   UNL     1       1.179   2.081  18.837  0.00  0.00    +0.000 A 
ATOM     15  C   UNL     1       0.661   3.311  18.414  0.00  0.00    +0.000 A 
ATOM     16  C   UNL     1       1.483   4.429  18.272  0.00  0.00    +0.000 A 
ATOM     17  C   UNL     1       2.822   4.295  18.585  0.00  0.00    +0.000 A 
ENDBRANCH   1   8
BRANCH   4  18
ATOM     18  C   UNL     1       0.908  10.879  19.872  0.00  0.00    +0.000 C 
BRANCH  18  19
ATOM     19  N   UNL     1      -0.542  11.043  19.923  0.00  0.00    +0.000 N 
ATOM     20  N   UNL     1      -1.222  11.239  18.776  0.00  0.00    +0.000 NA
ATOM     21  N   UNL     1      -2.317  11.936  19.089  0.00  0.00    +0.000 NA
ATOM     22  C   UNL     1      -2.320  12.157  20.439  0.00  0.00    +0.000 A 
ATOM     23  C   UNL     1      -3.129  12.980  21.236  0.00  0.00    +0.000 A 
ATOM     24  C   UNL     1      -2.899  12.984  22.619  0.00  0.00    +0.000 A 
ATOM     25  C   UNL     1      -1.943  12.136  23.189  0.00  0.00    +0.000 A 
ATOM     26  C   UNL     1      -1.114  11.334  22.397  0.00  0.00    +0.000 A 
ATOM     27  C   UNL     1      -1.292  11.425  21.017  0.00  0.00    +0.000 A 
ENDBRANCH  18  19
ENDBRANCH   4  18
TORSDOF 3
ENDMDL
MODEL 6
REMARK VINA RESULT:      -8.0      2.498      8.566
REMARK  Name = 
REMARK  3 active torsions:
REMARK  status: ('A' for Active; 'I' for Inactive)
REMARK    1  A    between atoms: C_2  and  C_3
REMARK    2  A    between atoms: C_6  and  C_7
REMARK    3  A    between atoms: C_7  and  N_8
REMARK                            x       y       z     vdW  Elec       q    Type
REMARK                         _______ _______ _______ _____ _____    ______ ____
ROOT
ATOM      1  C   UNL     1       1.079   9.176  19.958  0.00  0.00    +0.000 A 
ATOM      2  C   UNL     1       1.622   8.925  18.697  0.00  0.00    +0.000 A 
ATOM      3  C   UNL     1       2.292   7.721  18.477  0.00  0.00    +0.000 A 
ATOM      4  C   UNL     1       2.465   6.801  19.526  0.00  0.00    +0.000 A 
ATOM      5  C   UNL     1       1.733   6.978  20.709  0.00  0.00    +0.000 A 
ATOM      6  C   UNL     1       0.992   8.144  20.900  0.00  0.00    +0.000 A 
ENDROOT
BRANCH   1   8
ATOM      7  O   UNL     1       1.286  11.036  21.366  0.00  0.00    +0.000 OA
ATOM      8  C   UNL     1       0.767  10.570  20.352  0.00  0.00    +0.000 C 
ATOM      9  N   UNL     1      -0.086  11.302  19.534  0.00  0.00    +0.000 N 
ATOM     10  C   UNL     1      -0.217  12.763  19.625  0.00  0.00    +0.000 C 
ATOM     11  C   UNL     1      -0.696  13.169  18.229  0.00  0.00    +0.000 C 
ATOM     12  C   UNL     1      -1.589  11.996  17.961  0.00  0.00    +0.000 A 
ATOM     13  C   UNL     1      -2.728  11.930  17.185  0.00  0.00    +0.000 A 
ATOM     14  C   UNL     1      -3.407  10.718  17.107  0.00  0.00    +0.000 A 
ATOM     15  C   UNL     1      -2.907   9.587  17.765  0.00  0.00    +0.000 A 
ATOM     16  C   UNL     1      -1.767   9.664  18.566  0.00  0.00    +0.000 A 
ATOM     17  C   UNL     1      -1.129  10.885  18.674  0.00  0.00    +0.000 A 
ENDBRANCH   1   8
BRANCH   4  18
ATOM     18  C   UNL     1       3.609   5.800  19.490  0.00  0.00    +0.000 C 
BRANCH  18  19
ATOM     19  N   UNL     1       3.730   5.235  18.149  0.00  0.00    +0.000 N 
ATOM     20  N   UNL     1       2.975   4.171  17.814  0.00  0.00    +0.000 NA
ATOM     21  N   UNL     1       3.648   3.497  16.877  0.00  0.00    +0.000 NA
ATOM     22  C   UNL     1       4.817   4.159  16.622  0.00  0.00    +0.000 A 
ATOM     23  C   UNL     1       5.944   3.784  15.878  0.00  0.00    +0.000 A 
ATOM     24  C   UNL     1       7.002   4.700  15.783  0.00  0.00    +0.000 A 
ATOM     25  C   UNL     1       6.901   5.974  16.352  0.00  0.00    +0.000 A 
ATOM     26  C   UNL     1       5.792   6.343  17.121  0.00  0.00    +0.000 A 
ATOM     27  C   UNL     1       4.799   5.379  17.286  0.00  0.00    +0.000 A 
ENDBRANCH  18  19
ENDBRANCH   4  18
TORSDOF 3
ENDMDL
MODEL 7
REMARK VINA RESULT:      -8.0      2.835      8.786
REMARK  Name = 
REMARK  3 active torsions:
REMARK  status: ('A' for Active; 'I' for Inactive)
REMARK    1  A    between atoms: C_2  and  C_3
REMARK    2  A    between atoms: C_6  and  C_7
REMARK    3  A    between atoms: C_7  and  N_8
REMARK                            x       y       z     vdW  Elec       q    Type
REMARK                         _______ _______ _______ _____ _____    ______ ____
ROOT
ATOM      1  C   UNL     1       1.255   9.237  19.599  0.00  0.00    +0.000 A 
ATOM      2  C   UNL     1       1.732   9.094  18.296  0.00  0.00    +0.000 A 
ATOM      3  C   UNL     1       2.466   7.955  17.966  0.00  0.00    +0.000 A 
ATOM      4  C   UNL     1       2.766   6.993  18.946  0.00  0.00    +0.000 A 
ATOM      5  C   UNL     1       2.101   7.052  20.179  0.00  0.00    +0.000 A 
ATOM      6  C   UNL     1       1.298   8.151  20.483  0.00  0.00    +0.000 A 
ENDROOT
BRANCH   1   8
ATOM      7  O   UNL     1       1.420  11.024  21.104  0.00  0.00    +0.000 OA
ATOM      8  C   UNL     1       0.875  10.582  20.092  0.00  0.00    +0.000 C 
ATOM      9  N   UNL     1      -0.069  11.299  19.367  0.00  0.00    +0.000 N 
ATOM     10  C   UNL     1      -0.289  12.740  19.552  0.00  0.00    +0.000 C 
ATOM     11  C   UNL     1      -0.873  13.190  18.211  0.00  0.00    +0.000 C 
ATOM     12  C   UNL     1      -1.702  11.976  17.921  0.00  0.00    +0.000 A 
ATOM     13  C   UNL     1      -2.877  11.876  17.205  0.00  0.00    +0.000 A 
ATOM     14  C   UNL     1      -3.478  10.627  17.090  0.00  0.00    +0.000 A 
ATOM     15  C   UNL     1      -2.868   9.498  17.651  0.00  0.00    +0.000 A 
ATOM     16  C   UNL     1      -1.692   9.607  18.394  0.00  0.00    +0.000 A 
ATOM     17  C   UNL     1      -1.130  10.860  18.540  0.00  0.00    +0.000 A 
ENDBRANCH   1   8
BRANCH   4  18
ATOM     18  C   UNL     1       3.971   6.079  18.784  0.00  0.00    +0.000 C 
BRANCH  18  19
ATOM     19  N   UNL     1       3.527   4.733  18.433  0.00  0.00    +0.000 N 
ATOM     20  N   UNL     1       3.432   4.389  17.134  0.00  0.00    +0.000 NA
ATOM     21  N   UNL     1       2.491   3.445  17.049  0.00  0.00    +0.000 NA
ATOM     22  C   UNL     1       2.014   3.194  18.307  0.00  0.00    +0.000 A 
ATOM     23  C   UNL     1       0.912   2.444  18.741  0.00  0.00    +0.000 A 
ATOM     24  C   UNL     1       0.682   2.356  20.122  0.00  0.00    +0.000 A 
ATOM     25  C   UNL     1       1.568   2.937  21.035  0.00  0.00    +0.000 A 
ATOM     26  C   UNL     1       2.653   3.711  20.608  0.00  0.00    +0.000 A 
ATOM     27  C   UNL     1       2.802   3.869  19.230  0.00  0.00    +0.000 A 
ENDBRANCH  18  19
ENDBRANCH   4  18
TORSDOF 3
ENDMDL
MODEL 8
REMARK VINA RESULT:      -7.9      2.763      8.892
REMARK  Name = 
REMARK  3 active torsions:
REMARK  status: ('A' for Active; 'I' for Inactive)
REMARK    1  A    between atoms: C_2  and  C_3
REMARK    2  A    between atoms: C_6  and  C_7
REMARK    3  A    between atoms: C_7  and  N_8
REMARK                            x       y       z     vdW  Elec       q    Type
REMARK                         _______ _______ _______ _____ _____    ______ ____
ROOT
ATOM      1  C   UNL     1       1.129   9.349  19.604  0.00  0.00    +0.000 A 
ATOM      2  C   UNL     1       1.475   9.494  18.260  0.00  0.00    +0.000 A 
ATOM      3  C   UNL     1       2.286   8.529  17.663  0.00  0.00    +0.000 A 
ATOM      4  C   UNL     1       2.791   7.457  18.419  0.00  0.00    +0.000 A 
ATOM      5  C   UNL     1       2.261   7.220  19.695  0.00  0.00    +0.000 A 
ATOM      6  C   UNL     1       1.383   8.141  20.265  0.00  0.00    +0.000 A 
ENDROOT
BRANCH   1   8
ATOM      7  O   UNL     1       1.227  10.819  21.425  0.00  0.00    +0.000 OA
ATOM      8  C   UNL     1       0.665  10.531  20.368  0.00  0.00    +0.000 C 
ATOM      9  N   UNL     1      -0.376  11.282  19.836  0.00  0.00    +0.000 N 
ATOM     10  C   UNL     1      -0.709  12.633  20.311  0.00  0.00    +0.000 C 
ATOM     11  C   UNL     1      -1.404  13.277  19.109  0.00  0.00    +0.000 C 
ATOM     12  C   UNL     1      -2.140  12.068  18.616  0.00  0.00    +0.000 A 
ATOM     13  C   UNL     1      -3.341  11.998  17.941  0.00  0.00    +0.000 A 
ATOM     14  C   UNL     1      -3.839  10.743  17.605  0.00  0.00    +0.000 A 
ATOM     15  C   UNL     1      -3.105   9.590  17.907  0.00  0.00    +0.000 A 
ATOM     16  C   UNL     1      -1.902   9.664  18.611  0.00  0.00    +0.000 A 
ATOM     17  C   UNL     1      -1.441  10.913  18.980  0.00  0.00    +0.000 A 
ENDBRANCH   1   8
BRANCH   4  18
ATOM     18  C   UNL     1       4.062   6.742  17.986  0.00  0.00    +0.000 C 
BRANCH  18  19
ATOM     19  N   UNL     1       4.213   5.502  18.741  0.00  0.00    +0.000 N 
ATOM     20  N   UNL     1       5.402   5.218  19.308  0.00  0.00    +0.000 NA
ATOM     21  N   UNL     1       5.491   3.887  19.381  0.00  0.00    +0.000 NA
ATOM     22  C   UNL     1       4.341   3.348  18.870  0.00  0.00    +0.000 A 
ATOM     23  C   UNL     1       4.010   2.025  18.548  0.00  0.00    +0.000 A 
ATOM     24  C   UNL     1       2.724   1.774  18.047  0.00  0.00    +0.000 A 
ATOM     25  C   UNL     1       1.781   2.803  17.945  0.00  0.00    +0.000 A 
ATOM     26  C   UNL     1       2.115   4.130  18.237  0.00  0.00    +0.000 A 
ATOM     27  C   UNL     1       3.430   4.369  18.635  0.00  0.00    +0.000 A 
ENDBRANCH  18  19
ENDBRANCH   4  18
TORSDOF 3
ENDMDL
MODEL 9
REMARK VINA RESULT:      -7.8      1.592      2.926
REMARK  Name = 
REMARK  3 active torsions:
REMARK  status: ('A' for Active; 'I' for Inactive)
REMARK    1  A    between atoms: C_2  and  C_3
REMARK    2  A    between atoms: C_6  and  C_7
REMARK    3  A    between atoms: C_7  and  N_8
REMARK                            x       y       z     vdW  Elec       q    Type
REMARK                         _______ _______ _______ _____ _____    ______ ____
ROOT
ATOM      1  C   UNL     1       2.498   7.673  18.437  0.00  0.00    +0.000 A 
ATOM      2  C   UNL     1       2.169   7.787  19.789  0.00  0.00    +0.000 A 
ATOM      3  C   UNL     1       1.216   8.729  20.175  0.00  0.00    +0.000 A 
ATOM      4  C   UNL     1       0.636   9.587  19.224  0.00  0.00    +0.000 A 
ATOM      5  C   UNL     1       0.820   9.310  17.862  0.00  0.00    +0.000 A 
ATOM      6  C   UNL     1       1.712   8.312  17.470  0.00  0.00    +0.000 A 
ENDROOT
BRANCH   1   8
ATOM      7  O   UNL     1       4.641   7.707  17.493  0.00  0.00    +0.000 OA
ATOM      8  C   UNL     1       3.776   7.031  18.050  0.00  0.00    +0.000 C 
ATOM      9  N   UNL     1       3.951   5.688  18.361  0.00  0.00    +0.000 N 
ATOM     10  C   UNL     1       5.263   5.027  18.332  0.00  0.00    +0.000 C 
ATOM     11  C   UNL     1       5.098   3.856  19.304  0.00  0.00    +0.000 C 
ATOM     12  C   UNL     1       3.679   3.505  18.976  0.00  0.00    +0.000 A 
ATOM     13  C   UNL     1       3.050   2.279  19.040  0.00  0.00    +0.000 A 
ATOM     14  C   UNL     1       1.714   2.200  18.659  0.00  0.00    +0.000 A 
ATOM     15  C   UNL     1       1.023   3.354  18.269  0.00  0.00    +0.000 A 
ATOM     16  C   UNL     1       1.670   4.587  18.184  0.00  0.00    +0.000 A 
ATOM     17  C   UNL     1       3.008   4.644  18.520  0.00  0.00    +0.000 A 
ENDBRANCH   1   8
BRANCH   4  18
ATOM     18  C   UNL     1       0.056  10.927  19.650  0.00  0.00    +0.000 C 
BRANCH  18  19
ATOM     19  N   UNL     1       1.117  11.780  20.178  0.00  0.00    +0.000 N 
ATOM     20  N   UNL     1       1.083  12.146  21.474  0.00  0.00    +0.000 NA
ATOM     21  N   UNL     1       1.715  13.319  21.563  0.00  0.00    +0.000 NA
ATOM     22  C   UNL     1       2.156  13.670  20.316  0.00  0.00    +0.000 A 
ATOM     23  C   UNL     1       2.701  14.869  19.836  0.00  0.00    +0.000 A 
ATOM     24  C   UNL     1       3.082  14.922  18.487  0.00  0.00    +0.000 A 
ATOM     25  C   UNL     1       2.988  13.790  17.670  0.00  0.00    +0.000 A 
ATOM     26  C   UNL     1       2.418  12.600  18.136  0.00  0.00    +0.000 A 
ATOM     27  C   UNL     1       1.953  12.603  19.450  0.00  0.00    +0.000 A 
ENDBRANCH  18  19
ENDBRANCH   4  18
TORSDOF 3
ENDMDL
