MODEL 1
REMARK VINA RESULT:      -8.8      0.000      0.000
REMARK  Name = 
REMARK  7 active torsions:
REMARK  status: ('A' for Active; 'I' for Inactive)
REMARK    1  A    between atoms: C_1  and  C_2
REMARK    2  A    between atoms: C_2  and  C_3
REMARK    3  A    between atoms: C_2  and  N_13
REMARK    4  A    between atoms: C_7  and  C_8
REMARK    5  A    between atoms: N_13  and  C_14
REMARK    6  A    between atoms: N_13  and  S_15
REMARK    7  A    between atoms: S_15  and  C_18
REMARK                            x       y       z     vdW  Elec       q    Type
REMARK                         _______ _______ _______ _____ _____    ______ ____
ROOT
ATOM      1  S   UNL     1       3.236   5.493  19.545  0.00  0.00    +0.000 S 
ATOM      2  O   UNL     1       2.437   4.894  20.590  0.00  0.00    +0.000 OA
ATOM      3  O   UNL     1       4.630   5.782  19.786  0.00  0.00    +0.000 OA
ENDROOT
BRANCH   1   4
ATOM      4  C   UNL     1       2.463   7.054  19.184  0.00  0.00    +0.000 A 
ATOM      5  C   UNL     1       2.659   7.667  17.946  0.00  0.00    +0.000 A 
ATOM      6  C   UNL     1       2.192   8.965  17.724  0.00  0.00    +0.000 A 
ATOM      7  C   UNL     1       1.432   9.596  18.704  0.00  0.00    +0.000 A 
ATOM      8  N   UNL     1       0.932  10.894  18.479  0.00  0.00    +0.000 N 
ATOM      9  C   UNL     1      -0.306  11.181  19.006  0.00  0.00    +0.000 A 
ATOM     10  O   UNL     1      -1.104  11.918  18.439  0.00  0.00    +0.000 OA
ATOM     11  N   UNL     1      -0.588  10.597  20.211  0.00  0.00    +0.000 N 
ATOM     12  C   UNL     1       0.072   9.512  20.739  0.00  0.00    +0.000 A 
ATOM     13  O   UNL     1      -0.271   8.975  21.790  0.00  0.00    +0.000 OA
ATOM     14  C   UNL     1       1.138   8.941  19.888  0.00  0.00    +0.000 A 
ATOM     15  C   UNL     1       1.741   7.717  20.165  0.00  0.00    +0.000 A 
ATOM     16  H   UNL     1       1.574  11.545  18.934  0.00  0.00    +0.000 HD
ATOM     17  H   UNL     1      -1.484  10.831  20.613  0.00  0.00    +0.000 HD
ENDBRANCH   1   4
BRANCH   1  18
ATOM     18  N   UNL     1       3.157   4.565  18.083  0.00  0.00    +0.000 NA
ATOM     19  C   UNL     1       1.779   4.083  17.796  0.00  0.00    +0.000 C 
BRANCH  18  21
ATOM     20  C   UNL     1       3.684   2.203  17.316  0.00  0.00    +0.000 C 
ATOM     21  C   UNL     1       4.244   3.558  17.774  0.00  0.00    +0.000 C 
BRANCH  21  22
ATOM     22  C   UNL     1       5.258   3.974  16.713  0.00  0.00    +0.000 A 
ATOM     23  C   UNL     1       6.370   4.755  17.071  0.00  0.00    +0.000 A 
ATOM     24  C   UNL     1       7.250   5.232  16.101  0.00  0.00    +0.000 A 
ATOM     25  C   UNL     1       7.064   4.890  14.763  0.00  0.00    +0.000 A 
ATOM     26  C   UNL     1       6.010   4.046  14.388  0.00  0.00    +0.000 A 
ATOM     27  C   UNL     1       5.120   3.586  15.373  0.00  0.00    +0.000 A 
BRANCH  26  28
ATOM     28  C   UNL     1       5.811   3.635  12.950  0.00  0.00    +0.000 C 
ATOM     29  F   UNL     1       4.568   3.928  12.471  0.00  0.00    +0.000 F 
ATOM     30  F   UNL     1       6.683   4.264  12.111  0.00  0.00    +0.000 F 
ATOM     31  F   UNL     1       5.986   2.303  12.739  0.00  0.00    +0.000 F 
ENDBRANCH  26  28
ENDBRANCH  21  22
ENDBRANCH  18  21
ENDBRANCH   1  18
TORSDOF 5
ENDMDL
MODEL 2
REMARK VINA RESULT:      -8.8      4.155      5.536
REMARK  Name = 
REMARK  7 active torsions:
REMARK  status: ('A' for Active; 'I' for Inactive)
REMARK    1  A    between atoms: C_1  and  C_2
REMARK    2  A    between atoms: C_2  and  C_3
REMARK    3  A    between atoms: C_2  and  N_13
REMARK    4  A    between atoms: C_7  and  C_8
REMARK    5  A    between atoms: N_13  and  C_14
REMARK    6  A    between atoms: N_13  and  S_15
REMARK    7  A    between atoms: S_15  and  C_18
REMARK                            x       y       z     vdW  Elec       q    Type
REMARK                         _______ _______ _______ _____ _____    ______ ____
ROOT
ATOM      1  S   UNL     1       7.259   5.219  18.271  0.00  0.00    +0.000 S 
ATOM      2  O   UNL     1       8.002   3.985  18.150  0.00  0.00    +0.000 OA
ATOM      3  O   UNL     1       7.680   6.217  19.226  0.00  0.00    +0.000 OA
ENDROOT
BRANCH   1   4
ATOM      4  C   UNL     1       5.612   4.743  18.749  0.00  0.00    +0.000 A 
ATOM      5  C   UNL     1       4.742   5.681  19.303  0.00  0.00    +0.000 A 
ATOM      6  C   UNL     1       3.513   5.273  19.830  0.00  0.00    +0.000 A 
ATOM      7  C   UNL     1       3.118   3.946  19.697  0.00  0.00    +0.000 A 
ATOM      8  N   UNL     1       1.869   3.531  20.199  0.00  0.00    +0.000 N 
ATOM      9  C   UNL     1       1.200   2.568  19.479  0.00  0.00    +0.000 A 
ATOM     10  O   UNL     1      -0.021   2.553  19.383  0.00  0.00    +0.000 OA
ATOM     11  N   UNL     1       1.986   1.621  18.881  0.00  0.00    +0.000 N 
ATOM     12  C   UNL     1       3.335   1.747  18.641  0.00  0.00    +0.000 A 
ATOM     13  O   UNL     1       3.980   0.899  18.029  0.00  0.00    +0.000 OA
ATOM     14  C   UNL     1       3.933   3.038  19.042  0.00  0.00    +0.000 A 
ATOM     15  C   UNL     1       5.219   3.416  18.665  0.00  0.00    +0.000 A 
ATOM     16  H   UNL     1       2.040   3.109  21.113  0.00  0.00    +0.000 HD
ATOM     17  H   UNL     1       1.495   0.897  18.377  0.00  0.00    +0.000 HD
ENDBRANCH   1   4
BRANCH   1  18
ATOM     18  N   UNL     1       7.106   6.015  16.740  0.00  0.00    +0.000 NA
ATOM     19  C   UNL     1       7.399   7.471  16.831  0.00  0.00    +0.000 C 
BRANCH  18  21
ATOM     20  C   UNL     1       5.040   6.875  15.542  0.00  0.00    +0.000 C 
ATOM     21  C   UNL     1       5.948   5.671  15.828  0.00  0.00    +0.000 C 
BRANCH  21  22
ATOM     22  C   UNL     1       6.321   5.094  14.466  0.00  0.00    +0.000 A 
ATOM     23  C   UNL     1       7.603   5.315  13.935  0.00  0.00    +0.000 A 
ATOM     24  C   UNL     1       7.929   4.885  12.649  0.00  0.00    +0.000 A 
ATOM     25  C   UNL     1       6.995   4.178  11.894  0.00  0.00    +0.000 A 
ATOM     26  C   UNL     1       5.736   3.872  12.430  0.00  0.00    +0.000 A 
ATOM     27  C   UNL     1       5.415   4.326  13.720  0.00  0.00    +0.000 A 
BRANCH  26  28
ATOM     28  C   UNL     1       4.723   3.079  11.642  0.00  0.00    +0.000 C 
ATOM     29  F   UNL     1       5.149   1.824  11.321  0.00  0.00    +0.000 F 
ATOM     30  F   UNL     1       3.559   2.905  12.332  0.00  0.00    +0.000 F 
ATOM     31  F   UNL     1       4.375   3.665  10.465  0.00  0.00    +0.000 F 
ENDBRANCH  26  28
ENDBRANCH  21  22
ENDBRANCH  18  21
ENDBRANCH   1  18
TORSDOF 5
ENDMDL
MODEL 3
REMARK VINA RESULT:      -8.6      5.323      7.354
REMARK  Name = 
REMARK  7 active torsions:
REMARK  status: ('A' for Active; 'I' for Inactive)
REMARK    1  A    between atoms: C_1  and  C_2
REMARK    2  A    between atoms: C_2  and  C_3
REMARK    3  A    between atoms: C_2  and  N_13
REMARK    4  A    between atoms: C_7  and  C_8
REMARK    5  A    between atoms: N_13  and  C_14
REMARK    6  A    between atoms: N_13  and  S_15
REMARK    7  A    between atoms: S_15  and  C_18
REMARK                            x       y       z     vdW  Elec       q    Type
REMARK                         _______ _______ _______ _____ _____    ______ ____
ROOT
ATOM      1  S   UNL     1       3.571   2.980  17.805  0.00  0.00    +0.000 S 
ATOM      2  O   UNL     1       4.354   1.766  17.776  0.00  0.00    +0.000 OA
ATOM      3  O   UNL     1       2.508   3.169  16.846  0.00  0.00    +0.000 OA
ENDROOT
BRANCH   1   4
ATOM      4  C   UNL     1       4.727   4.304  17.527  0.00  0.00    +0.000 A 
ATOM      5  C   UNL     1       4.620   5.104  16.389  0.00  0.00    +0.000 A 
ATOM      6  C   UNL     1       5.621   6.031  16.087  0.00  0.00    +0.000 A 
ATOM      7  C   UNL     1       6.665   6.229  16.986  0.00  0.00    +0.000 A 
ATOM      8  N   UNL     1       7.663   7.183  16.704  0.00  0.00    +0.000 N 
ATOM      9  C   UNL     1       8.179   7.876  17.775  0.00  0.00    +0.000 A 
ATOM     10  O   UNL     1       8.521   9.049  17.692  0.00  0.00    +0.000 OA
ATOM     11  N   UNL     1       8.293   7.167  18.941  0.00  0.00    +0.000 N 
ATOM     12  C   UNL     1       7.632   5.995  19.223  0.00  0.00    +0.000 A 
ATOM     13  O   UNL     1       7.709   5.439  20.316  0.00  0.00    +0.000 OA
ATOM     14  C   UNL     1       6.707   5.518  18.173  0.00  0.00    +0.000 A 
ATOM     15  C   UNL     1       5.798   4.486  18.389  0.00  0.00    +0.000 A 
ATOM     16  H   UNL     1       8.456   6.676  16.307  0.00  0.00    +0.000 HD
ATOM     17  H   UNL     1       8.699   7.666  19.719  0.00  0.00    +0.000 HD
ENDBRANCH   1   4
BRANCH   1  18
ATOM     18  N   UNL     1       2.891   3.253  19.375  0.00  0.00    +0.000 NA
ATOM     19  C   UNL     1       2.973   2.046  20.241  0.00  0.00    +0.000 C 
BRANCH  18  21
ATOM     20  C   UNL     1       0.872   3.746  20.832  0.00  0.00    +0.000 C 
ATOM     21  C   UNL     1       1.597   4.027  19.508  0.00  0.00    +0.000 C 
BRANCH  21  22
ATOM     22  C   UNL     1       1.713   5.544  19.406  0.00  0.00    +0.000 A 
ATOM     23  C   UNL     1       2.222   6.134  18.236  0.00  0.00    +0.000 A 
ATOM     24  C   UNL     1       2.433   7.510  18.162  0.00  0.00    +0.000 A 
ATOM     25  C   UNL     1       2.086   8.326  19.237  0.00  0.00    +0.000 A 
ATOM     26  C   UNL     1       1.501   7.775  20.385  0.00  0.00    +0.000 A 
ATOM     27  C   UNL     1       1.309   6.385  20.454  0.00  0.00    +0.000 A 
BRANCH  26  28
ATOM     28  C   UNL     1       1.086   8.644  21.547  0.00  0.00    +0.000 C 
ATOM     29  F   UNL     1       1.898   8.517  22.635  0.00  0.00    +0.000 F 
ATOM     30  F   UNL     1       1.106   9.970  21.228  0.00  0.00    +0.000 F 
ATOM     31  F   UNL     1      -0.173   8.386  21.991  0.00  0.00    +0.000 F 
ENDBRANCH  26  28
ENDBRANCH  21  22
ENDBRANCH  18  21
ENDBRANCH   1  18
TORSDOF 5
ENDMDL
MODEL 4
REMARK VINA RESULT:      -8.5      5.379      7.368
REMARK  Name = 
REMARK  7 active torsions:
REMARK  status: ('A' for Active; 'I' for Inactive)
REMARK    1  A    between atoms: C_1  and  C_2
REMARK    2  A    between atoms: C_2  and  C_3
REMARK    3  A    between atoms: C_2  and  N_13
REMARK    4  A    between atoms: C_7  and  C_8
REMARK    5  A    between atoms: N_13  and  C_14
REMARK    6  A    between atoms: N_13  and  S_15
REMARK    7  A    between atoms: S_15  and  C_18
REMARK                            x       y       z     vdW  Elec       q    Type
REMARK                         _______ _______ _______ _____ _____    ______ ____
ROOT
ATOM      1  S   UNL     1       3.987   2.394  19.244  0.00  0.00    +0.000 S 
ATOM      2  O   UNL     1       4.918   1.623  20.037  0.00  0.00    +0.000 OA
ATOM      3  O   UNL     1       3.285   1.765  18.151  0.00  0.00    +0.000 OA
ENDROOT
BRANCH   1   4
ATOM      4  C   UNL     1       4.945   3.710  18.523  0.00  0.00    +0.000 A 
ATOM      5  C   UNL     1       4.624   4.202  17.258  0.00  0.00    +0.000 A 
ATOM      6  C   UNL     1       5.472   5.114  16.624  0.00  0.00    +0.000 A 
ATOM      7  C   UNL     1       6.577   5.612  17.309  0.00  0.00    +0.000 A 
ATOM      8  N   UNL     1       7.422   6.554  16.690  0.00  0.00    +0.000 N 
ATOM      9  C   UNL     1       7.966   7.525  17.498  0.00  0.00    +0.000 A 
ATOM     10  O   UNL     1       8.159   8.669  17.107  0.00  0.00    +0.000 OA
ATOM     11  N   UNL     1       8.287   7.128  18.768  0.00  0.00    +0.000 N 
ATOM     12  C   UNL     1       7.800   6.004  19.393  0.00  0.00    +0.000 A 
ATOM     13  O   UNL     1       8.059   5.734  20.564  0.00  0.00    +0.000 OA
ATOM     14  C   UNL     1       6.829   5.211  18.611  0.00  0.00    +0.000 A 
ATOM     15  C   UNL     1       6.074   4.185  19.173  0.00  0.00    +0.000 A 
ATOM     16  H   UNL     1       8.221   6.038  16.317  0.00  0.00    +0.000 HD
ATOM     17  H   UNL     1       8.714   7.832  19.353  0.00  0.00    +0.000 HD
ENDBRANCH   1   4
BRANCH   1  18
ATOM     18  N   UNL     1       2.792   3.157  20.240  0.00  0.00    +0.000 NA
ATOM     19  C   UNL     1       2.439   2.332  21.427  0.00  0.00    +0.000 C 
BRANCH  18  21
ATOM     20  C   UNL     1       0.299   3.621  20.354  0.00  0.00    +0.000 C 
ATOM     21  C   UNL     1       1.613   3.855  19.596  0.00  0.00    +0.000 C 
BRANCH  21  22
ATOM     22  C   UNL     1       1.740   5.366  19.433  0.00  0.00    +0.000 A 
ATOM     23  C   UNL     1       2.300   5.902  18.261  0.00  0.00    +0.000 A 
ATOM     24  C   UNL     1       2.521   7.273  18.136  0.00  0.00    +0.000 A 
ATOM     25  C   UNL     1       2.133   8.137  19.159  0.00  0.00    +0.000 A 
ATOM     26  C   UNL     1       1.498   7.638  20.305  0.00  0.00    +0.000 A 
ATOM     27  C   UNL     1       1.298   6.253  20.425  0.00  0.00    +0.000 A 
BRANCH  26  28
ATOM     28  C   UNL     1       1.040   8.558  21.409  0.00  0.00    +0.000 C 
ATOM     29  F   UNL     1      -0.220   8.286  21.853  0.00  0.00    +0.000 F 
ATOM     30  F   UNL     1       1.841   8.477  22.509  0.00  0.00    +0.000 F 
ATOM     31  F   UNL     1       1.032   9.870  21.049  0.00  0.00    +0.000 F 
ENDBRANCH  26  28
ENDBRANCH  21  22
ENDBRANCH  18  21
ENDBRANCH   1  18
TORSDOF 5
ENDMDL
MODEL 5
REMARK VINA RESULT:      -8.5      5.255      8.168
REMARK  Name = 
REMARK  7 active torsions:
REMARK  status: ('A' for Active; 'I' for Inactive)
REMARK    1  A    between atoms: C_1  and  C_2
REMARK    2  A    between atoms: C_2  and  C_3
REMARK    3  A    between atoms: C_2  and  N_13
REMARK    4  A    between atoms: C_7  and  C_8
REMARK    5  A    between atoms: N_13  and  C_14
REMARK    6  A    between atoms: N_13  and  S_15
REMARK    7  A    between atoms: S_15  and  C_18
REMARK                            x       y       z     vdW  Elec       q    Type
REMARK                         _______ _______ _______ _____ _____    ______ ____
ROOT
ATOM      1  S   UNL     1       3.494   2.604  17.901  0.00  0.00    +0.000 S 
ATOM      2  O   UNL     1       3.982   1.246  17.977  0.00  0.00    +0.000 OA
ATOM      3  O   UNL     1       2.246   2.879  17.228  0.00  0.00    +0.000 OA
ENDROOT
BRANCH   1   4
ATOM      4  C   UNL     1       4.742   3.514  17.017  0.00  0.00    +0.000 A 
ATOM      5  C   UNL     1       5.695   4.258  17.712  0.00  0.00    +0.000 A 
ATOM      6  C   UNL     1       6.568   5.102  17.021  0.00  0.00    +0.000 A 
ATOM      7  C   UNL     1       6.554   5.110  15.629  0.00  0.00    +0.000 A 
ATOM      8  N   UNL     1       7.449   5.936  14.922  0.00  0.00    +0.000 N 
ATOM      9  C   UNL     1       7.944   5.443  13.737  0.00  0.00    +0.000 A 
ATOM     10  O   UNL     1       9.085   5.676  13.356  0.00  0.00    +0.000 OA
ATOM     11  N   UNL     1       7.077   4.679  13.004  0.00  0.00    +0.000 N 
ATOM     12  C   UNL     1       5.936   4.086  13.493  0.00  0.00    +0.000 A 
ATOM     13  O   UNL     1       5.232   3.345  12.811  0.00  0.00    +0.000 OA
ATOM     14  C   UNL     1       5.686   4.283  14.936  0.00  0.00    +0.000 A 
ATOM     15  C   UNL     1       4.714   3.568  15.631  0.00  0.00    +0.000 A 
ATOM     16  H   UNL     1       6.936   6.781  14.666  0.00  0.00    +0.000 HD
ATOM     17  H   UNL     1       7.429   4.342  12.120  0.00  0.00    +0.000 HD
ENDBRANCH   1   4
BRANCH   1  18
ATOM     18  N   UNL     1       3.391   3.326  19.473  0.00  0.00    +0.000 NA
ATOM     19  C   UNL     1       3.994   2.466  20.526  0.00  0.00    +0.000 C 
BRANCH  18  21
ATOM     20  C   UNL     1       1.809   3.846  21.389  0.00  0.00    +0.000 C 
ATOM     21  C   UNL     1       2.117   4.026  19.895  0.00  0.00    +0.000 C 
BRANCH  21  22
ATOM     22  C   UNL     1       2.062   5.527  19.633  0.00  0.00    +0.000 A 
ATOM     23  C   UNL     1       2.559   6.049  18.426  0.00  0.00    +0.000 A 
ATOM     24  C   UNL     1       2.613   7.426  18.210  0.00  0.00    +0.000 A 
ATOM     25  C   UNL     1       2.120   8.301  19.176  0.00  0.00    +0.000 A 
ATOM     26  C   UNL     1       1.545   7.806  20.354  0.00  0.00    +0.000 A 
ATOM     27  C   UNL     1       1.512   6.417  20.566  0.00  0.00    +0.000 A 
BRANCH  26  28
ATOM     28  C   UNL     1       0.975   8.735  21.397  0.00  0.00    +0.000 C 
ATOM     29  F   UNL     1      -0.179   8.274  21.960  0.00  0.00    +0.000 F 
ATOM     30  F   UNL     1       1.836   8.930  22.436  0.00  0.00    +0.000 F 
ATOM     31  F   UNL     1       0.685   9.974  20.916  0.00  0.00    +0.000 F 
ENDBRANCH  26  28
ENDBRANCH  21  22
ENDBRANCH  18  21
ENDBRANCH   1  18
TORSDOF 5
ENDMDL
MODEL 6
REMARK VINA RESULT:      -8.5      4.392      6.717
REMARK  Name = 
REMARK  7 active torsions:
REMARK  status: ('A' for Active; 'I' for Inactive)
REMARK    1  A    between atoms: C_1  and  C_2
REMARK    2  A    between atoms: C_2  and  C_3
REMARK    3  A    between atoms: C_2  and  N_13
REMARK    4  A    between atoms: C_7  and  C_8
REMARK    5  A    between atoms: N_13  and  C_14
REMARK    6  A    between atoms: N_13  and  S_15
REMARK    7  A    between atoms: S_15  and  C_18
REMARK                            x       y       z     vdW  Elec       q    Type
REMARK                         _______ _______ _______ _____ _____    ______ ____
ROOT
ATOM      1  S   UNL     1       3.705   2.341  18.637  0.00  0.00    +0.000 S 
ATOM      2  O   UNL     1       4.620   1.375  19.200  0.00  0.00    +0.000 OA
ATOM      3  O   UNL     1       2.870   1.970  17.519  0.00  0.00    +0.000 OA
ENDROOT
BRANCH   1   4
ATOM      4  C   UNL     1       4.719   3.690  18.069  0.00  0.00    +0.000 A 
ATOM      5  C   UNL     1       4.464   4.290  16.836  0.00  0.00    +0.000 A 
ATOM      6  C   UNL     1       5.357   5.231  16.316  0.00  0.00    +0.000 A 
ATOM      7  C   UNL     1       6.438   5.647  17.087  0.00  0.00    +0.000 A 
ATOM      8  N   UNL     1       7.328   6.617  16.585  0.00  0.00    +0.000 N 
ATOM      9  C   UNL     1       7.853   7.507  17.493  0.00  0.00    +0.000 A 
ATOM     10  O   UNL     1       8.084   8.675  17.206  0.00  0.00    +0.000 OA
ATOM     11  N   UNL     1       8.108   7.002  18.739  0.00  0.00    +0.000 N 
ATOM     12  C   UNL     1       7.573   5.841  19.248  0.00  0.00    +0.000 A 
ATOM     13  O   UNL     1       7.773   5.472  20.403  0.00  0.00    +0.000 OA
ATOM     14  C   UNL     1       6.624   5.137  18.361  0.00  0.00    +0.000 A 
ATOM     15  C   UNL     1       5.826   4.086  18.804  0.00  0.00    +0.000 A 
ATOM     16  H   UNL     1       8.133   6.116  16.206  0.00  0.00    +0.000 HD
ATOM     17  H   UNL     1       8.521   7.646  19.397  0.00  0.00    +0.000 HD
ENDBRANCH   1   4
BRANCH   1  18
ATOM     18  N   UNL     1       2.659   3.002  19.851  0.00  0.00    +0.000 NA
ATOM     19  C   UNL     1       2.336   2.011  20.913  0.00  0.00    +0.000 C 
BRANCH  18  21
ATOM     20  C   UNL     1       0.180   3.472  20.126  0.00  0.00    +0.000 C 
ATOM     21  C   UNL     1       1.494   3.877  19.443  0.00  0.00    +0.000 C 
BRANCH  21  22
ATOM     22  C   UNL     1       1.659   5.371  19.702  0.00  0.00    +0.000 A 
ATOM     23  C   UNL     1       1.486   5.883  20.999  0.00  0.00    +0.000 A 
ATOM     24  C   UNL     1       1.530   7.256  21.237  0.00  0.00    +0.000 A 
ATOM     25  C   UNL     1       1.803   8.136  20.191  0.00  0.00    +0.000 A 
ATOM     26  C   UNL     1       2.060   7.647  18.903  0.00  0.00    +0.000 A 
ATOM     27  C   UNL     1       1.996   6.263  18.673  0.00  0.00    +0.000 A 
BRANCH  26  28
ATOM     28  C   UNL     1       2.391   8.579  17.764  0.00  0.00    +0.000 C 
ATOM     29  F   UNL     1       3.302   8.065  16.890  0.00  0.00    +0.000 F 
ATOM     30  F   UNL     1       1.293   8.880  17.012  0.00  0.00    +0.000 F 
ATOM     31  F   UNL     1       2.900   9.772  18.173  0.00  0.00    +0.000 F 
ENDBRANCH  26  28
ENDBRANCH  21  22
ENDBRANCH  18  21
ENDBRANCH   1  18
TORSDOF 5
ENDMDL
MODEL 7
REMARK VINA RESULT:      -8.4      2.333      2.820
REMARK  Name = 
REMARK  7 active torsions:
REMARK  status: ('A' for Active; 'I' for Inactive)
REMARK    1  A    between atoms: C_1  and  C_2
REMARK    2  A    between atoms: C_2  and  C_3
REMARK    3  A    between atoms: C_2  and  N_13
REMARK    4  A    between atoms: C_7  and  C_8
REMARK    5  A    between atoms: N_13  and  C_14
REMARK    6  A    between atoms: N_13  and  S_15
REMARK    7  A    between atoms: S_15  and  C_18
REMARK                            x       y       z     vdW  Elec       q    Type
REMARK                         _______ _______ _______ _____ _____    ______ ____
ROOT
ATOM      1  S   UNL     1       2.318   5.213  19.994  0.00  0.00    +0.000 S 
ATOM      2  O   UNL     1       1.132   4.804  20.711  0.00  0.00    +0.000 OA
ATOM      3  O   UNL     1       3.593   5.231  20.670  0.00  0.00    +0.000 OA
ENDROOT
BRANCH   1   4
ATOM      4  C   UNL     1       2.011   6.888  19.475  0.00  0.00    +0.000 A 
ATOM      5  C   UNL     1       2.286   7.281  18.165  0.00  0.00    +0.000 A 
ATOM      6  C   UNL     1       2.204   8.628  17.804  0.00  0.00    +0.000 A 
ATOM      7  C   UNL     1       1.738   9.557  18.730  0.00  0.00    +0.000 A 
ATOM      8  N   UNL     1       1.624  10.914  18.367  0.00  0.00    +0.000 N 
ATOM      9  C   UNL     1       0.567  11.612  18.903  0.00  0.00    +0.000 A 
ATOM     10  O   UNL     1      -0.019  12.491  18.283  0.00  0.00    +0.000 OA
ATOM     11  N   UNL     1       0.216  11.269  20.181  0.00  0.00    +0.000 N 
ATOM     12  C   UNL     1       0.568  10.098  20.811  0.00  0.00    +0.000 A 
ATOM     13  O   UNL     1       0.161   9.802  21.933  0.00  0.00    +0.000 OA
ATOM     14  C   UNL     1       1.353   9.148  19.996  0.00  0.00    +0.000 A 
ATOM     15  C   UNL     1       1.590   7.836  20.396  0.00  0.00    +0.000 A 
ATOM     16  H   UNL     1       2.460  11.387  18.714  0.00  0.00    +0.000 HD
ATOM     17  H   UNL     1      -0.539  11.802  20.587  0.00  0.00    +0.000 HD
ENDBRANCH   1   4
BRANCH   1  18
ATOM     18  N   UNL     1       2.528   4.289  18.542  0.00  0.00    +0.000 NA
ATOM     19  C   UNL     1       1.310   3.511  18.191  0.00  0.00    +0.000 C 
BRANCH  18  21
ATOM     20  C   UNL     1       3.614   2.153  17.705  0.00  0.00    +0.000 C 
ATOM     21  C   UNL     1       3.827   3.550  18.305  0.00  0.00    +0.000 C 
BRANCH  21  22
ATOM     22  C   UNL     1       4.835   4.248  17.398  0.00  0.00    +0.000 A 
ATOM     23  C   UNL     1       5.056   3.771  16.094  0.00  0.00    +0.000 A 
ATOM     24  C   UNL     1       6.046   4.329  15.287  0.00  0.00    +0.000 A 
ATOM     25  C   UNL     1       6.793   5.411  15.749  0.00  0.00    +0.000 A 
ATOM     26  C   UNL     1       6.539   5.960  17.014  0.00  0.00    +0.000 A 
ATOM     27  C   UNL     1       5.550   5.377  17.824  0.00  0.00    +0.000 A 
BRANCH  26  28
ATOM     28  C   UNL     1       7.313   7.151  17.520  0.00  0.00    +0.000 C 
ATOM     29  F   UNL     1       8.287   7.568  16.662  0.00  0.00    +0.000 F 
ATOM     30  F   UNL     1       6.512   8.237  17.719  0.00  0.00    +0.000 F 
ATOM     31  F   UNL     1       7.936   6.925  18.708  0.00  0.00    +0.000 F 
ENDBRANCH  26  28
ENDBRANCH  21  22
ENDBRANCH  18  21
ENDBRANCH   1  18
TORSDOF 5
ENDMDL
MODEL 8
REMARK VINA RESULT:      -8.3      2.246      3.404
REMARK  Name = 
REMARK  7 active torsions:
REMARK  status: ('A' for Active; 'I' for Inactive)
REMARK    1  A    between atoms: C_1  and  C_2
REMARK    2  A    between atoms: C_2  and  C_3
REMARK    3  A    between atoms: C_2  and  N_13
REMARK    4  A    between atoms: C_7  and  C_8
REMARK    5  A    between atoms: N_13  and  C_14
REMARK    6  A    between atoms: N_13  and  S_15
REMARK    7  A    between atoms: S_15  and  C_18
REMARK                            x       y       z     vdW  Elec       q    Type
REMARK                         _______ _______ _______ _____ _____    ______ ____
ROOT
ATOM      1  S   UNL     1       3.587   3.342  17.601  0.00  0.00    +0.000 S 
ATOM      2  O   UNL     1       2.552   3.169  16.607  0.00  0.00    +0.000 OA
ATOM      3  O   UNL     1       3.996   2.220  18.412  0.00  0.00    +0.000 OA
ENDROOT
BRANCH   1   4
ATOM      4  C   UNL     1       2.966   4.568  18.732  0.00  0.00    +0.000 A 
ATOM      5  C   UNL     1       2.818   4.266  20.085  0.00  0.00    +0.000 A 
ATOM      6  C   UNL     1       2.177   5.167  20.940  0.00  0.00    +0.000 A 
ATOM      7  C   UNL     1       1.790   6.412  20.455  0.00  0.00    +0.000 A 
ATOM      8  N   UNL     1       1.169   7.339  21.316  0.00  0.00    +0.000 N 
ATOM      9  C   UNL     1       1.464   8.668  21.114  0.00  0.00    +0.000 A 
ATOM     10  O   UNL     1       1.549   9.467  22.038  0.00  0.00    +0.000 OA
ATOM     11  N   UNL     1       1.650   9.043  19.810  0.00  0.00    +0.000 N 
ATOM     12  C   UNL     1       1.917   8.183  18.770  0.00  0.00    +0.000 A 
ATOM     13  O   UNL     1       2.154   8.579  17.630  0.00  0.00    +0.000 OA
ATOM     14  C   UNL     1       2.043   6.758  19.138  0.00  0.00    +0.000 A 
ATOM     15  C   UNL     1       2.534   5.798  18.258  0.00  0.00    +0.000 A 
ATOM     16  H   UNL     1       0.162   7.263  21.160  0.00  0.00    +0.000 HD
ATOM     17  H   UNL     1       1.837  10.023  19.658  0.00  0.00    +0.000 HD
ENDBRANCH   1   4
BRANCH   1  18
ATOM     18  N   UNL     1       5.024   4.013  16.903  0.00  0.00    +0.000 NA
ATOM     19  C   UNL     1       5.999   4.454  17.937  0.00  0.00    +0.000 C 
BRANCH  18  21
ATOM     20  C   UNL     1       5.261   6.399  16.067  0.00  0.00    +0.000 C 
ATOM     21  C   UNL     1       4.916   4.945  15.714  0.00  0.00    +0.000 C 
BRANCH  21  22
ATOM     22  C   UNL     1       5.779   4.590  14.508  0.00  0.00    +0.000 A 
ATOM     23  C   UNL     1       6.982   5.278  14.276  0.00  0.00    +0.000 A 
ATOM     24  C   UNL     1       7.731   5.041  13.125  0.00  0.00    +0.000 A 
ATOM     25  C   UNL     1       7.319   4.070  12.214  0.00  0.00    +0.000 A 
ATOM     26  C   UNL     1       6.167   3.311  12.460  0.00  0.00    +0.000 A 
ATOM     27  C   UNL     1       5.411   3.572  13.615  0.00  0.00    +0.000 A 
BRANCH  26  28
ATOM     28  C   UNL     1       5.721   2.233  11.503  0.00  0.00    +0.000 C 
ATOM     29  F   UNL     1       5.629   1.001  12.081  0.00  0.00    +0.000 F 
ATOM     30  F   UNL     1       4.486   2.486  10.983  0.00  0.00    +0.000 F 
ATOM     31  F   UNL     1       6.551   2.081  10.436  0.00  0.00    +0.000 F 
ENDBRANCH  26  28
ENDBRANCH  21  22
ENDBRANCH  18  21
ENDBRANCH   1  18
TORSDOF 5
ENDMDL
MODEL 9
REMARK VINA RESULT:      -8.3      2.731      3.244
REMARK  Name = 
REMARK  7 active torsions:
REMARK  status: ('A' for Active; 'I' for Inactive)
REMARK    1  A    between atoms: C_1  and  C_2
REMARK    2  A    between atoms: C_2  and  C_3
REMARK    3  A    between atoms: C_2  and  N_13
REMARK    4  A    between atoms: C_7  and  C_8
REMARK    5  A    between atoms: N_13  and  C_14
REMARK    6  A    between atoms: N_13  and  S_15
REMARK    7  A    between atoms: S_15  and  C_18
REMARK                            x       y       z     vdW  Elec       q    Type
REMARK                         _______ _______ _______ _____ _____    ______ ____
ROOT
ATOM      1  S   UNL     1       1.966   4.246  20.303  0.00  0.00    +0.000 S 
ATOM      2  O   UNL     1       0.675   3.957  20.885  0.00  0.00    +0.000 OA
ATOM      3  O   UNL     1       3.155   4.152  21.116  0.00  0.00    +0.000 OA
ENDROOT
BRANCH   1   4
ATOM      4  C   UNL     1       1.877   5.936  19.752  0.00  0.00    +0.000 A 
ATOM      5  C   UNL     1       2.170   6.260  18.428  0.00  0.00    +0.000 A 
ATOM      6  C   UNL     1       2.263   7.599  18.037  0.00  0.00    +0.000 A 
ATOM      7  C   UNL     1       1.950   8.601  18.951  0.00  0.00    +0.000 A 
ATOM      8  N   UNL     1       2.012   9.953  18.559  0.00  0.00    +0.000 N 
ATOM      9  C   UNL     1       1.074  10.800  19.102  0.00  0.00    +0.000 A 
ATOM     10  O   UNL     1       0.597  11.738  18.474  0.00  0.00    +0.000 OA
ATOM     11  N   UNL     1       0.711  10.534  20.394  0.00  0.00    +0.000 N 
ATOM     12  C   UNL     1       0.916   9.338  21.044  0.00  0.00    +0.000 A 
ATOM     13  O   UNL     1       0.500   9.124  22.181  0.00  0.00    +0.000 OA
ATOM     14  C   UNL     1       1.544   8.274  20.234  0.00  0.00    +0.000 A 
ATOM     15  C   UNL     1       1.611   6.950  20.659  0.00  0.00    +0.000 A 
ATOM     16  H   UNL     1       2.914  10.315  18.876  0.00  0.00    +0.000 HD
ATOM     17  H   UNL     1       0.045  11.172  20.803  0.00  0.00    +0.000 HD
ENDBRANCH   1   4
BRANCH   1  18
ATOM     18  N   UNL     1       2.245   3.290  18.884  0.00  0.00    +0.000 NA
ATOM     19  C   UNL     1       1.147   2.318  18.637  0.00  0.00    +0.000 C 
BRANCH  18  21
ATOM     20  C   UNL     1       3.609   1.498  17.713  0.00  0.00    +0.000 C 
ATOM     21  C   UNL     1       3.630   2.745  18.608  0.00  0.00    +0.000 C 
BRANCH  21  22
ATOM     22  C   UNL     1       4.609   3.715  17.953  0.00  0.00    +0.000 A 
ATOM     23  C   UNL     1       4.471   4.044  16.594  0.00  0.00    +0.000 A 
ATOM     24  C   UNL     1       5.414   4.845  15.952  0.00  0.00    +0.000 A 
ATOM     25  C   UNL     1       6.482   5.376  16.673  0.00  0.00    +0.000 A 
ATOM     26  C   UNL     1       6.600   5.132  18.048  0.00  0.00    +0.000 A 
ATOM     27  C   UNL     1       5.652   4.309  18.679  0.00  0.00    +0.000 A 
BRANCH  26  28
ATOM     28  C   UNL     1       7.729   5.725  18.854  0.00  0.00    +0.000 C 
ATOM     29  F   UNL     1       8.190   6.906  18.353  0.00  0.00    +0.000 F 
ATOM     30  F   UNL     1       7.357   5.992  20.139  0.00  0.00    +0.000 F 
ATOM     31  F   UNL     1       8.815   4.910  18.943  0.00  0.00    +0.000 F 
ENDBRANCH  26  28
ENDBRANCH  21  22
ENDBRANCH  18  21
ENDBRANCH   1  18
TORSDOF 5
ENDMDL
