MODEL 1
REMARK VINA RESULT:      -9.0      0.000      0.000
REMARK  Name = 
REMARK  4 active torsions:
REMARK  status: ('A' for Active; 'I' for Inactive)
REMARK    1  A    between atoms: C_7  and  S_8
REMARK    2  A    between atoms: S_8  and  N_11
REMARK    3  A    between atoms: N_11  and  C_12
REMARK    4  A    between atoms: C_12  and  C_13
REMARK                            x       y       z     vdW  Elec       q    Type
REMARK                         _______ _______ _______ _____ _____    ______ ____
ROOT
ATOM      1  S   UNL     1       4.014   2.952  18.952  0.00  0.00    +0.000 S 
ATOM      2  O   UNL     1       3.579   1.723  18.338  0.00  0.00    +0.000 OA
ATOM      3  O   UNL     1       4.792   2.948  20.160  0.00  0.00    +0.000 OA
ENDROOT
BRANCH   1  10
ATOM      4  O   UNL     1       8.618   5.812  13.077  0.00  0.00    +0.000 OA
ATOM      5  C   UNL     1       7.708   5.398  13.769  0.00  0.00    +0.000 C 
ATOM      6  C   UNL     1       6.513   4.677  13.167  0.00  0.00    +0.000 C 
ATOM      7  C   UNL     1       5.966   3.601  14.092  0.00  0.00    +0.000 C 
ATOM      8  C   UNL     1       5.845   4.085  15.513  0.00  0.00    +0.000 A 
ATOM      9  C   UNL     1       4.981   3.443  16.411  0.00  0.00    +0.000 A 
ATOM     10  C   UNL     1       4.967   3.851  17.758  0.00  0.00    +0.000 A 
ATOM     11  C   UNL     1       5.784   4.890  18.194  0.00  0.00    +0.000 A 
ATOM     12  F   UNL     1       5.716   5.331  19.466  0.00  0.00    +0.000 F 
ATOM     13  C   UNL     1       6.667   5.508  17.315  0.00  0.00    +0.000 A 
ATOM     14  C   UNL     1       6.702   5.094  15.979  0.00  0.00    +0.000 A 
ATOM     15  N   UNL     1       7.645   5.651  15.107  0.00  0.00    +0.000 N 
ATOM     16  H   UNL     1       8.382   6.245  15.474  0.00  0.00    +0.000 HD
ENDBRANCH   1  10
BRANCH   1  17
ATOM     17  N   UNL     1       2.673   3.929  19.195  0.00  0.00    +0.000 NA
ATOM     18  H   UNL     1       1.802   3.401  19.269  0.00  0.00    +0.000 HD
BRANCH  17  19
ATOM     19  C   UNL     1       2.827   5.003  20.177  0.00  0.00    +0.000 C 
BRANCH  19  20
ATOM     20  C   UNL     1       2.363   6.327  19.628  0.00  0.00    +0.000 A 
ATOM     21  C   UNL     1       2.540   6.605  18.270  0.00  0.00    +0.000 A 
ATOM     22  C   UNL     1       2.347   7.898  17.805  0.00  0.00    +0.000 A 
ATOM     23  C   UNL     1       1.840   8.879  18.671  0.00  0.00    +0.000 A 
ATOM     24  C   UNL     1       1.683  10.200  18.260  0.00  0.00    +0.000 A 
ATOM     25  C   UNL     1       0.707  10.971  18.860  0.00  0.00    +0.000 A 
ATOM     26  C   UNL     1       0.209  10.519  20.064  0.00  0.00    +0.000 A 
ATOM     27  N   UNL     1       0.632   9.386  20.676  0.00  0.00    +0.000 NA
ATOM     28  C   UNL     1       1.403   8.545  19.959  0.00  0.00    +0.000 A 
ATOM     29  C   UNL     1       1.783   7.303  20.456  0.00  0.00    +0.000 A 
ENDBRANCH  19  20
ENDBRANCH  17  19
ENDBRANCH   1  17
TORSDOF 4
ENDMDL
MODEL 2
REMARK VINA RESULT:      -8.9      2.297      3.310
REMARK  Name = 
REMARK  4 active torsions:
REMARK  status: ('A' for Active; 'I' for Inactive)
REMARK    1  A    between atoms: C_7  and  S_8
REMARK    2  A    between atoms: S_8  and  N_11
REMARK    3  A    between atoms: N_11  and  C_12
REMARK    4  A    between atoms: C_12  and  C_13
REMARK                            x       y       z     vdW  Elec       q    Type
REMARK                         _______ _______ _______ _____ _____    ______ ____
ROOT
ATOM      1  S   UNL     1       1.931   4.376  20.750  0.00  0.00    +0.000 S 
ATOM      2  O   UNL     1       0.612   4.159  20.212  0.00  0.00    +0.000 OA
ATOM      3  O   UNL     1       2.430   3.586  21.842  0.00  0.00    +0.000 OA
ENDROOT
BRANCH   1  10
ATOM      4  O   UNL     1       7.591   4.721  15.117  0.00  0.00    +0.000 OA
ATOM      5  C   UNL     1       6.948   4.562  16.137  0.00  0.00    +0.000 C 
ATOM      6  C   UNL     1       7.597   4.636  17.508  0.00  0.00    +0.000 C 
ATOM      7  C   UNL     1       6.658   5.209  18.559  0.00  0.00    +0.000 C 
ATOM      8  C   UNL     1       5.279   4.611  18.471  0.00  0.00    +0.000 A 
ATOM      9  C   UNL     1       4.415   4.654  19.574  0.00  0.00    +0.000 A 
ATOM     10  C   UNL     1       3.098   4.181  19.430  0.00  0.00    +0.000 A 
ATOM     11  C   UNL     1       2.659   3.658  18.217  0.00  0.00    +0.000 A 
ATOM     12  F   UNL     1       1.422   3.136  18.100  0.00  0.00    +0.000 F 
ATOM     13  C   UNL     1       3.502   3.644  17.111  0.00  0.00    +0.000 A 
ATOM     14  C   UNL     1       4.806   4.132  17.240  0.00  0.00    +0.000 A 
ATOM     15  N   UNL     1       5.634   4.199  16.113  0.00  0.00    +0.000 N 
ATOM     16  H   UNL     1       5.246   4.025  15.191  0.00  0.00    +0.000 HD
ENDBRANCH   1  10
BRANCH   1  17
ATOM     17  N   UNL     1       2.078   5.995  21.163  0.00  0.00    +0.000 NA
ATOM     18  H   UNL     1       2.757   6.157  21.909  0.00  0.00    +0.000 HD
BRANCH  17  19
ATOM     19  C   UNL     1       2.152   6.941  20.049  0.00  0.00    +0.000 C 
BRANCH  19  20
ATOM     20  C   UNL     1       1.404   8.213  20.351  0.00  0.00    +0.000 A 
ATOM     21  C   UNL     1       1.285   9.190  19.359  0.00  0.00    +0.000 A 
ATOM     22  C   UNL     1       0.821  10.453  19.694  0.00  0.00    +0.000 A 
ATOM     23  C   UNL     1       0.341  10.695  20.990  0.00  0.00    +0.000 A 
ATOM     24  C   UNL     1      -0.084  11.962  21.383  0.00  0.00    +0.000 A 
ATOM     25  C   UNL     1      -1.036  12.065  22.378  0.00  0.00    +0.000 A 
ATOM     26  C   UNL     1      -1.232  10.953  23.170  0.00  0.00    +0.000 A 
ATOM     27  N   UNL     1      -0.540   9.796  23.028  0.00  0.00    +0.000 NA
ATOM     28  C   UNL     1       0.202   9.651  21.913  0.00  0.00    +0.000 A 
ATOM     29  C   UNL     1       0.847   8.454  21.619  0.00  0.00    +0.000 A 
ENDBRANCH  19  20
ENDBRANCH  17  19
ENDBRANCH   1  17
TORSDOF 4
ENDMDL
MODEL 3
REMARK VINA RESULT:      -8.5      2.203      3.255
REMARK  Name = 
REMARK  4 active torsions:
REMARK  status: ('A' for Active; 'I' for Inactive)
REMARK    1  A    between atoms: C_7  and  S_8
REMARK    2  A    between atoms: S_8  and  N_11
REMARK    3  A    between atoms: N_11  and  C_12
REMARK    4  A    between atoms: C_12  and  C_13
REMARK                            x       y       z     vdW  Elec       q    Type
REMARK                         _______ _______ _______ _____ _____    ______ ____
ROOT
ATOM      1  S   UNL     1       1.912   4.131  20.723  0.00  0.00    +0.000 S 
ATOM      2  O   UNL     1       0.605   3.833  20.195  0.00  0.00    +0.000 OA
ATOM      3  O   UNL     1       2.469   3.372  21.809  0.00  0.00    +0.000 OA
ENDROOT
BRANCH   1  10
ATOM      4  O   UNL     1       7.570   4.795  15.116  0.00  0.00    +0.000 OA
ATOM      5  C   UNL     1       6.927   4.578  16.125  0.00  0.00    +0.000 C 
ATOM      6  C   UNL     1       7.577   4.568  17.498  0.00  0.00    +0.000 C 
ATOM      7  C   UNL     1       6.640   5.080  18.582  0.00  0.00    +0.000 C 
ATOM      8  C   UNL     1       5.260   4.492  18.460  0.00  0.00    +0.000 A 
ATOM      9  C   UNL     1       4.396   4.472  19.564  0.00  0.00    +0.000 A 
ATOM     10  C   UNL     1       3.078   4.012  19.393  0.00  0.00    +0.000 A 
ATOM     11  C   UNL     1       2.637   3.563  18.151  0.00  0.00    +0.000 A 
ATOM     12  F   UNL     1       1.398   3.052  18.004  0.00  0.00    +0.000 F 
ATOM     13  C   UNL     1       3.479   3.612  17.045  0.00  0.00    +0.000 A 
ATOM     14  C   UNL     1       4.784   4.089  17.202  0.00  0.00    +0.000 A 
ATOM     15  N   UNL     1       5.612   4.220  16.081  0.00  0.00    +0.000 N 
ATOM     16  H   UNL     1       5.223   4.102  15.151  0.00  0.00    +0.000 HD
ENDBRANCH   1  10
BRANCH   1  17
ATOM     17  N   UNL     1       1.962   5.755  21.139  0.00  0.00    +0.000 NA
ATOM     18  H   UNL     1       2.533   5.939  21.966  0.00  0.00    +0.000 HD
BRANCH  17  19
ATOM     19  C   UNL     1       2.156   6.697  20.037  0.00  0.00    +0.000 C 
BRANCH  19  20
ATOM     20  C   UNL     1       1.515   8.029  20.327  0.00  0.00    +0.000 A 
ATOM     21  C   UNL     1       1.013   8.283  21.606  0.00  0.00    +0.000 A 
ATOM     22  C   UNL     1       0.209   9.394  21.817  0.00  0.00    +0.000 A 
ATOM     23  C   UNL     1       0.026  10.326  20.785  0.00  0.00    +0.000 A 
ATOM     24  C   UNL     1      -0.815  11.425  20.938  0.00  0.00    +0.000 A 
ATOM     25  C   UNL     1      -0.554  12.569  20.208  0.00  0.00    +0.000 A 
ATOM     26  C   UNL     1       0.277  12.434  19.116  0.00  0.00    +0.000 A 
ATOM     27  N   UNL     1       0.826  11.257  18.728  0.00  0.00    +0.000 NA
ATOM     28  C   UNL     1       0.744  10.222  19.587  0.00  0.00    +0.000 A 
ATOM     29  C   UNL     1       1.382   9.013  19.332  0.00  0.00    +0.000 A 
ENDBRANCH  19  20
ENDBRANCH  17  19
ENDBRANCH   1  17
TORSDOF 4
ENDMDL
MODEL 4
REMARK VINA RESULT:      -8.5      1.920      2.519
REMARK  Name = 
REMARK  4 active torsions:
REMARK  status: ('A' for Active; 'I' for Inactive)
REMARK    1  A    between atoms: C_7  and  S_8
REMARK    2  A    between atoms: S_8  and  N_11
REMARK    3  A    between atoms: N_11  and  C_12
REMARK    4  A    between atoms: C_12  and  C_13
REMARK                            x       y       z     vdW  Elec       q    Type
REMARK                         _______ _______ _______ _____ _____    ______ ____
ROOT
ATOM      1  S   UNL     1       2.063   3.259  20.418  0.00  0.00    +0.000 S 
ATOM      2  O   UNL     1       1.026   2.370  19.960  0.00  0.00    +0.000 OA
ATOM      3  O   UNL     1       2.882   2.929  21.552  0.00  0.00    +0.000 OA
ENDROOT
BRANCH   1  10
ATOM      4  O   UNL     1       7.547   5.522  15.062  0.00  0.00    +0.000 OA
ATOM      5  C   UNL     1       6.932   5.016  15.981  0.00  0.00    +0.000 C 
ATOM      6  C   UNL     1       7.627   4.575  17.258  0.00  0.00    +0.000 C 
ATOM      7  C   UNL     1       6.741   4.745  18.483  0.00  0.00    +0.000 C 
ATOM      8  C   UNL     1       5.342   4.245  18.242  0.00  0.00    +0.000 A 
ATOM      9  C   UNL     1       4.515   3.901  19.321  0.00  0.00    +0.000 A 
ATOM     10  C   UNL     1       3.180   3.535  19.070  0.00  0.00    +0.000 A 
ATOM     11  C   UNL     1       2.686   3.497  17.769  0.00  0.00    +0.000 A 
ATOM     12  F   UNL     1       1.430   3.075  17.522  0.00  0.00    +0.000 F 
ATOM     13  C   UNL     1       3.492   3.869  16.699  0.00  0.00    +0.000 A 
ATOM     14  C   UNL     1       4.814   4.254  16.941  0.00  0.00    +0.000 A 
ATOM     15  N   UNL     1       5.608   4.710  15.882  0.00  0.00    +0.000 N 
ATOM     16  H   UNL     1       5.185   4.889  14.976  0.00  0.00    +0.000 HD
ENDBRANCH   1  10
BRANCH   1  17
ATOM     17  N   UNL     1       1.389   4.772  20.681  0.00  0.00    +0.000 NA
ATOM     18  H   UNL     1       0.598   4.751  21.328  0.00  0.00    +0.000 HD
BRANCH  17  19
ATOM     19  C   UNL     1       2.333   5.869  20.901  0.00  0.00    +0.000 C 
BRANCH  19  20
ATOM     20  C   UNL     1       1.893   7.128  20.199  0.00  0.00    +0.000 A 
ATOM     21  C   UNL     1       2.258   7.331  18.865  0.00  0.00    +0.000 A 
ATOM     22  C   UNL     1       2.074   8.580  18.289  0.00  0.00    +0.000 A 
ATOM     23  C   UNL     1       1.397   9.581  19.000  0.00  0.00    +0.000 A 
ATOM     24  C   UNL     1       1.238  10.862  18.479  0.00  0.00    +0.000 A 
ATOM     25  C   UNL     1       0.147  11.611  18.875  0.00  0.00    +0.000 A 
ATOM     26  C   UNL     1      -0.502  11.206  20.022  0.00  0.00    +0.000 A 
ATOM     27  N   UNL     1      -0.122  10.139  20.766  0.00  0.00    +0.000 NA
ATOM     28  C   UNL     1       0.788   9.302  20.230  0.00  0.00    +0.000 A 
ATOM     29  C   UNL     1       1.149   8.118  20.863  0.00  0.00    +0.000 A 
ENDBRANCH  19  20
ENDBRANCH  17  19
ENDBRANCH   1  17
TORSDOF 4
ENDMDL
MODEL 5
REMARK VINA RESULT:      -8.5      4.861      7.047
REMARK  Name = 
REMARK  4 active torsions:
REMARK  status: ('A' for Active; 'I' for Inactive)
REMARK    1  A    between atoms: C_7  and  S_8
REMARK    2  A    between atoms: S_8  and  N_11
REMARK    3  A    between atoms: N_11  and  C_12
REMARK    4  A    between atoms: C_12  and  C_13
REMARK                            x       y       z     vdW  Elec       q    Type
REMARK                         _______ _______ _______ _____ _____    ______ ____
ROOT
ATOM      1  S   UNL     1       7.375   5.652  17.534  0.00  0.00    +0.000 S 
ATOM      2  O   UNL     1       8.224   4.644  18.115  0.00  0.00    +0.000 OA
ATOM      3  O   UNL     1       7.358   5.889  16.117  0.00  0.00    +0.000 OA
ENDROOT
BRANCH   1  10
ATOM      4  O   UNL     1       0.196   2.727  19.480  0.00  0.00    +0.000 OA
ATOM      5  C   UNL     1       1.334   3.154  19.472  0.00  0.00    +0.000 C 
ATOM      6  C   UNL     1       2.349   2.738  20.523  0.00  0.00    +0.000 C 
ATOM      7  C   UNL     1       3.762   2.670  19.962  0.00  0.00    +0.000 C 
ATOM      8  C   UNL     1       4.090   3.868  19.111  0.00  0.00    +0.000 A 
ATOM      9  C   UNL     1       5.424   4.225  18.872  0.00  0.00    +0.000 A 
ATOM     10  C   UNL     1       5.702   5.285  17.989  0.00  0.00    +0.000 A 
ATOM     11  C   UNL     1       4.668   5.986  17.373  0.00  0.00    +0.000 A 
ATOM     12  F   UNL     1       4.930   7.049  16.587  0.00  0.00    +0.000 F 
ATOM     13  C   UNL     1       3.344   5.614  17.581  0.00  0.00    +0.000 A 
ATOM     14  C   UNL     1       3.061   4.548  18.441  0.00  0.00    +0.000 A 
ATOM     15  N   UNL     1       1.739   4.113  18.592  0.00  0.00    +0.000 N 
ATOM     16  H   UNL     1       1.016   4.478  17.980  0.00  0.00    +0.000 HD
ENDBRANCH   1  10
BRANCH   1  17
ATOM     17  N   UNL     1       7.676   7.111  18.305  0.00  0.00    +0.000 NA
ATOM     18  H   UNL     1       8.473   7.068  18.944  0.00  0.00    +0.000 HD
BRANCH  17  19
ATOM     19  C   UNL     1       7.626   8.308  17.465  0.00  0.00    +0.000 C 
BRANCH  19  20
ATOM     20  C   UNL     1       8.367   9.458  18.094  0.00  0.00    +0.000 A 
ATOM     21  C   UNL     1       9.067   9.252  19.286  0.00  0.00    +0.000 A 
ATOM     22  C   UNL     1       9.541  10.344  19.999  0.00  0.00    +0.000 A 
ATOM     23  C   UNL     1       9.440  11.630  19.448  0.00  0.00    +0.000 A 
ATOM     24  C   UNL     1       9.854  12.757  20.153  0.00  0.00    +0.000 A 
ATOM     25  C   UNL     1      10.280  13.865  19.445  0.00  0.00    +0.000 A 
ATOM     26  C   UNL     1       9.923  13.928  18.115  0.00  0.00    +0.000 A 
ATOM     27  N   UNL     1       9.182  12.983  17.488  0.00  0.00    +0.000 NA
ATOM     28  C   UNL     1       8.988  11.817  18.136  0.00  0.00    +0.000 A 
ATOM     29  C   UNL     1       8.347  10.744  17.527  0.00  0.00    +0.000 A 
ENDBRANCH  19  20
ENDBRANCH  17  19
ENDBRANCH   1  17
TORSDOF 4
ENDMDL
MODEL 6
REMARK VINA RESULT:      -8.4      0.825      1.420
REMARK  Name = 
REMARK  4 active torsions:
REMARK  status: ('A' for Active; 'I' for Inactive)
REMARK    1  A    between atoms: C_7  and  S_8
REMARK    2  A    between atoms: S_8  and  N_11
REMARK    3  A    between atoms: N_11  and  C_12
REMARK    4  A    between atoms: C_12  and  C_13
REMARK                            x       y       z     vdW  Elec       q    Type
REMARK                         _______ _______ _______ _____ _____    ______ ____
ROOT
ATOM      1  S   UNL     1       3.687   3.131  18.808  0.00  0.00    +0.000 S 
ATOM      2  O   UNL     1       3.153   1.970  18.142  0.00  0.00    +0.000 OA
ATOM      3  O   UNL     1       4.444   3.012  20.023  0.00  0.00    +0.000 OA
ENDROOT
BRANCH   1  10
ATOM      4  O   UNL     1       8.757   5.771  13.221  0.00  0.00    +0.000 OA
ATOM      5  C   UNL     1       7.793   5.380  13.852  0.00  0.00    +0.000 C 
ATOM      6  C   UNL     1       6.657   4.625  13.184  0.00  0.00    +0.000 C 
ATOM      7  C   UNL     1       6.037   3.586  14.105  0.00  0.00    +0.000 C 
ATOM      8  C   UNL     1       5.796   4.129  15.489  0.00  0.00    +0.000 A 
ATOM      9  C   UNL     1       4.862   3.520  16.338  0.00  0.00    +0.000 A 
ATOM     10  C   UNL     1       4.733   3.985  17.660  0.00  0.00    +0.000 A 
ATOM     11  C   UNL     1       5.507   5.048  18.118  0.00  0.00    +0.000 A 
ATOM     12  F   UNL     1       5.331   5.543  19.359  0.00  0.00    +0.000 F 
ATOM     13  C   UNL     1       6.458   5.634  17.290  0.00  0.00    +0.000 A 
ATOM     14  C   UNL     1       6.607   5.163  15.981  0.00  0.00    +0.000 A 
ATOM     15  N   UNL     1       7.617   5.689  15.167  0.00  0.00    +0.000 N 
ATOM     16  H   UNL     1       8.318   6.305  15.568  0.00  0.00    +0.000 HD
ENDBRANCH   1  10
BRANCH   1  17
ATOM     17  N   UNL     1       2.435   4.215  19.074  0.00  0.00    +0.000 NA
ATOM     18  H   UNL     1       1.523   3.849  18.793  0.00  0.00    +0.000 HD
BRANCH  17  19
ATOM     19  C   UNL     1       2.449   4.913  20.360  0.00  0.00    +0.000 C 
BRANCH  19  20
ATOM     20  C   UNL     1       2.121   6.374  20.202  0.00  0.00    +0.000 A 
ATOM     21  C   UNL     1       1.578   7.076  21.281  0.00  0.00    +0.000 A 
ATOM     22  C   UNL     1       1.048   8.341  21.078  0.00  0.00    +0.000 A 
ATOM     23  C   UNL     1       1.190   8.962  19.828  0.00  0.00    +0.000 A 
ATOM     24  C   UNL     1       0.627  10.208  19.567  0.00  0.00    +0.000 A 
ATOM     25  C   UNL     1       1.221  11.021  18.621  0.00  0.00    +0.000 A 
ATOM     26  C   UNL     1       2.093  10.417  17.741  0.00  0.00    +0.000 A 
ATOM     27  N   UNL     1       2.378   9.092  17.753  0.00  0.00    +0.000 NA
ATOM     28  C   UNL     1       1.971   8.380  18.821  0.00  0.00    +0.000 A 
ATOM     29  C   UNL     1       2.322   7.044  18.983  0.00  0.00    +0.000 A 
ENDBRANCH  19  20
ENDBRANCH  17  19
ENDBRANCH   1  17
TORSDOF 4
ENDMDL
MODEL 7
REMARK VINA RESULT:      -8.4      2.000      2.604
REMARK  Name = 
REMARK  4 active torsions:
REMARK  status: ('A' for Active; 'I' for Inactive)
REMARK    1  A    between atoms: C_7  and  S_8
REMARK    2  A    between atoms: S_8  and  N_11
REMARK    3  A    between atoms: N_11  and  C_12
REMARK    4  A    between atoms: C_12  and  C_13
REMARK                            x       y       z     vdW  Elec       q    Type
REMARK                         _______ _______ _______ _____ _____    ______ ____
ROOT
ATOM      1  S   UNL     1       3.435   2.381  19.264  0.00  0.00    +0.000 S 
ATOM      2  O   UNL     1       3.179   1.353  18.287  0.00  0.00    +0.000 OA
ATOM      3  O   UNL     1       4.025   2.070  20.537  0.00  0.00    +0.000 OA
ENDROOT
BRANCH   1  10
ATOM      4  O   UNL     1       8.068   8.503  17.041  0.00  0.00    +0.000 OA
ATOM      5  C   UNL     1       7.615   7.462  17.477  0.00  0.00    +0.000 C 
ATOM      6  C   UNL     1       8.263   6.738  18.645  0.00  0.00    +0.000 C 
ATOM      7  C   UNL     1       7.241   6.026  19.519  0.00  0.00    +0.000 C 
ATOM      8  C   UNL     1       6.231   5.266  18.701  0.00  0.00    +0.000 A 
ATOM      9  C   UNL     1       5.499   4.217  19.273  0.00  0.00    +0.000 A 
ATOM     10  C   UNL     1       4.489   3.593  18.517  0.00  0.00    +0.000 A 
ATOM     11  C   UNL     1       4.229   3.998  17.210  0.00  0.00    +0.000 A 
ATOM     12  F   UNL     1       3.314   3.352  16.460  0.00  0.00    +0.000 F 
ATOM     13  C   UNL     1       4.929   5.061  16.649  0.00  0.00    +0.000 A 
ATOM     14  C   UNL     1       5.920   5.699  17.403  0.00  0.00    +0.000 A 
ATOM     15  N   UNL     1       6.571   6.821  16.879  0.00  0.00    +0.000 N 
ATOM     16  H   UNL     1       6.232   7.247  16.022  0.00  0.00    +0.000 HD
ENDBRANCH   1  10
BRANCH   1  17
ATOM     17  N   UNL     1       2.009   3.222  19.538  0.00  0.00    +0.000 NA
ATOM     18  H   UNL     1       1.195   2.611  19.620  0.00  0.00    +0.000 HD
BRANCH  17  19
ATOM     19  C   UNL     1       2.075   4.296  20.530  0.00  0.00    +0.000 C 
BRANCH  19  20
ATOM     20  C   UNL     1       1.893   5.649  19.893  0.00  0.00    +0.000 A 
ATOM     21  C   UNL     1       1.985   5.771  18.504  0.00  0.00    +0.000 A 
ATOM     22  C   UNL     1       2.066   7.032  17.931  0.00  0.00    +0.000 A 
ATOM     23  C   UNL     1       1.912   8.171  18.734  0.00  0.00    +0.000 A 
ATOM     24  C   UNL     1       2.039   9.454  18.209  0.00  0.00    +0.000 A 
ATOM     25  C   UNL     1       1.354  10.491  18.811  0.00  0.00    +0.000 A 
ATOM     26  C   UNL     1       0.894  10.271  20.092  0.00  0.00    +0.000 A 
ATOM     27  N   UNL     1       1.090   9.117  20.775  0.00  0.00    +0.000 NA
ATOM     28  C   UNL     1       1.548   8.057  20.082  0.00  0.00    +0.000 A 
ATOM     29  C   UNL     1       1.664   6.800  20.666  0.00  0.00    +0.000 A 
ENDBRANCH  19  20
ENDBRANCH  17  19
ENDBRANCH   1  17
TORSDOF 4
ENDMDL
MODEL 8
REMARK VINA RESULT:      -8.3      4.930      6.967
REMARK  Name = 
REMARK  4 active torsions:
REMARK  status: ('A' for Active; 'I' for Inactive)
REMARK    1  A    between atoms: C_7  and  S_8
REMARK    2  A    between atoms: S_8  and  N_11
REMARK    3  A    between atoms: N_11  and  C_12
REMARK    4  A    between atoms: C_12  and  C_13
REMARK                            x       y       z     vdW  Elec       q    Type
REMARK                         _______ _______ _______ _____ _____    ______ ____
ROOT
ATOM      1  S   UNL     1       6.317   6.640  16.471  0.00  0.00    +0.000 S 
ATOM      2  O   UNL     1       7.532   5.935  16.148  0.00  0.00    +0.000 OA
ATOM      3  O   UNL     1       5.421   7.093  15.443  0.00  0.00    +0.000 OA
ENDROOT
BRANCH   1  10
ATOM      4  O   UNL     1       0.997   2.838  21.067  0.00  0.00    +0.000 OA
ATOM      5  C   UNL     1       1.693   3.247  20.158  0.00  0.00    +0.000 C 
ATOM      6  C   UNL     1       1.208   3.244  18.719  0.00  0.00    +0.000 C 
ATOM      7  C   UNL     1       1.756   4.421  17.925  0.00  0.00    +0.000 C 
ATOM      8  C   UNL     1       3.228   4.628  18.165  0.00  0.00    +0.000 A 
ATOM      9  C   UNL     1       4.005   5.336  17.239  0.00  0.00    +0.000 A 
ATOM     10  C   UNL     1       5.354   5.604  17.539  0.00  0.00    +0.000 A 
ATOM     11  C   UNL     1       5.919   5.156  18.730  0.00  0.00    +0.000 A 
ATOM     12  F   UNL     1       7.229   5.346  18.985  0.00  0.00    +0.000 F 
ATOM     13  C   UNL     1       5.143   4.482  19.667  0.00  0.00    +0.000 A 
ATOM     14  C   UNL     1       3.796   4.231  19.385  0.00  0.00    +0.000 A 
ATOM     15  N   UNL     1       2.987   3.628  20.355  0.00  0.00    +0.000 N 
ATOM     16  H   UNL     1       3.341   3.501  21.299  0.00  0.00    +0.000 HD
ENDBRANCH   1  10
BRANCH   1  17
ATOM     17  N   UNL     1       6.704   7.949  17.445  0.00  0.00    +0.000 NA
ATOM     18  H   UNL     1       6.087   8.041  18.255  0.00  0.00    +0.000 HD
BRANCH  17  19
ATOM     19  C   UNL     1       8.126   8.143  17.730  0.00  0.00    +0.000 C 
BRANCH  19  20
ATOM     20  C   UNL     1       8.414   9.551  18.181  0.00  0.00    +0.000 A 
ATOM     21  C   UNL     1       7.983  10.624  17.395  0.00  0.00    +0.000 A 
ATOM     22  C   UNL     1       8.450  11.902  17.665  0.00  0.00    +0.000 A 
ATOM     23  C   UNL     1       9.233  12.128  18.807  0.00  0.00    +0.000 A 
ATOM     24  C   UNL     1       9.765  13.384  19.086  0.00  0.00    +0.000 A 
ATOM     25  C   UNL     1      10.010  13.725  20.402  0.00  0.00    +0.000 A 
ATOM     26  C   UNL     1      10.066  12.691  21.313  0.00  0.00    +0.000 A 
ATOM     27  N   UNL     1       9.909  11.387  20.982  0.00  0.00    +0.000 NA
ATOM     28  C   UNL     1       9.443  11.112  19.748  0.00  0.00    +0.000 A 
ATOM     29  C   UNL     1       9.132   9.814  19.359  0.00  0.00    +0.000 A 
ENDBRANCH  19  20
ENDBRANCH  17  19
ENDBRANCH   1  17
TORSDOF 4
ENDMDL
MODEL 9
REMARK VINA RESULT:      -8.3      2.758      7.573
REMARK  Name = 
REMARK  4 active torsions:
REMARK  status: ('A' for Active; 'I' for Inactive)
REMARK    1  A    between atoms: C_7  and  S_8
REMARK    2  A    between atoms: S_8  and  N_11
REMARK    3  A    between atoms: N_11  and  C_12
REMARK    4  A    between atoms: C_12  and  C_13
REMARK                            x       y       z     vdW  Elec       q    Type
REMARK                         _______ _______ _______ _____ _____    ______ ____
ROOT
ATOM      1  S   UNL     1       2.524   5.372  19.850  0.00  0.00    +0.000 S 
ATOM      2  O   UNL     1       2.159   5.162  21.228  0.00  0.00    +0.000 OA
ATOM      3  O   UNL     1       1.938   4.592  18.796  0.00  0.00    +0.000 OA
ENDROOT
BRANCH   1  10
ATOM      4  O   UNL     1      -0.174  12.789  18.582  0.00  0.00    +0.000 OA
ATOM      5  C   UNL     1       0.322  11.773  19.030  0.00  0.00    +0.000 C 
ATOM      6  C   UNL     1       0.383  11.508  20.525  0.00  0.00    +0.000 C 
ATOM      7  C   UNL     1       0.252  10.028  20.852  0.00  0.00    +0.000 C 
ATOM      8  C   UNL     1       1.109   9.173  19.956  0.00  0.00    +0.000 A 
ATOM      9  C   UNL     1       1.477   7.879  20.351  0.00  0.00    +0.000 A 
ATOM     10  C   UNL     1       2.190   7.066  19.450  0.00  0.00    +0.000 A 
ATOM     11  C   UNL     1       2.543   7.542  18.190  0.00  0.00    +0.000 A 
ATOM     12  F   UNL     1       3.291   6.792  17.356  0.00  0.00    +0.000 F 
ATOM     13  C   UNL     1       2.151   8.812  17.782  0.00  0.00    +0.000 A 
ATOM     14  C   UNL     1       1.424   9.619  18.664  0.00  0.00    +0.000 A 
ATOM     15  N   UNL     1       0.953  10.865  18.233  0.00  0.00    +0.000 N 
ATOM     16  H   UNL     1       1.021  11.118  17.252  0.00  0.00    +0.000 HD
ENDBRANCH   1  10
BRANCH   1  17
ATOM     17  N   UNL     1       4.192   5.263  19.718  0.00  0.00    +0.000 NA
ATOM     18  H   UNL     1       4.683   5.628  20.537  0.00  0.00    +0.000 HD
BRANCH  17  19
ATOM     19  C   UNL     1       4.717   3.999  19.200  0.00  0.00    +0.000 C 
BRANCH  19  20
ATOM     20  C   UNL     1       5.504   4.204  17.933  0.00  0.00    +0.000 A 
ATOM     21  C   UNL     1       6.790   4.748  18.005  0.00  0.00    +0.000 A 
ATOM     22  C   UNL     1       7.422   5.167  16.844  0.00  0.00    +0.000 A 
ATOM     23  C   UNL     1       6.829   4.912  15.599  0.00  0.00    +0.000 A 
ATOM     24  C   UNL     1       7.403   5.362  14.413  0.00  0.00    +0.000 A 
ATOM     25  C   UNL     1       7.165   4.659  13.249  0.00  0.00    +0.000 A 
ATOM     26  C   UNL     1       6.094   3.791  13.255  0.00  0.00    +0.000 A 
ATOM     27  N   UNL     1       5.277   3.610  14.321  0.00  0.00    +0.000 NA
ATOM     28  C   UNL     1       5.674   4.126  15.500  0.00  0.00    +0.000 A 
ATOM     29  C   UNL     1       4.966   3.888  16.673  0.00  0.00    +0.000 A 
ENDBRANCH  19  20
ENDBRANCH  17  19
ENDBRANCH   1  17
TORSDOF 4
ENDMDL
