MODEL 1
REMARK VINA RESULT:      -9.1      0.000      0.000
REMARK  Name = 
REMARK  5 active torsions:
REMARK  status: ('A' for Active; 'I' for Inactive)
REMARK    1  A    between atoms: C_1  and  C_2
REMARK    2  A    between atoms: C_6  and  C_7
REMARK    3  A    between atoms: C_11  and  N_12
REMARK    4  A    between atoms: C_13  and  C_15
REMARK    5  A    between atoms: C_15  and  N_16
REMARK                            x       y       z     vdW  Elec       q    Type
REMARK                         _______ _______ _______ _____ _____    ______ ____
ROOT
ATOM      1  N   UNL     1       2.578   6.631  20.246  0.00  0.00    +0.000 N 
ATOM      2  C   UNL     1       2.067   5.336  20.350  0.00  0.00    +0.000 C 
ATOM      3  O   UNL     1       0.875   5.047  20.475  0.00  0.00    +0.000 OA
ATOM      4  H   UNL     1       3.592   6.719  20.255  0.00  0.00    +0.000 HD
ENDROOT
BRANCH   1  12
ATOM      5  C   UNL     1       2.140   8.245  17.779  0.00  0.00    +0.000 C 
ATOM      6  C   UNL     1       1.617   8.616  19.138  0.00  0.00    +0.000 A 
ATOM      7  C   UNL     1       0.877   9.809  19.254  0.00  0.00    +0.000 A 
ATOM      8  F   UNL     1       0.682  10.580  18.173  0.00  0.00    +0.000 F 
ATOM      9  C   UNL     1       0.341  10.238  20.462  0.00  0.00    +0.000 A 
ATOM     10  C   UNL     1       0.518   9.451  21.592  0.00  0.00    +0.000 A 
ATOM     11  C   UNL     1       1.211   8.242  21.490  0.00  0.00    +0.000 A 
ATOM     12  C   UNL     1       1.805   7.824  20.289  0.00  0.00    +0.000 A 
BRANCH  10  13
ATOM     13  C   UNL     1      -0.045   9.905  22.889  0.00  0.00    +0.000 C 
ATOM     14  N   UNL     1      -1.156  10.702  22.846  0.00  0.00    +0.000 N 
ATOM     15  O   UNL     1       0.445   9.553  23.953  0.00  0.00    +0.000 OA
ATOM     16  H   UNL     1      -1.684  10.884  21.999  0.00  0.00    +0.000 HD
ATOM     17  H   UNL     1      -1.577  10.954  23.727  0.00  0.00    +0.000 HD
ENDBRANCH  10  13
ENDBRANCH   1  12
BRANCH   2  18
ATOM     18  C   UNL     1       3.098   4.222  20.247  0.00  0.00    +0.000 C 
BRANCH  18  19
ATOM     19  N   UNL     1       4.102   4.516  19.234  0.00  0.00    +0.000 N 
ATOM     20  N   UNL     1       5.214   5.208  19.662  0.00  0.00    +0.000 NA
ATOM     21  C   UNL     1       6.138   5.485  18.798  0.00  0.00    +0.000 A 
ATOM     22  C   UNL     1       6.092   5.077  17.400  0.00  0.00    +0.000 A 
ATOM     23  C   UNL     1       7.149   5.356  16.533  0.00  0.00    +0.000 A 
ATOM     24  C   UNL     1       7.077   4.910  15.213  0.00  0.00    +0.000 A 
ATOM     25  C   UNL     1       5.959   4.196  14.771  0.00  0.00    +0.000 A 
ATOM     26  C   UNL     1       4.900   3.937  15.644  0.00  0.00    +0.000 A 
ATOM     27  C   UNL     1       4.970   4.387  16.965  0.00  0.00    +0.000 A 
ATOM     28  C   UNL     1       3.870   4.149  17.914  0.00  0.00    +0.000 A 
ATOM     29  O   UNL     1       2.806   3.676  17.522  0.00  0.00    +0.000 OA
ENDBRANCH  18  19
ENDBRANCH   2  18
TORSDOF 4
ENDMDL
MODEL 2
REMARK VINA RESULT:      -8.9      1.004      1.586
REMARK  Name = 
REMARK  5 active torsions:
REMARK  status: ('A' for Active; 'I' for Inactive)
REMARK    1  A    between atoms: C_1  and  C_2
REMARK    2  A    between atoms: C_6  and  C_7
REMARK    3  A    between atoms: C_11  and  N_12
REMARK    4  A    between atoms: C_13  and  C_15
REMARK    5  A    between atoms: C_15  and  N_16
REMARK                            x       y       z     vdW  Elec       q    Type
REMARK                         _______ _______ _______ _____ _____    ______ ____
ROOT
ATOM      1  N   UNL     1       2.623   6.669  20.238  0.00  0.00    +0.000 N 
ATOM      2  C   UNL     1       2.158   5.367  20.435  0.00  0.00    +0.000 C 
ATOM      3  O   UNL     1       0.986   5.052  20.648  0.00  0.00    +0.000 OA
ATOM      4  H   UNL     1       3.631   6.785  20.178  0.00  0.00    +0.000 HD
ENDROOT
BRANCH   1  12
ATOM      5  C   UNL     1       2.111   8.234  17.754  0.00  0.00    +0.000 C 
ATOM      6  C   UNL     1       1.594   8.610  19.114  0.00  0.00    +0.000 A 
ATOM      7  C   UNL     1       0.823   9.785  19.223  0.00  0.00    +0.000 A 
ATOM      8  F   UNL     1       0.594  10.535  18.133  0.00  0.00    +0.000 F 
ATOM      9  C   UNL     1       0.290  10.215  20.431  0.00  0.00    +0.000 A 
ATOM     10  C   UNL     1       0.501   9.450  21.570  0.00  0.00    +0.000 A 
ATOM     11  C   UNL     1       1.226   8.259  21.475  0.00  0.00    +0.000 A 
ATOM     12  C   UNL     1       1.817   7.840  20.273  0.00  0.00    +0.000 A 
BRANCH  10  13
ATOM     13  C   UNL     1      -0.058   9.907  22.866  0.00  0.00    +0.000 C 
ATOM     14  N   UNL     1      -1.171  10.702  22.825  0.00  0.00    +0.000 N 
ATOM     15  O   UNL     1       0.434   9.558  23.930  0.00  0.00    +0.000 OA
ATOM     16  H   UNL     1      -1.702  10.881  21.978  0.00  0.00    +0.000 HD
ATOM     17  H   UNL     1      -1.590  10.956  23.706  0.00  0.00    +0.000 HD
ENDBRANCH  10  13
ENDBRANCH   1  12
BRANCH   2  18
ATOM     18  C   UNL     1       3.215   4.278  20.319  0.00  0.00    +0.000 C 
BRANCH  18  19
ATOM     19  N   UNL     1       3.813   4.254  18.992  0.00  0.00    +0.000 N 
ATOM     20  N   UNL     1       2.962   3.971  17.946  0.00  0.00    +0.000 NA
ATOM     21  C   UNL     1       3.448   3.947  16.745  0.00  0.00    +0.000 A 
ATOM     22  C   UNL     1       4.839   4.237  16.425  0.00  0.00    +0.000 A 
ATOM     23  C   UNL     1       5.286   4.252  15.104  0.00  0.00    +0.000 A 
ATOM     24  C   UNL     1       6.619   4.575  14.845  0.00  0.00    +0.000 A 
ATOM     25  C   UNL     1       7.488   4.877  15.898  0.00  0.00    +0.000 A 
ATOM     26  C   UNL     1       7.032   4.842  17.217  0.00  0.00    +0.000 A 
ATOM     27  C   UNL     1       5.699   4.514  17.478  0.00  0.00    +0.000 A 
ATOM     28  C   UNL     1       5.181   4.452  18.854  0.00  0.00    +0.000 A 
ATOM     29  O   UNL     1       5.950   4.544  19.809  0.00  0.00    +0.000 OA
ENDBRANCH  18  19
ENDBRANCH   2  18
TORSDOF 4
ENDMDL
MODEL 3
REMARK VINA RESULT:      -7.8      3.381      5.129
REMARK  Name = 
REMARK  5 active torsions:
REMARK  status: ('A' for Active; 'I' for Inactive)
REMARK    1  A    between atoms: C_1  and  C_2
REMARK    2  A    between atoms: C_6  and  C_7
REMARK    3  A    between atoms: C_11  and  N_12
REMARK    4  A    between atoms: C_13  and  C_15
REMARK    5  A    between atoms: C_15  and  N_16
REMARK                            x       y       z     vdW  Elec       q    Type
REMARK                         _______ _______ _______ _____ _____    ______ ____
ROOT
ATOM      1  N   UNL     1       0.794   8.981  18.199  0.00  0.00    +0.000 N 
ATOM      2  C   UNL     1       2.096   9.348  17.853  0.00  0.00    +0.000 C 
ATOM      3  O   UNL     1       2.490  10.503  17.679  0.00  0.00    +0.000 OA
ATOM      4  H   UNL     1       0.592   7.985  18.204  0.00  0.00    +0.000 HD
ENDROOT
BRANCH   1  12
ATOM      5  C   UNL     1       0.513  10.510  20.742  0.00  0.00    +0.000 C 
ATOM      6  C   UNL     1      -0.455  10.588  19.595  0.00  0.00    +0.000 A 
ATOM      7  C   UNL     1      -1.573  11.434  19.735  0.00  0.00    +0.000 A 
ATOM      8  F   UNL     1      -1.753  12.117  20.876  0.00  0.00    +0.000 F 
ATOM      9  C   UNL     1      -2.522  11.585  18.732  0.00  0.00    +0.000 A 
ATOM     10  C   UNL     1      -2.351  10.899  17.537  0.00  0.00    +0.000 A 
ATOM     11  C   UNL     1      -1.226  10.089  17.361  0.00  0.00    +0.000 A 
ATOM     12  C   UNL     1      -0.289   9.883  18.386  0.00  0.00    +0.000 A 
BRANCH  10  13
ATOM     13  C   UNL     1      -3.364  11.049  16.462  0.00  0.00    +0.000 C 
ATOM     14  N   UNL     1      -4.366  11.957  16.666  0.00  0.00    +0.000 N 
ATOM     15  O   UNL     1      -3.287  10.410  15.422  0.00  0.00    +0.000 OA
ATOM     16  H   UNL     1      -4.377  12.618  17.437  0.00  0.00    +0.000 HD
ATOM     17  H   UNL     1      -5.014  12.108  15.908  0.00  0.00    +0.000 HD
ENDBRANCH  10  13
ENDBRANCH   1  12
BRANCH   2  18
ATOM     18  C   UNL     1       3.085   8.197  17.739  0.00  0.00    +0.000 C 
BRANCH  18  19
ATOM     19  N   UNL     1       2.686   7.067  18.567  0.00  0.00    +0.000 N 
ATOM     20  N   UNL     1       2.159   7.374  19.802  0.00  0.00    +0.000 NA
ATOM     21  C   UNL     1       1.782   6.402  20.570  0.00  0.00    +0.000 A 
ATOM     22  C   UNL     1       1.848   4.996  20.194  0.00  0.00    +0.000 A 
ATOM     23  C   UNL     1       1.371   4.000  21.045  0.00  0.00    +0.000 A 
ATOM     24  C   UNL     1       1.419   2.670  20.623  0.00  0.00    +0.000 A 
ATOM     25  C   UNL     1       1.940   2.348  19.366  0.00  0.00    +0.000 A 
ATOM     26  C   UNL     1       2.430   3.354  18.530  0.00  0.00    +0.000 A 
ATOM     27  C   UNL     1       2.386   4.684  18.954  0.00  0.00    +0.000 A 
ATOM     28  C   UNL     1       2.905   5.773  18.110  0.00  0.00    +0.000 A 
ATOM     29  O   UNL     1       3.521   5.517  17.078  0.00  0.00    +0.000 OA
ENDBRANCH  18  19
ENDBRANCH   2  18
TORSDOF 4
ENDMDL
MODEL 4
REMARK VINA RESULT:      -7.8      4.564      6.611
REMARK  Name = 
REMARK  5 active torsions:
REMARK  status: ('A' for Active; 'I' for Inactive)
REMARK    1  A    between atoms: C_1  and  C_2
REMARK    2  A    between atoms: C_6  and  C_7
REMARK    3  A    between atoms: C_11  and  N_12
REMARK    4  A    between atoms: C_13  and  C_15
REMARK    5  A    between atoms: C_15  and  N_16
REMARK                            x       y       z     vdW  Elec       q    Type
REMARK                         _______ _______ _______ _____ _____    ______ ____
ROOT
ATOM      1  N   UNL     1      -1.207  10.484  18.679  0.00  0.00    +0.000 N 
ATOM      2  C   UNL     1      -0.144  11.340  18.972  0.00  0.00    +0.000 C 
ATOM      3  O   UNL     1      -0.016  12.490  18.549  0.00  0.00    +0.000 OA
ATOM      4  H   UNL     1      -1.124   9.528  19.015  0.00  0.00    +0.000 HD
ENDROOT
BRANCH   1  12
ATOM      5  C   UNL     1      -3.468  12.154  19.669  0.00  0.00    +0.000 C 
ATOM      6  C   UNL     1      -3.395  11.559  18.291  0.00  0.00    +0.000 A 
ATOM      7  C   UNL     1      -4.470  11.800  17.412  0.00  0.00    +0.000 A 
ATOM      8  F   UNL     1      -5.521  12.522  17.829  0.00  0.00    +0.000 F 
ATOM      9  C   UNL     1      -4.495  11.303  16.115  0.00  0.00    +0.000 A 
ATOM     10  C   UNL     1      -3.413  10.564  15.656  0.00  0.00    +0.000 A 
ATOM     11  C   UNL     1      -2.318  10.351  16.498  0.00  0.00    +0.000 A 
ATOM     12  C   UNL     1      -2.302  10.798  17.828  0.00  0.00    +0.000 A 
BRANCH  10  13
ATOM     13  C   UNL     1      -3.436  10.024  14.275  0.00  0.00    +0.000 C 
ATOM     14  N   UNL     1      -4.660   9.794  13.710  0.00  0.00    +0.000 N 
ATOM     15  O   UNL     1      -2.402   9.824  13.652  0.00  0.00    +0.000 OA
ATOM     16  H   UNL     1      -5.536  10.095  14.127  0.00  0.00    +0.000 HD
ATOM     17  H   UNL     1      -4.677   9.492  12.748  0.00  0.00    +0.000 HD
ENDBRANCH  10  13
ENDBRANCH   1  12
BRANCH   2  18
ATOM     18  C   UNL     1       0.892  10.779  19.936  0.00  0.00    +0.000 C 
BRANCH  18  19
ATOM     19  N   UNL     1       1.416   9.502  19.473  0.00  0.00    +0.000 N 
ATOM     20  N   UNL     1       1.913   9.478  18.188  0.00  0.00    +0.000 NA
ATOM     21  C   UNL     1       2.398   8.365  17.735  0.00  0.00    +0.000 A 
ATOM     22  C   UNL     1       2.483   7.139  18.516  0.00  0.00    +0.000 A 
ATOM     23  C   UNL     1       3.071   5.989  17.989  0.00  0.00    +0.000 A 
ATOM     24  C   UNL     1       3.166   4.850  18.790  0.00  0.00    +0.000 A 
ATOM     25  C   UNL     1       2.676   4.867  20.100  0.00  0.00    +0.000 A 
ATOM     26  C   UNL     1       2.075   6.019  20.610  0.00  0.00    +0.000 A 
ATOM     27  C   UNL     1       1.976   7.158  19.807  0.00  0.00    +0.000 A 
ATOM     28  C   UNL     1       1.338   8.389  20.301  0.00  0.00    +0.000 A 
ATOM     29  O   UNL     1       0.748   8.391  21.380  0.00  0.00    +0.000 OA
ENDBRANCH  18  19
ENDBRANCH   2  18
TORSDOF 4
ENDMDL
MODEL 5
REMARK VINA RESULT:      -7.8      3.052      8.477
REMARK  Name = 
REMARK  5 active torsions:
REMARK  status: ('A' for Active; 'I' for Inactive)
REMARK    1  A    between atoms: C_1  and  C_2
REMARK    2  A    between atoms: C_6  and  C_7
REMARK    3  A    between atoms: C_11  and  N_12
REMARK    4  A    between atoms: C_13  and  C_15
REMARK    5  A    between atoms: C_15  and  N_16
REMARK                            x       y       z     vdW  Elec       q    Type
REMARK                         _______ _______ _______ _____ _____    ______ ____
ROOT
ATOM      1  N   UNL     1       3.825   7.625  17.646  0.00  0.00    +0.000 N 
ATOM      2  C   UNL     1       2.447   7.839  17.597  0.00  0.00    +0.000 C 
ATOM      3  O   UNL     1       1.596   6.970  17.397  0.00  0.00    +0.000 OA
ATOM      4  H   UNL     1       4.410   8.454  17.713  0.00  0.00    +0.000 HD
ENDROOT
BRANCH   1  12
ATOM      5  C   UNL     1       3.662   5.497  19.726  0.00  0.00    +0.000 C 
ATOM      6  C   UNL     1       4.428   5.367  18.440  0.00  0.00    +0.000 A 
ATOM      7  C   UNL     1       5.121   4.162  18.206  0.00  0.00    +0.000 A 
ATOM      8  F   UNL     1       5.097   3.190  19.131  0.00  0.00    +0.000 F 
ATOM      9  C   UNL     1       5.850   3.937  17.045  0.00  0.00    +0.000 A 
ATOM     10  C   UNL     1       5.879   4.922  16.068  0.00  0.00    +0.000 A 
ATOM     11  C   UNL     1       5.163   6.107  16.261  0.00  0.00    +0.000 A 
ATOM     12  C   UNL     1       4.468   6.371  17.451  0.00  0.00    +0.000 A 
BRANCH  10  13
ATOM     13  C   UNL     1       6.662   4.693  14.828  0.00  0.00    +0.000 C 
ATOM     14  N   UNL     1       6.294   3.639  14.039  0.00  0.00    +0.000 N 
ATOM     15  O   UNL     1       7.579   5.437  14.507  0.00  0.00    +0.000 OA
ATOM     16  H   UNL     1       5.446   3.098  14.183  0.00  0.00    +0.000 HD
ATOM     17  H   UNL     1       6.782   3.524  13.163  0.00  0.00    +0.000 HD
ENDBRANCH  10  13
ENDBRANCH   1  12
BRANCH   2  18
ATOM     18  C   UNL     1       2.003   9.269  17.867  0.00  0.00    +0.000 C 
BRANCH  18  19
ATOM     19  N   UNL     1       1.342   9.389  19.159  0.00  0.00    +0.000 N 
ATOM     20  N   UNL     1       1.654   8.424  20.093  0.00  0.00    +0.000 NA
ATOM     21  C   UNL     1       1.096   8.494  21.260  0.00  0.00    +0.000 A 
ATOM     22  C   UNL     1       0.182   9.555  21.662  0.00  0.00    +0.000 A 
ATOM     23  C   UNL     1      -0.338   9.605  22.955  0.00  0.00    +0.000 A 
ATOM     24  C   UNL     1      -1.178  10.663  23.306  0.00  0.00    +0.000 A 
ATOM     25  C   UNL     1      -1.490  11.654  22.370  0.00  0.00    +0.000 A 
ATOM     26  C   UNL     1      -0.976  11.584  21.074  0.00  0.00    +0.000 A 
ATOM     27  C   UNL     1      -0.138  10.522  20.721  0.00  0.00    +0.000 A 
ATOM     28  C   UNL     1       0.414  10.402  19.362  0.00  0.00    +0.000 A 
ATOM     29  O   UNL     1       0.031  11.155  18.469  0.00  0.00    +0.000 OA
ENDBRANCH  18  19
ENDBRANCH   2  18
TORSDOF 4
ENDMDL
MODEL 6
REMARK VINA RESULT:      -7.7      3.033      8.080
REMARK  Name = 
REMARK  5 active torsions:
REMARK  status: ('A' for Active; 'I' for Inactive)
REMARK    1  A    between atoms: C_1  and  C_2
REMARK    2  A    between atoms: C_6  and  C_7
REMARK    3  A    between atoms: C_11  and  N_12
REMARK    4  A    between atoms: C_13  and  C_15
REMARK    5  A    between atoms: C_15  and  N_16
REMARK                            x       y       z     vdW  Elec       q    Type
REMARK                         _______ _______ _______ _____ _____    ______ ____
ROOT
ATOM      1  N   UNL     1       2.791   7.728  18.576  0.00  0.00    +0.000 N 
ATOM      2  C   UNL     1       1.814   8.581  18.059  0.00  0.00    +0.000 C 
ATOM      3  O   UNL     1       0.904   8.247  17.298  0.00  0.00    +0.000 OA
ATOM      4  H   UNL     1       3.539   8.166  19.106  0.00  0.00    +0.000 HD
ENDROOT
BRANCH   1  12
ATOM      5  C   UNL     1       4.954   6.716  16.793  0.00  0.00    +0.000 C 
ATOM      6  C   UNL     1       3.899   5.850  17.420  0.00  0.00    +0.000 A 
ATOM      7  C   UNL     1       3.930   4.469  17.140  0.00  0.00    +0.000 A 
ATOM      8  F   UNL     1       4.870   3.977  16.319  0.00  0.00    +0.000 F 
ATOM      9  C   UNL     1       3.007   3.580  17.677  0.00  0.00    +0.000 A 
ATOM     10  C   UNL     1       2.033   4.062  18.541  0.00  0.00    +0.000 A 
ATOM     11  C   UNL     1       2.012   5.422  18.866  0.00  0.00    +0.000 A 
ATOM     12  C   UNL     1       2.902   6.340  18.288  0.00  0.00    +0.000 A 
BRANCH  10  13
ATOM     13  C   UNL     1       1.039   3.121  19.113  0.00  0.00    +0.000 C 
ATOM     14  N   UNL     1       0.651   3.328  20.408  0.00  0.00    +0.000 N 
ATOM     15  O   UNL     1       0.559   2.217  18.443  0.00  0.00    +0.000 OA
ATOM     16  H   UNL     1       0.900   4.154  20.944  0.00  0.00    +0.000 HD
ATOM     17  H   UNL     1      -0.074   2.731  20.775  0.00  0.00    +0.000 HD
ENDBRANCH  10  13
ENDBRANCH   1  12
BRANCH   2  18
ATOM     18  C   UNL     1       1.891  10.022  18.542  0.00  0.00    +0.000 C 
BRANCH  18  19
ATOM     19  N   UNL     1       1.027  10.247  19.692  0.00  0.00    +0.000 N 
ATOM     20  N   UNL     1       1.232   9.423  20.777  0.00  0.00    +0.000 NA
ATOM     21  C   UNL     1       0.492   9.590  21.828  0.00  0.00    +0.000 A 
ATOM     22  C   UNL     1      -0.526  10.625  21.947  0.00  0.00    +0.000 A 
ATOM     23  C   UNL     1      -1.248  10.791  23.129  0.00  0.00    +0.000 A 
ATOM     24  C   UNL     1      -2.185  11.823  23.210  0.00  0.00    +0.000 A 
ATOM     25  C   UNL     1      -2.392  12.673  22.119  0.00  0.00    +0.000 A 
ATOM     26  C   UNL     1      -1.674  12.486  20.936  0.00  0.00    +0.000 A 
ATOM     27  C   UNL     1      -0.739  11.451  20.853  0.00  0.00    +0.000 A 
ATOM     28  C   UNL     1       0.029  11.210  19.621  0.00  0.00    +0.000 A 
ATOM     29  O   UNL     1      -0.244  11.825  18.592  0.00  0.00    +0.000 OA
ENDBRANCH  18  19
ENDBRANCH   2  18
TORSDOF 4
ENDMDL
MODEL 7
REMARK VINA RESULT:      -7.6      3.013      8.242
REMARK  Name = 
REMARK  5 active torsions:
REMARK  status: ('A' for Active; 'I' for Inactive)
REMARK    1  A    between atoms: C_1  and  C_2
REMARK    2  A    between atoms: C_6  and  C_7
REMARK    3  A    between atoms: C_11  and  N_12
REMARK    4  A    between atoms: C_13  and  C_15
REMARK    5  A    between atoms: C_15  and  N_16
REMARK                            x       y       z     vdW  Elec       q    Type
REMARK                         _______ _______ _______ _____ _____    ______ ____
ROOT
ATOM      1  N   UNL     1       2.209   6.586  18.209  0.00  0.00    +0.000 N 
ATOM      2  C   UNL     1       2.641   7.891  17.962  0.00  0.00    +0.000 C 
ATOM      3  O   UNL     1       3.814   8.239  17.815  0.00  0.00    +0.000 OA
ATOM      4  H   UNL     1       1.220   6.469  18.414  0.00  0.00    +0.000 HD
ENDROOT
BRANCH   1  12
ATOM      5  C   UNL     1       1.342   4.229  19.813  0.00  0.00    +0.000 C 
ATOM      6  C   UNL     1       2.677   4.346  19.133  0.00  0.00    +0.000 A 
ATOM      7  C   UNL     1       3.581   3.273  19.268  0.00  0.00    +0.000 A 
ATOM      8  F   UNL     1       3.241   2.206  20.007  0.00  0.00    +0.000 F 
ATOM      9  C   UNL     1       4.835   3.278  18.671  0.00  0.00    +0.000 A 
ATOM     10  C   UNL     1       5.204   4.365  17.891  0.00  0.00    +0.000 A 
ATOM     11  C   UNL     1       4.306   5.419  17.708  0.00  0.00    +0.000 A 
ATOM     12  C   UNL     1       3.058   5.455  18.350  0.00  0.00    +0.000 A 
BRANCH  10  13
ATOM     13  C   UNL     1       6.546   4.381  17.256  0.00  0.00    +0.000 C 
ATOM     14  N   UNL     1       7.633   4.381  18.086  0.00  0.00    +0.000 N 
ATOM     15  O   UNL     1       6.675   4.361  16.040  0.00  0.00    +0.000 OA
ATOM     16  H   UNL     1       7.574   4.237  19.089  0.00  0.00    +0.000 HD
ATOM     17  H   UNL     1       8.543   4.324  17.655  0.00  0.00    +0.000 HD
ENDBRANCH  10  13
ENDBRANCH   1  12
BRANCH   2  18
ATOM     18  C   UNL     1       1.532   8.925  17.824  0.00  0.00    +0.000 C 
BRANCH  18  19
ATOM     19  N   UNL     1       0.966   9.277  19.119  0.00  0.00    +0.000 N 
ATOM     20  N   UNL     1       1.415   8.546  20.198  0.00  0.00    +0.000 NA
ATOM     21  C   UNL     1       0.945   8.829  21.372  0.00  0.00    +0.000 A 
ATOM     22  C   UNL     1      -0.007   9.901  21.630  0.00  0.00    +0.000 A 
ATOM     23  C   UNL     1      -0.428  10.192  22.927  0.00  0.00    +0.000 A 
ATOM     24  C   UNL     1      -1.310  11.255  23.129  0.00  0.00    +0.000 A 
ATOM     25  C   UNL     1      -1.762  12.011  22.043  0.00  0.00    +0.000 A 
ATOM     26  C   UNL     1      -1.345  11.699  20.747  0.00  0.00    +0.000 A 
ATOM     27  C   UNL     1      -0.465  10.632  20.544  0.00  0.00    +0.000 A 
ATOM     28  C   UNL     1      -0.012  10.260  19.194  0.00  0.00    +0.000 A 
ATOM     29  O   UNL     1      -0.515  10.789  18.205  0.00  0.00    +0.000 OA
ENDBRANCH  18  19
ENDBRANCH   2  18
TORSDOF 4
ENDMDL
MODEL 8
REMARK VINA RESULT:      -7.5      3.539      7.969
REMARK  Name = 
REMARK  5 active torsions:
REMARK  status: ('A' for Active; 'I' for Inactive)
REMARK    1  A    between atoms: C_1  and  C_2
REMARK    2  A    between atoms: C_6  and  C_7
REMARK    3  A    between atoms: C_11  and  N_12
REMARK    4  A    between atoms: C_13  and  C_15
REMARK    5  A    between atoms: C_15  and  N_16
REMARK                            x       y       z     vdW  Elec       q    Type
REMARK                         _______ _______ _______ _____ _____    ______ ____
ROOT
ATOM      1  N   UNL     1       1.920   8.257  19.349  0.00  0.00    +0.000 N 
ATOM      2  C   UNL     1       1.148   8.816  20.369  0.00  0.00    +0.000 C 
ATOM      3  O   UNL     1       0.786   8.233  21.392  0.00  0.00    +0.000 OA
ATOM      4  H   UNL     1       2.051   8.826  18.516  0.00  0.00    +0.000 HD
ENDROOT
BRANCH   1  12
ATOM      5  C   UNL     1       3.980   7.417  17.365  0.00  0.00    +0.000 C 
ATOM      6  C   UNL     1       3.343   6.495  18.367  0.00  0.00    +0.000 A 
ATOM      7  C   UNL     1       3.741   5.143  18.363  0.00  0.00    +0.000 A 
ATOM      8  F   UNL     1       4.644   4.718  17.466  0.00  0.00    +0.000 F 
ATOM      9  C   UNL     1       3.221   4.213  19.253  0.00  0.00    +0.000 A 
ATOM     10  C   UNL     1       2.296   4.631  20.199  0.00  0.00    +0.000 A 
ATOM     11  C   UNL     1       1.920   5.977  20.249  0.00  0.00    +0.000 A 
ATOM     12  C   UNL     1       2.394   6.917  19.321  0.00  0.00    +0.000 A 
BRANCH  10  13
ATOM     13  C   UNL     1       1.729   3.642  21.150  0.00  0.00    +0.000 C 
ATOM     14  N   UNL     1       0.609   2.962  20.756  0.00  0.00    +0.000 N 
ATOM     15  O   UNL     1       2.262   3.417  22.228  0.00  0.00    +0.000 OA
ATOM     16  H   UNL     1       0.232   3.000  19.814  0.00  0.00    +0.000 HD
ATOM     17  H   UNL     1       0.264   2.242  21.372  0.00  0.00    +0.000 HD
ENDBRANCH  10  13
ENDBRANCH   1  12
BRANCH   2  18
ATOM     18  C   UNL     1       0.789  10.283  20.179  0.00  0.00    +0.000 C 
BRANCH  18  19
ATOM     19  N   UNL     1      -0.361  10.442  19.301  0.00  0.00    +0.000 N 
ATOM     20  N   UNL     1      -0.298   9.786  18.091  0.00  0.00    +0.000 NA
ATOM     21  C   UNL     1      -1.303   9.891  17.280  0.00  0.00    +0.000 A 
ATOM     22  C   UNL     1      -2.518  10.636  17.583  0.00  0.00    +0.000 A 
ATOM     23  C   UNL     1      -3.588  10.661  16.690  0.00  0.00    +0.000 A 
ATOM     24  C   UNL     1      -4.747  11.355  17.042  0.00  0.00    +0.000 A 
ATOM     25  C   UNL     1      -4.827  12.014  18.273  0.00  0.00    +0.000 A 
ATOM     26  C   UNL     1      -3.741  11.995  19.152  0.00  0.00    +0.000 A 
ATOM     27  C   UNL     1      -2.580  11.304  18.798  0.00  0.00    +0.000 A 
ATOM     28  C   UNL     1      -1.408  11.270  19.688  0.00  0.00    +0.000 A 
ATOM     29  O   UNL     1      -1.376  11.972  20.696  0.00  0.00    +0.000 OA
ENDBRANCH  18  19
ENDBRANCH   2  18
TORSDOF 4
ENDMDL
MODEL 9
REMARK VINA RESULT:      -7.5      2.971      7.903
REMARK  Name = 
REMARK  5 active torsions:
REMARK  status: ('A' for Active; 'I' for Inactive)
REMARK    1  A    between atoms: C_1  and  C_2
REMARK    2  A    between atoms: C_6  and  C_7
REMARK    3  A    between atoms: C_11  and  N_12
REMARK    4  A    between atoms: C_13  and  C_15
REMARK    5  A    between atoms: C_15  and  N_16
REMARK                            x       y       z     vdW  Elec       q    Type
REMARK                         _______ _______ _______ _____ _____    ______ ____
ROOT
ATOM      1  N   UNL     1       2.882   7.512  19.025  0.00  0.00    +0.000 N 
ATOM      2  C   UNL     1       1.911   8.121  18.228  0.00  0.00    +0.000 C 
ATOM      3  O   UNL     1       1.164   7.536  17.441  0.00  0.00    +0.000 OA
ATOM      4  H   UNL     1       3.495   8.134  19.547  0.00  0.00    +0.000 HD
ENDROOT
BRANCH   1  12
ATOM      5  C   UNL     1       4.685   6.322  16.972  0.00  0.00    +0.000 C 
ATOM      6  C   UNL     1       4.001   5.537  18.055  0.00  0.00    +0.000 A 
ATOM      7  C   UNL     1       4.220   4.145  18.098  0.00  0.00    +0.000 A 
ATOM      8  F   UNL     1       5.001   3.566  17.174  0.00  0.00    +0.000 F 
ATOM      9  C   UNL     1       3.642   3.331  19.064  0.00  0.00    +0.000 A 
ATOM     10  C   UNL     1       2.841   3.909  20.039  0.00  0.00    +0.000 A 
ATOM     11  C   UNL     1       2.646   5.293  20.041  0.00  0.00    +0.000 A 
ATOM     12  C   UNL     1       3.177   6.121  19.039  0.00  0.00    +0.000 A 
BRANCH  10  13
ATOM     13  C   UNL     1       2.214   3.045  21.071  0.00  0.00    +0.000 C 
ATOM     14  N   UNL     1       0.861   2.857  20.994  0.00  0.00    +0.000 N 
ATOM     15  O   UNL     1       2.884   2.495  21.934  0.00  0.00    +0.000 OA
ATOM     16  H   UNL     1       0.295   3.161  20.208  0.00  0.00    +0.000 HD
ATOM     17  H   UNL     1       0.445   2.217  21.653  0.00  0.00    +0.000 HD
ENDBRANCH  10  13
ENDBRANCH   1  12
BRANCH   2  18
ATOM     18  C   UNL     1       1.767   9.624  18.417  0.00  0.00    +0.000 C 
BRANCH  18  19
ATOM     19  N   UNL     1       0.964   9.940  19.590  0.00  0.00    +0.000 N 
ATOM     20  N   UNL     1       1.172   9.151  20.701  0.00  0.00    +0.000 NA
ATOM     21  C   UNL     1       0.486   9.401  21.771  0.00  0.00    +0.000 A 
ATOM     22  C   UNL     1      -0.472  10.491  21.886  0.00  0.00    +0.000 A 
ATOM     23  C   UNL     1      -1.136  10.743  23.087  0.00  0.00    +0.000 A 
ATOM     24  C   UNL     1      -2.015  11.825  23.160  0.00  0.00    +0.000 A 
ATOM     25  C   UNL     1      -2.224  12.639  22.043  0.00  0.00    +0.000 A 
ATOM     26  C   UNL     1      -1.566  12.367  20.842  0.00  0.00    +0.000 A 
ATOM     27  C   UNL     1      -0.689  11.282  20.767  0.00  0.00    +0.000 A 
ATOM     28  C   UNL     1       0.014  10.951  19.517  0.00  0.00    +0.000 A 
ATOM     29  O   UNL     1      -0.270  11.537  18.474  0.00  0.00    +0.000 OA
ENDBRANCH  18  19
ENDBRANCH   2  18
TORSDOF 4
ENDMDL
