MODEL 1
REMARK VINA RESULT:      -8.1      0.000      0.000
REMARK  Name = 
REMARK  6 active torsions:
REMARK  status: ('A' for Active; 'I' for Inactive)
REMARK    1  A    between atoms: C_1  and  C_2
REMARK    2  A    between atoms: C_2  and  C_3
REMARK    3  A    between atoms: C_3  and  N_4
REMARK    4  A    between atoms: C_5  and  C_7
REMARK    5  A    between atoms: C_11  and  C_12
REMARK    6  A    between atoms: C_15  and  C_16
REMARK                            x       y       z     vdW  Elec       q    Type
REMARK                         _______ _______ _______ _____ _____    ______ ____
ROOT
ATOM      1  C   UNL     1       5.001   5.977  17.266  0.00  0.00    +0.000 A 
ATOM      2  C   UNL     1       6.080   6.570  17.932  0.00  0.00    +0.000 A 
ATOM      3  C   UNL     1       7.324   6.659  17.309  0.00  0.00    +0.000 A 
ATOM      4  C   UNL     1       7.502   6.124  16.036  0.00  0.00    +0.000 A 
ATOM      5  C   UNL     1       6.439   5.496  15.375  0.00  0.00    +0.000 A 
ATOM      6  C   UNL     1       5.176   5.460  15.976  0.00  0.00    +0.000 A 
ENDROOT
BRANCH   5   7
ATOM      7  C   UNL     1       6.662   4.821  14.110  0.00  0.00    +0.000 A 
ATOM      8  N   UNL     1       7.522   5.237  13.164  0.00  0.00    +0.000 NA
ATOM      9  O   UNL     1       7.348   4.317  12.134  0.00  0.00    +0.000 OA
ATOM     10  C   UNL     1       6.400   3.430  12.559  0.00  0.00    +0.000 A 
ATOM     11  N   UNL     1       5.982   3.675  13.783  0.00  0.00    +0.000 NA
BRANCH  10  12
ATOM     12  C   UNL     1       5.984   2.393  11.585  0.00  0.00    +0.000 C 
ATOM     13  F   UNL     1       4.860   2.738  10.904  0.00  0.00    +0.000 F 
ATOM     14  F   UNL     1       6.942   2.146  10.653  0.00  0.00    +0.000 F 
ATOM     15  F   UNL     1       5.714   1.202  12.188  0.00  0.00    +0.000 F 
ENDBRANCH  10  12
ENDBRANCH   5   7
BRANCH   1  17
ATOM     16  N   UNL     1       3.000   4.626  17.559  0.00  0.00    +0.000 N 
ATOM     17  C   UNL     1       3.693   5.762  17.934  0.00  0.00    +0.000 C 
ATOM     18  O   UNL     1       3.292   6.559  18.763  0.00  0.00    +0.000 OA
ATOM     19  H   UNL     1       3.440   3.953  16.949  0.00  0.00    +0.000 HD
BRANCH  16  20
ATOM     20  C   UNL     1       1.710   4.322  18.140  0.00  0.00    +0.000 C 
BRANCH  20  22
ATOM     21  C   UNL     1       1.006   2.034  18.810  0.00  0.00    +0.000 C 
ATOM     22  C   UNL     1       1.760   3.293  19.298  0.00  0.00    +0.000 C 
ATOM     23  C   UNL     1       3.218   2.920  19.654  0.00  0.00    +0.000 C 
ATOM     24  C   UNL     1       3.303   2.077  20.925  0.00  0.00    +0.000 C 
ATOM     25  O   UNL     1       2.658   2.738  22.012  0.00  0.00    +0.000 OA
ATOM     26  C   UNL     1       1.269   2.960  21.775  0.00  0.00    +0.000 C 
ATOM     27  C   UNL     1       1.070   3.860  20.560  0.00  0.00    +0.000 C 
ENDBRANCH  20  22
ENDBRANCH  16  20
ENDBRANCH   1  17
TORSDOF 5
ENDMDL
MODEL 2
REMARK VINA RESULT:      -8.1      4.006      4.882
REMARK  Name = 
REMARK  6 active torsions:
REMARK  status: ('A' for Active; 'I' for Inactive)
REMARK    1  A    between atoms: C_1  and  C_2
REMARK    2  A    between atoms: C_2  and  C_3
REMARK    3  A    between atoms: C_3  and  N_4
REMARK    4  A    between atoms: C_5  and  C_7
REMARK    5  A    between atoms: C_11  and  C_12
REMARK    6  A    between atoms: C_15  and  C_16
REMARK                            x       y       z     vdW  Elec       q    Type
REMARK                         _______ _______ _______ _____ _____    ______ ____
ROOT
ATOM      1  C   UNL     1       3.169   7.099  18.017  0.00  0.00    +0.000 A 
ATOM      2  C   UNL     1       2.763   6.083  18.891  0.00  0.00    +0.000 A 
ATOM      3  C   UNL     1       3.322   4.810  18.792  0.00  0.00    +0.000 A 
ATOM      4  C   UNL     1       4.259   4.540  17.799  0.00  0.00    +0.000 A 
ATOM      5  C   UNL     1       4.645   5.538  16.896  0.00  0.00    +0.000 A 
ATOM      6  C   UNL     1       4.128   6.832  17.034  0.00  0.00    +0.000 A 
ENDROOT
BRANCH   5   7
ATOM      7  C   UNL     1       5.516   5.218  15.780  0.00  0.00    +0.000 A 
ATOM      8  N   UNL     1       6.758   5.706  15.617  0.00  0.00    +0.000 NA
ATOM      9  O   UNL     1       7.165   5.168  14.400  0.00  0.00    +0.000 OA
ATOM     10  C   UNL     1       6.130   4.402  13.946  0.00  0.00    +0.000 A 
ATOM     11  N   UNL     1       5.113   4.369  14.780  0.00  0.00    +0.000 NA
BRANCH  10  12
ATOM     12  C   UNL     1       6.303   3.786  12.609  0.00  0.00    +0.000 C 
ATOM     13  F   UNL     1       5.143   3.739  11.902  0.00  0.00    +0.000 F 
ATOM     14  F   UNL     1       7.198   4.462  11.841  0.00  0.00    +0.000 F 
ATOM     15  F   UNL     1       6.752   2.502  12.690  0.00  0.00    +0.000 F 
ENDBRANCH  10  12
ENDBRANCH   5   7
BRANCH   1  17
ATOM     16  N   UNL     1       1.868   8.792  19.182  0.00  0.00    +0.000 N 
ATOM     17  C   UNL     1       2.520   8.434  18.017  0.00  0.00    +0.000 C 
ATOM     18  O   UNL     1       2.586   9.146  17.030  0.00  0.00    +0.000 OA
ATOM     19  H   UNL     1       1.947   8.203  19.998  0.00  0.00    +0.000 HD
BRANCH  16  20
ATOM     20  C   UNL     1       1.194  10.069  19.290  0.00  0.00    +0.000 C 
BRANCH  20  22
ATOM     21  C   UNL     1      -1.239  10.044  19.798  0.00  0.00    +0.000 C 
ATOM     22  C   UNL     1       0.163  10.149  20.444  0.00  0.00    +0.000 C 
ATOM     23  C   UNL     1       0.358   8.992  21.452  0.00  0.00    +0.000 C 
ATOM     24  C   UNL     1      -0.501   9.167  22.703  0.00  0.00    +0.000 C 
ATOM     25  O   UNL     1      -0.252  10.433  23.312  0.00  0.00    +0.000 OA
ATOM     26  C   UNL     1      -0.569  11.528  22.455  0.00  0.00    +0.000 C 
ATOM     27  C   UNL     1       0.293  11.492  21.198  0.00  0.00    +0.000 C 
ENDBRANCH  20  22
ENDBRANCH  16  20
ENDBRANCH   1  17
TORSDOF 5
ENDMDL
MODEL 3
REMARK VINA RESULT:      -8.0      7.659     10.446
REMARK  Name = 
REMARK  6 active torsions:
REMARK  status: ('A' for Active; 'I' for Inactive)
REMARK    1  A    between atoms: C_1  and  C_2
REMARK    2  A    between atoms: C_2  and  C_3
REMARK    3  A    between atoms: C_3  and  N_4
REMARK    4  A    between atoms: C_5  and  C_7
REMARK    5  A    between atoms: C_11  and  C_12
REMARK    6  A    between atoms: C_15  and  C_16
REMARK                            x       y       z     vdW  Elec       q    Type
REMARK                         _______ _______ _______ _____ _____    ______ ____
ROOT
ATOM      1  C   UNL     1       1.939   8.307  19.091  0.00  0.00    +0.000 A 
ATOM      2  C   UNL     1       1.892   9.080  17.926  0.00  0.00    +0.000 A 
ATOM      3  C   UNL     1       1.305  10.344  17.946  0.00  0.00    +0.000 A 
ATOM      4  C   UNL     1       0.731  10.822  19.121  0.00  0.00    +0.000 A 
ATOM      5  C   UNL     1       0.738  10.042  20.284  0.00  0.00    +0.000 A 
ATOM      6  C   UNL     1       1.382   8.798  20.278  0.00  0.00    +0.000 A 
ENDROOT
BRANCH   5   7
ATOM      7  C   UNL     1       0.022  10.484  21.466  0.00  0.00    +0.000 A 
ATOM      8  N   UNL     1       0.194   9.975  22.698  0.00  0.00    +0.000 NA
ATOM      9  O   UNL     1      -0.734  10.665  23.472  0.00  0.00    +0.000 OA
ATOM     10  C   UNL     1      -1.377  11.529  22.632  0.00  0.00    +0.000 A 
ATOM     11  N   UNL     1      -0.917  11.483  21.400  0.00  0.00    +0.000 NA
BRANCH  10  12
ATOM     12  C   UNL     1      -2.480  12.324  23.222  0.00  0.00    +0.000 C 
ATOM     13  F   UNL     1      -3.257  11.593  24.064  0.00  0.00    +0.000 F 
ATOM     14  F   UNL     1      -2.025  13.387  23.937  0.00  0.00    +0.000 F 
ATOM     15  F   UNL     1      -3.316  12.826  22.271  0.00  0.00    +0.000 F 
ENDBRANCH  10  12
ENDBRANCH   5   7
BRANCH   1  17
ATOM     16  N   UNL     1       3.037   6.489  17.907  0.00  0.00    +0.000 N 
ATOM     17  C   UNL     1       2.455   6.914  19.085  0.00  0.00    +0.000 C 
ATOM     18  O   UNL     1       2.357   6.222  20.083  0.00  0.00    +0.000 OA
ATOM     19  H   UNL     1       3.185   7.149  17.157  0.00  0.00    +0.000 HD
BRANCH  16  20
ATOM     20  C   UNL     1       3.567   5.147  17.786  0.00  0.00    +0.000 C 
BRANCH  20  22
ATOM     21  C   UNL     1       5.680   4.432  18.883  0.00  0.00    +0.000 C 
ATOM     22  C   UNL     1       5.105   5.084  17.604  0.00  0.00    +0.000 C 
ATOM     23  C   UNL     1       5.489   4.233  16.370  0.00  0.00    +0.000 C 
ATOM     24  C   UNL     1       6.978   4.331  16.045  0.00  0.00    +0.000 C 
ATOM     25  O   UNL     1       7.370   5.692  15.877  0.00  0.00    +0.000 OA
ATOM     26  C   UNL     1       7.169   6.472  17.055  0.00  0.00    +0.000 C 
ATOM     27  C   UNL     1       5.691   6.504  17.430  0.00  0.00    +0.000 C 
ENDBRANCH  20  22
ENDBRANCH  16  20
ENDBRANCH   1  17
TORSDOF 5
ENDMDL
MODEL 4
REMARK VINA RESULT:      -8.0      7.646      9.985
REMARK  Name = 
REMARK  6 active torsions:
REMARK  status: ('A' for Active; 'I' for Inactive)
REMARK    1  A    between atoms: C_1  and  C_2
REMARK    2  A    between atoms: C_2  and  C_3
REMARK    3  A    between atoms: C_3  and  N_4
REMARK    4  A    between atoms: C_5  and  C_7
REMARK    5  A    between atoms: C_11  and  C_12
REMARK    6  A    between atoms: C_15  and  C_16
REMARK                            x       y       z     vdW  Elec       q    Type
REMARK                         _______ _______ _______ _____ _____    ______ ____
ROOT
ATOM      1  C   UNL     1       2.063   7.823  19.542  0.00  0.00    +0.000 A 
ATOM      2  C   UNL     1       1.846   8.274  18.236  0.00  0.00    +0.000 A 
ATOM      3  C   UNL     1       1.120   9.443  18.010  0.00  0.00    +0.000 A 
ATOM      4  C   UNL     1       0.580  10.142  19.086  0.00  0.00    +0.000 A 
ATOM      5  C   UNL     1       0.760   9.680  20.396  0.00  0.00    +0.000 A 
ATOM      6  C   UNL     1       1.540   8.540  20.625  0.00  0.00    +0.000 A 
ENDROOT
BRANCH   5   7
ATOM      7  C   UNL     1       0.083  10.333  21.501  0.00  0.00    +0.000 A 
ATOM      8  N   UNL     1       0.368  10.127  22.799  0.00  0.00    +0.000 NA
ATOM      9  O   UNL     1      -0.563  10.916  23.468  0.00  0.00    +0.000 OA
ATOM     10  C   UNL     1      -1.319  11.527  22.509  0.00  0.00    +0.000 A 
ATOM     11  N   UNL     1      -0.931  11.232  21.286  0.00  0.00    +0.000 NA
BRANCH  10  12
ATOM     12  C   UNL     1      -2.443  12.365  22.989  0.00  0.00    +0.000 C 
ATOM     13  F   UNL     1      -3.245  12.790  21.978  0.00  0.00    +0.000 F 
ATOM     14  F   UNL     1      -3.242  11.702  23.867  0.00  0.00    +0.000 F 
ATOM     15  F   UNL     1      -2.010  13.487  23.630  0.00  0.00    +0.000 F 
ENDBRANCH  10  12
ENDBRANCH   5   7
BRANCH   1  17
ATOM     16  N   UNL     1       2.234   5.804  20.887  0.00  0.00    +0.000 N 
ATOM     17  C   UNL     1       2.733   6.527  19.820  0.00  0.00    +0.000 C 
ATOM     18  O   UNL     1       3.660   6.156  19.123  0.00  0.00    +0.000 OA
ATOM     19  H   UNL     1       1.395   6.117  21.353  0.00  0.00    +0.000 HD
BRANCH  16  20
ATOM     20  C   UNL     1       2.817   4.530  21.253  0.00  0.00    +0.000 C 
BRANCH  20  22
ATOM     21  C   UNL     1       1.852   2.255  21.528  0.00  0.00    +0.000 C 
ATOM     22  C   UNL     1       2.241   3.320  20.475  0.00  0.00    +0.000 C 
ATOM     23  C   UNL     1       0.992   3.722  19.656  0.00  0.00    +0.000 C 
ATOM     24  C   UNL     1       0.535   2.607  18.718  0.00  0.00    +0.000 C 
ATOM     25  O   UNL     1       1.602   2.195  17.865  0.00  0.00    +0.000 OA
ATOM     26  C   UNL     1       2.716   1.674  18.590  0.00  0.00    +0.000 C 
ATOM     27  C   UNL     1       3.301   2.739  19.511  0.00  0.00    +0.000 C 
ENDBRANCH  20  22
ENDBRANCH  16  20
ENDBRANCH   1  17
TORSDOF 5
ENDMDL
MODEL 5
REMARK VINA RESULT:      -7.9      4.759      6.366
REMARK  Name = 
REMARK  6 active torsions:
REMARK  status: ('A' for Active; 'I' for Inactive)
REMARK    1  A    between atoms: C_1  and  C_2
REMARK    2  A    between atoms: C_2  and  C_3
REMARK    3  A    between atoms: C_3  and  N_4
REMARK    4  A    between atoms: C_5  and  C_7
REMARK    5  A    between atoms: C_11  and  C_12
REMARK    6  A    between atoms: C_15  and  C_16
REMARK                            x       y       z     vdW  Elec       q    Type
REMARK                         _______ _______ _______ _____ _____    ______ ____
ROOT
ATOM      1  C   UNL     1       1.967   6.955  20.173  0.00  0.00    +0.000 A 
ATOM      2  C   UNL     1       1.440   5.729  20.595  0.00  0.00    +0.000 A 
ATOM      3  C   UNL     1       1.867   4.542  20.002  0.00  0.00    +0.000 A 
ATOM      4  C   UNL     1       2.792   4.580  18.962  0.00  0.00    +0.000 A 
ATOM      5  C   UNL     1       3.298   5.803  18.506  0.00  0.00    +0.000 A 
ATOM      6  C   UNL     1       2.914   6.990  19.143  0.00  0.00    +0.000 A 
ENDROOT
BRANCH   5   7
ATOM      7  C   UNL     1       4.154   5.850  17.336  0.00  0.00    +0.000 A 
ATOM      8  N   UNL     1       4.615   6.980  16.771  0.00  0.00    +0.000 NA
ATOM      9  O   UNL     1       5.332   6.527  15.668  0.00  0.00    +0.000 OA
ATOM     10  C   UNL     1       5.239   5.164  15.674  0.00  0.00    +0.000 A 
ATOM     11  N   UNL     1       4.561   4.702  16.703  0.00  0.00    +0.000 NA
BRANCH  10  12
ATOM     12  C   UNL     1       5.865   4.455  14.532  0.00  0.00    +0.000 C 
ATOM     13  F   UNL     1       4.968   4.138  13.561  0.00  0.00    +0.000 F 
ATOM     14  F   UNL     1       6.837   5.195  13.936  0.00  0.00    +0.000 F 
ATOM     15  F   UNL     1       6.447   3.284  14.912  0.00  0.00    +0.000 F 
ENDBRANCH  10  12
ENDBRANCH   5   7
BRANCH   1  17
ATOM     16  N   UNL     1       1.238   9.238  19.763  0.00  0.00    +0.000 N 
ATOM     17  C   UNL     1       1.459   8.247  20.700  0.00  0.00    +0.000 C 
ATOM     18  O   UNL     1       1.257   8.383  21.893  0.00  0.00    +0.000 OA
ATOM     19  H   UNL     1       1.321   9.023  18.780  0.00  0.00    +0.000 HD
BRANCH  16  20
ATOM     20  C   UNL     1       0.750  10.541  20.166  0.00  0.00    +0.000 C 
BRANCH  20  22
ATOM     21  C   UNL     1       0.307  12.382  18.556  0.00  0.00    +0.000 C 
ATOM     22  C   UNL     1      -0.325  11.138  19.224  0.00  0.00    +0.000 C 
ATOM     23  C   UNL     1      -0.744  10.121  18.136  0.00  0.00    +0.000 C 
ATOM     24  C   UNL     1      -1.949  10.604  17.330  0.00  0.00    +0.000 C 
ATOM     25  O   UNL     1      -3.040  10.918  18.194  0.00  0.00    +0.000 OA
ATOM     26  C   UNL     1      -2.731  11.964  19.113  0.00  0.00    +0.000 C 
ATOM     27  C   UNL     1      -1.580  11.554  20.025  0.00  0.00    +0.000 C 
ENDBRANCH  20  22
ENDBRANCH  16  20
ENDBRANCH   1  17
TORSDOF 5
ENDMDL
MODEL 6
REMARK VINA RESULT:      -7.9      7.546     10.346
REMARK  Name = 
REMARK  6 active torsions:
REMARK  status: ('A' for Active; 'I' for Inactive)
REMARK    1  A    between atoms: C_1  and  C_2
REMARK    2  A    between atoms: C_2  and  C_3
REMARK    3  A    between atoms: C_3  and  N_4
REMARK    4  A    between atoms: C_5  and  C_7
REMARK    5  A    between atoms: C_11  and  C_12
REMARK    6  A    between atoms: C_15  and  C_16
REMARK                            x       y       z     vdW  Elec       q    Type
REMARK                         _______ _______ _______ _____ _____    ______ ____
ROOT
ATOM      1  C   UNL     1       2.041   8.029  19.123  0.00  0.00    +0.000 A 
ATOM      2  C   UNL     1       1.886   8.678  17.893  0.00  0.00    +0.000 A 
ATOM      3  C   UNL     1       1.236   9.910  17.829  0.00  0.00    +0.000 A 
ATOM      4  C   UNL     1       0.709  10.477  18.986  0.00  0.00    +0.000 A 
ATOM      5  C   UNL     1       0.826   9.818  20.216  0.00  0.00    +0.000 A 
ATOM      6  C   UNL     1       1.531   8.611  20.289  0.00  0.00    +0.000 A 
ENDROOT
BRANCH   5   7
ATOM      7  C   UNL     1       0.159  10.343  21.393  0.00  0.00    +0.000 A 
ATOM      8  N   UNL     1       0.420   9.957  22.655  0.00  0.00    +0.000 NA
ATOM      9  O   UNL     1      -0.491  10.684  23.415  0.00  0.00    +0.000 OA
ATOM     10  C   UNL     1      -1.213  11.444  22.540  0.00  0.00    +0.000 A 
ATOM     11  N   UNL     1      -0.821  11.299  21.292  0.00  0.00    +0.000 NA
BRANCH  10  12
ATOM     12  C   UNL     1      -2.313  12.252  23.119  0.00  0.00    +0.000 C 
ATOM     13  F   UNL     1      -3.098  11.533  23.964  0.00  0.00    +0.000 F 
ATOM     14  F   UNL     1      -1.853  13.316  23.828  0.00  0.00    +0.000 F 
ATOM     15  F   UNL     1      -3.141  12.752  22.161  0.00  0.00    +0.000 F 
ENDBRANCH  10  12
ENDBRANCH   5   7
BRANCH   1  17
ATOM     16  N   UNL     1       3.970   6.563  18.909  0.00  0.00    +0.000 N 
ATOM     17  C   UNL     1       2.627   6.668  19.219  0.00  0.00    +0.000 C 
ATOM     18  O   UNL     1       1.934   5.727  19.561  0.00  0.00    +0.000 OA
ATOM     19  H   UNL     1       4.509   7.399  18.740  0.00  0.00    +0.000 HD
BRANCH  16  20
ATOM     20  C   UNL     1       4.643   5.282  18.961  0.00  0.00    +0.000 C 
BRANCH  20  22
ATOM     21  C   UNL     1       4.548   3.474  17.258  0.00  0.00    +0.000 C 
ATOM     22  C   UNL     1       5.232   4.816  17.606  0.00  0.00    +0.000 C 
ATOM     23  C   UNL     1       4.951   5.848  16.488  0.00  0.00    +0.000 C 
ATOM     24  C   UNL     1       5.702   5.518  15.199  0.00  0.00    +0.000 C 
ATOM     25  O   UNL     1       7.101   5.393  15.447  0.00  0.00    +0.000 OA
ATOM     26  C   UNL     1       7.404   4.342  16.364  0.00  0.00    +0.000 C 
ATOM     27  C   UNL     1       6.760   4.611  17.720  0.00  0.00    +0.000 C 
ENDBRANCH  20  22
ENDBRANCH  16  20
ENDBRANCH   1  17
TORSDOF 5
ENDMDL
MODEL 7
REMARK VINA RESULT:      -7.8      3.494      4.614
REMARK  Name = 
REMARK  6 active torsions:
REMARK  status: ('A' for Active; 'I' for Inactive)
REMARK    1  A    between atoms: C_1  and  C_2
REMARK    2  A    between atoms: C_2  and  C_3
REMARK    3  A    between atoms: C_3  and  N_4
REMARK    4  A    between atoms: C_5  and  C_7
REMARK    5  A    between atoms: C_11  and  C_12
REMARK    6  A    between atoms: C_15  and  C_16
REMARK                            x       y       z     vdW  Elec       q    Type
REMARK                         _______ _______ _______ _____ _____    ______ ____
ROOT
ATOM      1  C   UNL     1       3.915   6.143  18.107  0.00  0.00    +0.000 A 
ATOM      2  C   UNL     1       4.514   5.666  19.278  0.00  0.00    +0.000 A 
ATOM      3  C   UNL     1       5.784   5.094  19.233  0.00  0.00    +0.000 A 
ATOM      4  C   UNL     1       6.442   4.964  18.013  0.00  0.00    +0.000 A 
ATOM      5  C   UNL     1       5.837   5.405  16.829  0.00  0.00    +0.000 A 
ATOM      6  C   UNL     1       4.588   6.034  16.884  0.00  0.00    +0.000 A 
ENDROOT
BRANCH   5   7
ATOM      7  C   UNL     1       6.465   5.145  15.546  0.00  0.00    +0.000 A 
ATOM      8  N   UNL     1       7.633   5.677  15.147  0.00  0.00    +0.000 NA
ATOM      9  O   UNL     1       7.791   5.188  13.854  0.00  0.00    +0.000 OA
ATOM     10  C   UNL     1       6.704   4.404  13.596  0.00  0.00    +0.000 A 
ATOM     11  N   UNL     1       5.883   4.314  14.622  0.00  0.00    +0.000 NA
BRANCH  10  12
ATOM     12  C   UNL     1       6.609   3.833  12.232  0.00  0.00    +0.000 C 
ATOM     13  F   UNL     1       7.254   4.589  11.305  0.00  0.00    +0.000 F 
ATOM     14  F   UNL     1       7.145   2.586  12.156  0.00  0.00    +0.000 F 
ATOM     15  F   UNL     1       5.319   3.727  11.808  0.00  0.00    +0.000 F 
ENDBRANCH  10  12
ENDBRANCH   5   7
BRANCH   1  17
ATOM     16  N   UNL     1       2.376   8.007  17.833  0.00  0.00    +0.000 N 
ATOM     17  C   UNL     1       2.522   6.657  18.095  0.00  0.00    +0.000 C 
ATOM     18  O   UNL     1       1.590   5.901  18.301  0.00  0.00    +0.000 OA
ATOM     19  H   UNL     1       3.181   8.552  17.562  0.00  0.00    +0.000 HD
BRANCH  16  20
ATOM     20  C   UNL     1       1.063   8.617  17.804  0.00  0.00    +0.000 C 
BRANCH  20  22
ATOM     21  C   UNL     1       1.902  10.869  18.440  0.00  0.00    +0.000 C 
ATOM     22  C   UNL     1       0.877   9.774  18.818  0.00  0.00    +0.000 C 
ATOM     23  C   UNL     1      -0.555  10.356  18.747  0.00  0.00    +0.000 C 
ATOM     24  C   UNL     1      -0.829  11.347  19.876  0.00  0.00    +0.000 C 
ATOM     25  O   UNL     1      -0.576  10.749  21.146  0.00  0.00    +0.000 OA
ATOM     26  C   UNL     1       0.781  10.338  21.299  0.00  0.00    +0.000 C 
ATOM     27  C   UNL     1       1.143   9.283  20.259  0.00  0.00    +0.000 C 
ENDBRANCH  20  22
ENDBRANCH  16  20
ENDBRANCH   1  17
TORSDOF 5
ENDMDL
MODEL 8
REMARK VINA RESULT:      -7.8      6.935      8.758
REMARK  Name = 
REMARK  6 active torsions:
REMARK  status: ('A' for Active; 'I' for Inactive)
REMARK    1  A    between atoms: C_1  and  C_2
REMARK    2  A    between atoms: C_2  and  C_3
REMARK    3  A    between atoms: C_3  and  N_4
REMARK    4  A    between atoms: C_5  and  C_7
REMARK    5  A    between atoms: C_11  and  C_12
REMARK    6  A    between atoms: C_15  and  C_16
REMARK                            x       y       z     vdW  Elec       q    Type
REMARK                         _______ _______ _______ _____ _____    ______ ____
ROOT
ATOM      1  C   UNL     1       1.119   9.124  20.459  0.00  0.00    +0.000 A 
ATOM      2  C   UNL     1       1.061   9.847  19.263  0.00  0.00    +0.000 A 
ATOM      3  C   UNL     1       1.556   9.291  18.084  0.00  0.00    +0.000 A 
ATOM      4  C   UNL     1       2.143   8.029  18.106  0.00  0.00    +0.000 A 
ATOM      5  C   UNL     1       2.240   7.311  19.305  0.00  0.00    +0.000 A 
ATOM      6  C   UNL     1       1.687   7.845  20.476  0.00  0.00    +0.000 A 
ENDROOT
BRANCH   5   7
ATOM      7  C   UNL     1       2.972   6.059  19.351  0.00  0.00    +0.000 A 
ATOM      8  N   UNL     1       4.097   5.807  18.659  0.00  0.00    +0.000 NA
ATOM      9  O   UNL     1       4.389   4.485  18.979  0.00  0.00    +0.000 OA
ATOM     10  C   UNL     1       3.414   4.065  19.838  0.00  0.00    +0.000 A 
ATOM     11  N   UNL     1       2.546   5.012  20.128  0.00  0.00    +0.000 NA
BRANCH  10  12
ATOM     12  C   UNL     1       3.470   2.645  20.257  0.00  0.00    +0.000 C 
ATOM     13  F   UNL     1       2.665   1.848  19.506  0.00  0.00    +0.000 F 
ATOM     14  F   UNL     1       4.724   2.128  20.164  0.00  0.00    +0.000 F 
ATOM     15  F   UNL     1       3.076   2.475  21.550  0.00  0.00    +0.000 F 
ENDBRANCH  10  12
ENDBRANCH   5   7
BRANCH   1  17
ATOM     16  N   UNL     1      -0.444  10.490  21.726  0.00  0.00    +0.000 N 
ATOM     17  C   UNL     1       0.704   9.721  21.754  0.00  0.00    +0.000 C 
ATOM     18  O   UNL     1       1.360   9.516  22.759  0.00  0.00    +0.000 OA
ATOM     19  H   UNL     1      -0.999  10.528  20.884  0.00  0.00    +0.000 HD
BRANCH  16  20
ATOM     20  C   UNL     1      -0.936  11.127  22.930  0.00  0.00    +0.000 C 
BRANCH  20  22
ATOM     21  C   UNL     1      -1.147  13.598  23.112  0.00  0.00    +0.000 C 
ATOM     22  C   UNL     1      -1.896  12.317  22.674  0.00  0.00    +0.000 C 
ATOM     23  C   UNL     1      -2.272  12.421  21.177  0.00  0.00    +0.000 C 
ATOM     24  C   UNL     1      -3.378  13.446  20.932  0.00  0.00    +0.000 C 
ATOM     25  O   UNL     1      -4.522  13.156  21.735  0.00  0.00    +0.000 OA
ATOM     26  C   UNL     1      -4.239  13.203  23.132  0.00  0.00    +0.000 C 
ATOM     27  C   UNL     1      -3.192  12.158  23.502  0.00  0.00    +0.000 C 
ENDBRANCH  20  22
ENDBRANCH  16  20
ENDBRANCH   1  17
TORSDOF 5
ENDMDL
MODEL 9
REMARK VINA RESULT:      -7.8      7.146      9.114
REMARK  Name = 
REMARK  6 active torsions:
REMARK  status: ('A' for Active; 'I' for Inactive)
REMARK    1  A    between atoms: C_1  and  C_2
REMARK    2  A    between atoms: C_2  and  C_3
REMARK    3  A    between atoms: C_3  and  N_4
REMARK    4  A    between atoms: C_5  and  C_7
REMARK    5  A    between atoms: C_11  and  C_12
REMARK    6  A    between atoms: C_15  and  C_16
REMARK                            x       y       z     vdW  Elec       q    Type
REMARK                         _______ _______ _______ _____ _____    ______ ____
ROOT
ATOM      1  C   UNL     1       1.099   9.661  20.117  0.00  0.00    +0.000 A 
ATOM      2  C   UNL     1       1.259  10.130  18.808  0.00  0.00    +0.000 A 
ATOM      3  C   UNL     1       1.730   9.276  17.811  0.00  0.00    +0.000 A 
ATOM      4  C   UNL     1       2.076   7.965  18.128  0.00  0.00    +0.000 A 
ATOM      5  C   UNL     1       1.954   7.496  19.442  0.00  0.00    +0.000 A 
ATOM      6  C   UNL     1       1.424   8.336  20.429  0.00  0.00    +0.000 A 
ENDROOT
BRANCH   5   7
ATOM      7  C   UNL     1       2.442   6.176  19.795  0.00  0.00    +0.000 A 
ATOM      8  N   UNL     1       3.660   5.702  19.479  0.00  0.00    +0.000 NA
ATOM      9  O   UNL     1       3.645   4.401  19.973  0.00  0.00    +0.000 OA
ATOM     10  C   UNL     1       2.419   4.214  20.544  0.00  0.00    +0.000 A 
ATOM     11  N   UNL     1       1.662   5.291  20.497  0.00  0.00    +0.000 NA
BRANCH  10  12
ATOM     12  C   UNL     1       2.137   2.858  21.073  0.00  0.00    +0.000 C 
ATOM     13  F   UNL     1       1.116   2.851  21.969  0.00  0.00    +0.000 F 
ATOM     14  F   UNL     1       1.798   1.983  20.090  0.00  0.00    +0.000 F 
ATOM     15  F   UNL     1       3.213   2.324  21.715  0.00  0.00    +0.000 F 
ENDBRANCH  10  12
ENDBRANCH   5   7
BRANCH   1  17
ATOM     16  N   UNL     1      -0.471  10.249  21.878  0.00  0.00    +0.000 N 
ATOM     17  C   UNL     1       0.707  10.565  21.228  0.00  0.00    +0.000 C 
ATOM     18  O   UNL     1       1.412  11.513  21.522  0.00  0.00    +0.000 OA
ATOM     19  H   UNL     1      -0.948   9.388  21.656  0.00  0.00    +0.000 HD
BRANCH  16  20
ATOM     20  C   UNL     1      -0.953  11.067  22.972  0.00  0.00    +0.000 C 
BRANCH  20  22
ATOM     21  C   UNL     1      -1.124  13.542  22.822  0.00  0.00    +0.000 C 
ATOM     22  C   UNL     1      -1.885  12.226  22.537  0.00  0.00    +0.000 C 
ATOM     23  C   UNL     1      -2.225  12.138  21.031  0.00  0.00    +0.000 C 
ATOM     24  C   UNL     1      -3.306  13.138  20.626  0.00  0.00    +0.000 C 
ATOM     25  O   UNL     1      -4.473  12.973  21.429  0.00  0.00    +0.000 OA
ATOM     26  C   UNL     1      -4.222  13.199  22.816  0.00  0.00    +0.000 C 
ATOM     27  C   UNL     1      -3.202  12.197  23.346  0.00  0.00    +0.000 C 
ENDBRANCH  20  22
ENDBRANCH  16  20
ENDBRANCH   1  17
TORSDOF 5
ENDMDL
