MODEL 1
REMARK VINA RESULT:      -9.2      0.000      0.000
REMARK  Name = 
REMARK  6 active torsions:
REMARK  status: ('A' for Active; 'I' for Inactive)
REMARK    1  A    between atoms: C_2  and  C_3
REMARK    2  A    between atoms: C_3  and  C_4
REMARK    3  A    between atoms: N_15  and  C_16
REMARK    4  A    between atoms: N_15  and  C_23
REMARK    5  A    between atoms: C_16  and  C_17
REMARK    6  A    between atoms: C_23  and  C_24
REMARK                            x       y       z     vdW  Elec       q    Type
REMARK                         _______ _______ _______ _____ _____    ______ ____
ROOT
ATOM      1  O   UNL     1       1.937   9.177  17.509  0.00  0.00    +0.000 OA
ATOM      2  C   UNL     1       1.665   8.958  18.692  0.00  0.00    +0.000 C 
ATOM      3  N   UNL     1       0.895   9.855  19.436  0.00  0.00    +0.000 N 
ENDROOT
BRANCH   2   4
ATOM      4  C   UNL     1       2.224   7.720  19.397  0.00  0.00    +0.000 C 
BRANCH   4   5
ATOM      5  C   UNL     1       2.931   6.745  18.472  0.00  0.00    +0.000 A 
ATOM      6  C   UNL     1       2.440   5.438  18.314  0.00  0.00    +0.000 A 
ATOM      7  C   UNL     1       3.107   4.525  17.486  0.00  0.00    +0.000 A 
ATOM      8 CL   UNL     1       2.459   2.929  17.344  0.00  0.00    +0.000 Cl
ATOM      9  C   UNL     1       4.257   4.908  16.795  0.00  0.00    +0.000 A 
ATOM     10  C   UNL     1       4.755   6.202  16.967  0.00  0.00    +0.000 A 
ATOM     11  C   UNL     1       4.093   7.117  17.792  0.00  0.00    +0.000 A 
ATOM     12  O   UNL     1       5.895   6.661  16.349  0.00  0.00    +0.000 OA
ATOM     13  C   UNL     1       6.681   5.581  15.834  0.00  0.00    +0.000 C 
ATOM     14  C   UNL     1       5.803   4.596  15.084  0.00  0.00    +0.000 C 
ATOM     15  O   UNL     1       4.864   3.986  15.973  0.00  0.00    +0.000 OA
ENDBRANCH   4   5
ENDBRANCH   2   4
BRANCH   3  16
ATOM     16  C   UNL     1       0.322  11.021  18.726  0.00  0.00    +0.000 C 
BRANCH  16  17
ATOM     17  C   UNL     1      -1.136  10.860  18.329  0.00  0.00    +0.000 A 
ATOM     18  C   UNL     1      -1.525   9.850  17.436  0.00  0.00    +0.000 A 
ATOM     19  C   UNL     1      -2.855   9.735  17.015  0.00  0.00    +0.000 A 
ATOM     20  C   UNL     1      -3.817  10.622  17.490  0.00  0.00    +0.000 A 
ATOM     21  C   UNL     1      -3.463  11.592  18.422  0.00  0.00    +0.000 A 
ATOM     22  C   UNL     1      -2.133  11.706  18.845  0.00  0.00    +0.000 A 
ENDBRANCH  16  17
ENDBRANCH   3  16
BRANCH   3  23
ATOM     23  C   UNL     1       0.820   9.861  20.912  0.00  0.00    +0.000 C 
BRANCH  23  24
ATOM     24  C   UNL     1       0.141  11.135  21.431  0.00  0.00    +0.000 A 
ATOM     25  N   UNL     1       0.657  12.294  21.195  0.00  0.00    +0.000 NA
ATOM     26  C   UNL     1       0.108  13.408  21.860  0.00  0.00    +0.000 A 
ATOM     27  C   UNL     1       0.742  14.646  21.753  0.00  0.00    +0.000 A 
ATOM     28  C   UNL     1       0.412  15.690  22.626  0.00  0.00    +0.000 A 
ATOM     29  C   UNL     1      -0.573  15.508  23.596  0.00  0.00    +0.000 A 
ATOM     30  C   UNL     1      -1.292  14.317  23.641  0.00  0.00    +0.000 A 
ATOM     31  C   UNL     1      -0.959  13.287  22.756  0.00  0.00    +0.000 A 
ATOM     32  C   UNL     1      -1.660  11.993  22.780  0.00  0.00    +0.000 A 
ATOM     33  O   UNL     1      -2.757  11.857  23.312  0.00  0.00    +0.000 OA
ATOM     34  N   UNL     1      -1.004  10.961  22.170  0.00  0.00    +0.000 N 
ATOM     35  H   UNL     1      -1.466  10.066  22.236  0.00  0.00    +0.000 HD
ENDBRANCH  23  24
ENDBRANCH   3  23
TORSDOF 6
ENDMDL
MODEL 2
REMARK VINA RESULT:      -9.1      1.110      1.619
REMARK  Name = 
REMARK  6 active torsions:
REMARK  status: ('A' for Active; 'I' for Inactive)
REMARK    1  A    between atoms: C_2  and  C_3
REMARK    2  A    between atoms: C_3  and  C_4
REMARK    3  A    between atoms: N_15  and  C_16
REMARK    4  A    between atoms: N_15  and  C_23
REMARK    5  A    between atoms: C_16  and  C_17
REMARK    6  A    between atoms: C_23  and  C_24
REMARK                            x       y       z     vdW  Elec       q    Type
REMARK                         _______ _______ _______ _____ _____    ______ ____
ROOT
ATOM      1  O   UNL     1       2.186   9.217  17.542  0.00  0.00    +0.000 OA
ATOM      2  C   UNL     1       1.697   8.876  18.622  0.00  0.00    +0.000 C 
ATOM      3  N   UNL     1       0.722   9.652  19.253  0.00  0.00    +0.000 N 
ENDROOT
BRANCH   2   4
ATOM      4  C   UNL     1       2.197   7.617  19.335  0.00  0.00    +0.000 C 
BRANCH   4   5
ATOM      5  C   UNL     1       2.934   6.644  18.431  0.00  0.00    +0.000 A 
ATOM      6  C   UNL     1       2.471   5.325  18.285  0.00  0.00    +0.000 A 
ATOM      7  C   UNL     1       3.166   4.415  17.478  0.00  0.00    +0.000 A 
ATOM      8 CL   UNL     1       2.552   2.804  17.350  0.00  0.00    +0.000 Cl
ATOM      9  C   UNL     1       4.316   4.812  16.794  0.00  0.00    +0.000 A 
ATOM     10  C   UNL     1       4.786   6.119  16.954  0.00  0.00    +0.000 A 
ATOM     11  C   UNL     1       4.097   7.031  17.759  0.00  0.00    +0.000 A 
ATOM     12  O   UNL     1       5.924   6.592  16.343  0.00  0.00    +0.000 OA
ATOM     13  C   UNL     1       6.737   5.521  15.851  0.00  0.00    +0.000 C 
ATOM     14  C   UNL     1       5.888   4.508  15.106  0.00  0.00    +0.000 C 
ATOM     15  O   UNL     1       4.951   3.891  15.992  0.00  0.00    +0.000 OA
ENDBRANCH   4   5
ENDBRANCH   2   4
BRANCH   3  16
ATOM     16  C   UNL     1       0.214  10.839  18.528  0.00  0.00    +0.000 C 
BRANCH  16  17
ATOM     17  C   UNL     1      -1.250  10.753  18.129  0.00  0.00    +0.000 A 
ATOM     18  C   UNL     1      -1.676   9.814  17.176  0.00  0.00    +0.000 A 
ATOM     19  C   UNL     1      -3.011   9.770  16.757  0.00  0.00    +0.000 A 
ATOM     20  C   UNL     1      -3.940  10.657  17.292  0.00  0.00    +0.000 A 
ATOM     21  C   UNL     1      -3.551  11.553  18.281  0.00  0.00    +0.000 A 
ATOM     22  C   UNL     1      -2.216  11.596  18.703  0.00  0.00    +0.000 A 
ENDBRANCH  16  17
ENDBRANCH   3  16
BRANCH   3  23
ATOM     23  C   UNL     1       0.347   9.522  20.676  0.00  0.00    +0.000 C 
BRANCH  23  24
ATOM     24  C   UNL     1       0.128  10.894  21.324  0.00  0.00    +0.000 A 
ATOM     25  N   UNL     1      -0.936  11.129  22.017  0.00  0.00    +0.000 NA
ATOM     26  C   UNL     1      -1.182  12.456  22.419  0.00  0.00    +0.000 A 
ATOM     27  C   UNL     1      -2.398  12.770  23.026  0.00  0.00    +0.000 A 
ATOM     28  C   UNL     1      -2.801  14.104  23.161  0.00  0.00    +0.000 A 
ATOM     29  C   UNL     1      -1.977  15.134  22.710  0.00  0.00    +0.000 A 
ATOM     30  C   UNL     1      -0.713  14.842  22.206  0.00  0.00    +0.000 A 
ATOM     31  C   UNL     1      -0.319  13.506  22.086  0.00  0.00    +0.000 A 
ATOM     32  C   UNL     1       0.991  13.134  21.528  0.00  0.00    +0.000 A 
ATOM     33  O   UNL     1       1.917  13.934  21.455  0.00  0.00    +0.000 OA
ATOM     34  N   UNL     1       1.098  11.840  21.099  0.00  0.00    +0.000 N 
ATOM     35  H   UNL     1       1.982  11.607  20.669  0.00  0.00    +0.000 HD
ENDBRANCH  23  24
ENDBRANCH   3  23
TORSDOF 6
ENDMDL
MODEL 3
REMARK VINA RESULT:      -9.0      6.774      9.770
REMARK  Name = 
REMARK  6 active torsions:
REMARK  status: ('A' for Active; 'I' for Inactive)
REMARK    1  A    between atoms: C_2  and  C_3
REMARK    2  A    between atoms: C_3  and  C_4
REMARK    3  A    between atoms: N_15  and  C_16
REMARK    4  A    between atoms: N_15  and  C_23
REMARK    5  A    between atoms: C_16  and  C_17
REMARK    6  A    between atoms: C_23  and  C_24
REMARK                            x       y       z     vdW  Elec       q    Type
REMARK                         _______ _______ _______ _____ _____    ______ ____
ROOT
ATOM      1  O   UNL     1       7.151   9.020  17.123  0.00  0.00    +0.000 OA
ATOM      2  C   UNL     1       7.521   8.071  17.820  0.00  0.00    +0.000 C 
ATOM      3  N   UNL     1       6.837   6.853  17.807  0.00  0.00    +0.000 N 
ENDROOT
BRANCH   2   4
ATOM      4  C   UNL     1       8.708   8.228  18.774  0.00  0.00    +0.000 C 
BRANCH   4   5
ATOM      5  C   UNL     1       9.107   9.670  19.034  0.00  0.00    +0.000 A 
ATOM      6  C   UNL     1       8.946  10.229  20.314  0.00  0.00    +0.000 A 
ATOM      7  C   UNL     1       9.283  11.568  20.551  0.00  0.00    +0.000 A 
ATOM      8 CL   UNL     1       9.049  12.198  22.143  0.00  0.00    +0.000 Cl
ATOM      9  C   UNL     1       9.801  12.358  19.524  0.00  0.00    +0.000 A 
ATOM     10  C   UNL     1       9.944  11.807  18.247  0.00  0.00    +0.000 A 
ATOM     11  C   UNL     1       9.609  10.472  18.005  0.00  0.00    +0.000 A 
ATOM     12  O   UNL     1      10.420  12.515  17.167  0.00  0.00    +0.000 OA
ATOM     13  C   UNL     1      10.391  13.926  17.415  0.00  0.00    +0.000 C 
ATOM     14  C   UNL     1      10.959  14.237  18.787  0.00  0.00    +0.000 C 
ATOM     15  O   UNL     1      10.143  13.661  19.809  0.00  0.00    +0.000 OA
ENDBRANCH   4   5
ENDBRANCH   2   4
BRANCH   3  16
ATOM     16  C   UNL     1       5.723   6.701  16.844  0.00  0.00    +0.000 C 
BRANCH  16  17
ATOM     17  C   UNL     1       5.977   5.685  15.743  0.00  0.00    +0.000 A 
ATOM     18  C   UNL     1       7.139   5.757  14.960  0.00  0.00    +0.000 A 
ATOM     19  C   UNL     1       7.350   4.863  13.904  0.00  0.00    +0.000 A 
ATOM     20  C   UNL     1       6.408   3.878  13.623  0.00  0.00    +0.000 A 
ATOM     21  C   UNL     1       5.280   3.751  14.426  0.00  0.00    +0.000 A 
ATOM     22  C   UNL     1       5.069   4.644  15.484  0.00  0.00    +0.000 A 
ENDBRANCH  16  17
ENDBRANCH   3  16
BRANCH   3  23
ATOM     23  C   UNL     1       6.979   5.808  18.842  0.00  0.00    +0.000 C 
BRANCH  23  24
ATOM     24  C   UNL     1       5.656   5.070  19.076  0.00  0.00    +0.000 A 
ATOM     25  N   UNL     1       4.558   5.729  19.241  0.00  0.00    +0.000 NA
ATOM     26  C   UNL     1       3.415   5.015  19.649  0.00  0.00    +0.000 A 
ATOM     27  C   UNL     1       2.260   5.718  19.992  0.00  0.00    +0.000 A 
ATOM     28  C   UNL     1       1.220   5.082  20.682  0.00  0.00    +0.000 A 
ATOM     29  C   UNL     1       1.321   3.731  21.012  0.00  0.00    +0.000 A 
ATOM     30  C   UNL     1       2.418   2.991  20.578  0.00  0.00    +0.000 A 
ATOM     31  C   UNL     1       3.443   3.636  19.881  0.00  0.00    +0.000 A 
ATOM     32  C   UNL     1       4.642   2.913  19.428  0.00  0.00    +0.000 A 
ATOM     33  O   UNL     1       4.666   1.691  19.329  0.00  0.00    +0.000 OA
ATOM     34  N   UNL     1       5.720   3.698  19.128  0.00  0.00    +0.000 N 
ATOM     35  H   UNL     1       6.555   3.193  18.869  0.00  0.00    +0.000 HD
ENDBRANCH  23  24
ENDBRANCH   3  23
TORSDOF 6
ENDMDL
MODEL 4
REMARK VINA RESULT:      -8.9      6.869      9.897
REMARK  Name = 
REMARK  6 active torsions:
REMARK  status: ('A' for Active; 'I' for Inactive)
REMARK    1  A    between atoms: C_2  and  C_3
REMARK    2  A    between atoms: C_3  and  C_4
REMARK    3  A    between atoms: N_15  and  C_16
REMARK    4  A    between atoms: N_15  and  C_23
REMARK    5  A    between atoms: C_16  and  C_17
REMARK    6  A    between atoms: C_23  and  C_24
REMARK                            x       y       z     vdW  Elec       q    Type
REMARK                         _______ _______ _______ _____ _____    ______ ____
ROOT
ATOM      1  O   UNL     1       7.197   9.092  17.103  0.00  0.00    +0.000 OA
ATOM      2  C   UNL     1       7.539   8.147  17.818  0.00  0.00    +0.000 C 
ATOM      3  N   UNL     1       6.826   6.945  17.819  0.00  0.00    +0.000 N 
ENDROOT
BRANCH   2   4
ATOM      4  C   UNL     1       8.721   8.291  18.778  0.00  0.00    +0.000 C 
BRANCH   4   5
ATOM      5  C   UNL     1       9.135   9.728  19.041  0.00  0.00    +0.000 A 
ATOM      6  C   UNL     1       8.976  10.287  20.320  0.00  0.00    +0.000 A 
ATOM      7  C   UNL     1       9.327  11.623  20.560  0.00  0.00    +0.000 A 
ATOM      8 CL   UNL     1       9.094  12.254  22.152  0.00  0.00    +0.000 Cl
ATOM      9  C   UNL     1       9.855  12.409  19.535  0.00  0.00    +0.000 A 
ATOM     10  C   UNL     1       9.997  11.857  18.258  0.00  0.00    +0.000 A 
ATOM     11  C   UNL     1       9.648  10.525  18.014  0.00  0.00    +0.000 A 
ATOM     12  O   UNL     1      10.482  12.561  17.180  0.00  0.00    +0.000 OA
ATOM     13  C   UNL     1      10.467  13.972  17.429  0.00  0.00    +0.000 C 
ATOM     14  C   UNL     1      11.035  14.275  18.803  0.00  0.00    +0.000 C 
ATOM     15  O   UNL     1      10.210  13.707  19.822  0.00  0.00    +0.000 OA
ENDBRANCH   4   5
ENDBRANCH   2   4
BRANCH   3  16
ATOM     16  C   UNL     1       5.716   6.804  16.849  0.00  0.00    +0.000 C 
BRANCH  16  17
ATOM     17  C   UNL     1       5.937   5.737  15.791  0.00  0.00    +0.000 A 
ATOM     18  C   UNL     1       7.116   5.720  15.030  0.00  0.00    +0.000 A 
ATOM     19  C   UNL     1       7.300   4.779  14.010  0.00  0.00    +0.000 A 
ATOM     20  C   UNL     1       6.312   3.834  13.745  0.00  0.00    +0.000 A 
ATOM     21  C   UNL     1       5.164   3.796  14.527  0.00  0.00    +0.000 A 
ATOM     22  C   UNL     1       4.980   4.736  15.549  0.00  0.00    +0.000 A 
ENDBRANCH  16  17
ENDBRANCH   3  16
BRANCH   3  23
ATOM     23  C   UNL     1       6.935   5.914  18.871  0.00  0.00    +0.000 C 
BRANCH  23  24
ATOM     24  C   UNL     1       5.583   5.240  19.136  0.00  0.00    +0.000 A 
ATOM     25  N   UNL     1       5.445   3.966  18.983  0.00  0.00    +0.000 NA
ATOM     26  C   UNL     1       4.144   3.431  19.044  0.00  0.00    +0.000 A 
ATOM     27  C   UNL     1       3.944   2.089  18.723  0.00  0.00    +0.000 A 
ATOM     28  C   UNL     1       2.654   1.602  18.478  0.00  0.00    +0.000 A 
ATOM     29  C   UNL     1       1.553   2.453  18.577  0.00  0.00    +0.000 A 
ATOM     30  C   UNL     1       1.727   3.766  19.006  0.00  0.00    +0.000 A 
ATOM     31  C   UNL     1       3.019   4.235  19.257  0.00  0.00    +0.000 A 
ATOM     32  C   UNL     1       3.268   5.623  19.679  0.00  0.00    +0.000 A 
ATOM     33  O   UNL     1       2.382   6.328  20.150  0.00  0.00    +0.000 OA
ATOM     34  N   UNL     1       4.549   6.066  19.507  0.00  0.00    +0.000 N 
ATOM     35  H   UNL     1       4.701   7.034  19.749  0.00  0.00    +0.000 HD
ENDBRANCH  23  24
ENDBRANCH   3  23
TORSDOF 6
ENDMDL
MODEL 5
REMARK VINA RESULT:      -8.8      4.404      9.646
REMARK  Name = 
REMARK  6 active torsions:
REMARK  status: ('A' for Active; 'I' for Inactive)
REMARK    1  A    between atoms: C_2  and  C_3
REMARK    2  A    between atoms: C_3  and  C_4
REMARK    3  A    between atoms: N_15  and  C_16
REMARK    4  A    between atoms: N_15  and  C_23
REMARK    5  A    between atoms: C_16  and  C_17
REMARK    6  A    between atoms: C_23  and  C_24
REMARK                            x       y       z     vdW  Elec       q    Type
REMARK                         _______ _______ _______ _____ _____    ______ ____
ROOT
ATOM      1  O   UNL     1       5.000   7.101  16.742  0.00  0.00    +0.000 OA
ATOM      2  C   UNL     1       4.568   5.964  16.948  0.00  0.00    +0.000 C 
ATOM      3  N   UNL     1       5.324   4.834  16.626  0.00  0.00    +0.000 N 
ENDROOT
BRANCH   2   4
ATOM      4  C   UNL     1       3.157   5.761  17.504  0.00  0.00    +0.000 C 
BRANCH   4   5
ATOM      5  C   UNL     1       2.607   6.962  18.253  0.00  0.00    +0.000 A 
ATOM      6  C   UNL     1       2.580   8.226  17.639  0.00  0.00    +0.000 A 
ATOM      7  C   UNL     1       2.102   9.344  18.337  0.00  0.00    +0.000 A 
ATOM      8 CL   UNL     1       2.107  10.872  17.531  0.00  0.00    +0.000 Cl
ATOM      9  C   UNL     1       1.631   9.212  19.644  0.00  0.00    +0.000 A 
ATOM     10  C   UNL     1       1.675   7.957  20.260  0.00  0.00    +0.000 A 
ATOM     11  C   UNL     1       2.151   6.839  19.568  0.00  0.00    +0.000 A 
ATOM     12  O   UNL     1       1.259   7.735  21.553  0.00  0.00    +0.000 OA
ATOM     13  C   UNL     1       1.137   8.963  22.280  0.00  0.00    +0.000 C 
ATOM     14  C   UNL     1       0.399   9.999  21.454  0.00  0.00    +0.000 C 
ATOM     15  O   UNL     1       1.147  10.331  20.282  0.00  0.00    +0.000 OA
ENDBRANCH   4   5
ENDBRANCH   2   4
BRANCH   3  16
ATOM     16  C   UNL     1       6.704   5.047  16.136  0.00  0.00    +0.000 C 
BRANCH  16  17
ATOM     17  C   UNL     1       6.888   4.801  14.647  0.00  0.00    +0.000 A 
ATOM     18  C   UNL     1       7.802   5.565  13.906  0.00  0.00    +0.000 A 
ATOM     19  C   UNL     1       7.932   5.388  12.523  0.00  0.00    +0.000 A 
ATOM     20  C   UNL     1       7.157   4.436  11.865  0.00  0.00    +0.000 A 
ATOM     21  C   UNL     1       6.290   3.628  12.592  0.00  0.00    +0.000 A 
ATOM     22  C   UNL     1       6.162   3.804  13.975  0.00  0.00    +0.000 A 
ENDBRANCH  16  17
ENDBRANCH   3  16
BRANCH   3  23
ATOM     23  C   UNL     1       4.768   3.470  16.501  0.00  0.00    +0.000 C 
BRANCH  23  24
ATOM     24  C   UNL     1       4.119   3.009  17.812  0.00  0.00    +0.000 A 
ATOM     25  N   UNL     1       2.834   2.975  17.930  0.00  0.00    +0.000 NA
ATOM     26  C   UNL     1       2.295   2.738  19.209  0.00  0.00    +0.000 A 
ATOM     27  C   UNL     1       0.918   2.856  19.400  0.00  0.00    +0.000 A 
ATOM     28  C   UNL     1       0.384   2.929  20.693  0.00  0.00    +0.000 A 
ATOM     29  C   UNL     1       1.225   2.860  21.803  0.00  0.00    +0.000 A 
ATOM     30  C   UNL     1       2.587   2.630  21.630  0.00  0.00    +0.000 A 
ATOM     31  C   UNL     1       3.104   2.549  20.334  0.00  0.00    +0.000 A 
ATOM     32  C   UNL     1       4.540   2.342  20.088  0.00  0.00    +0.000 A 
ATOM     33  O   UNL     1       5.291   1.902  20.952  0.00  0.00    +0.000 OA
ATOM     34  N   UNL     1       4.973   2.674  18.835  0.00  0.00    +0.000 N 
ATOM     35  H   UNL     1       5.968   2.579  18.689  0.00  0.00    +0.000 HD
ENDBRANCH  23  24
ENDBRANCH   3  23
TORSDOF 6
ENDMDL
MODEL 6
REMARK VINA RESULT:      -8.7      7.465     11.095
REMARK  Name = 
REMARK  6 active torsions:
REMARK  status: ('A' for Active; 'I' for Inactive)
REMARK    1  A    between atoms: C_2  and  C_3
REMARK    2  A    between atoms: C_3  and  C_4
REMARK    3  A    between atoms: N_15  and  C_16
REMARK    4  A    between atoms: N_15  and  C_23
REMARK    5  A    between atoms: C_16  and  C_17
REMARK    6  A    between atoms: C_23  and  C_24
REMARK                            x       y       z     vdW  Elec       q    Type
REMARK                         _______ _______ _______ _____ _____    ______ ____
ROOT
ATOM      1  O   UNL     1       4.705  16.265  20.788  0.00  0.00    +0.000 OA
ATOM      2  C   UNL     1       5.287  16.289  19.700  0.00  0.00    +0.000 C 
ATOM      3  N   UNL     1       6.672  16.454  19.624  0.00  0.00    +0.000 N 
ENDROOT
BRANCH   2   4
ATOM      4  C   UNL     1       4.492  16.204  18.395  0.00  0.00    +0.000 C 
BRANCH   4   5
ATOM      5  C   UNL     1       3.167  15.472  18.523  0.00  0.00    +0.000 A 
ATOM      6  C   UNL     1       1.970  16.195  18.662  0.00  0.00    +0.000 A 
ATOM      7  C   UNL     1       0.749  15.524  18.811  0.00  0.00    +0.000 A 
ATOM      8 CL   UNL     1      -0.685  16.470  18.991  0.00  0.00    +0.000 Cl
ATOM      9  C   UNL     1       0.705  14.129  18.806  0.00  0.00    +0.000 A 
ATOM     10  C   UNL     1       1.898  13.410  18.686  0.00  0.00    +0.000 A 
ATOM     11  C   UNL     1       3.120  14.075  18.537  0.00  0.00    +0.000 A 
ATOM     12  O   UNL     1       1.957  12.036  18.697  0.00  0.00    +0.000 OA
ATOM     13  C   UNL     1       0.746  11.466  19.206  0.00  0.00    +0.000 C 
ATOM     14  C   UNL     1      -0.461  12.130  18.571  0.00  0.00    +0.000 C 
ATOM     15  O   UNL     1      -0.519  13.512  18.930  0.00  0.00    +0.000 OA
ENDBRANCH   4   5
ENDBRANCH   2   4
BRANCH   3  16
ATOM     16  C   UNL     1       7.431  16.485  20.895  0.00  0.00    +0.000 C 
BRANCH  16  17
ATOM     17  C   UNL     1       8.247  15.232  21.170  0.00  0.00    +0.000 A 
ATOM     18  C   UNL     1       9.650  15.272  21.134  0.00  0.00    +0.000 A 
ATOM     19  C   UNL     1      10.406  14.110  21.325  0.00  0.00    +0.000 A 
ATOM     20  C   UNL     1       9.772  12.895  21.565  0.00  0.00    +0.000 A 
ATOM     21  C   UNL     1       8.386  12.846  21.665  0.00  0.00    +0.000 A 
ATOM     22  C   UNL     1       7.628  14.009  21.477  0.00  0.00    +0.000 A 
ENDBRANCH  16  17
ENDBRANCH   3  16
BRANCH   3  23
ATOM     23  C   UNL     1       7.396  16.846  18.397  0.00  0.00    +0.000 C 
BRANCH  23  24
ATOM     24  C   UNL     1       8.410  15.774  17.980  0.00  0.00    +0.000 A 
ATOM     25  N   UNL     1       8.081  14.526  17.977  0.00  0.00    +0.000 NA
ATOM     26  C   UNL     1       9.100  13.574  17.781  0.00  0.00    +0.000 A 
ATOM     27  C   UNL     1       8.806  12.219  17.934  0.00  0.00    +0.000 A 
ATOM     28  C   UNL     1       9.836  11.277  18.047  0.00  0.00    +0.000 A 
ATOM     29  C   UNL     1      11.168  11.684  17.984  0.00  0.00    +0.000 A 
ATOM     30  C   UNL     1      11.475  13.016  17.718  0.00  0.00    +0.000 A 
ATOM     31  C   UNL     1      10.436  13.944  17.597  0.00  0.00    +0.000 A 
ATOM     32  C   UNL     1      10.700  15.370  17.352  0.00  0.00    +0.000 A 
ATOM     33  O   UNL     1      11.775  15.767  16.914  0.00  0.00    +0.000 OA
ATOM     34  N   UNL     1       9.668  16.216  17.647  0.00  0.00    +0.000 N 
ATOM     35  H   UNL     1       9.874  17.197  17.526  0.00  0.00    +0.000 HD
ENDBRANCH  23  24
ENDBRANCH   3  23
TORSDOF 6
ENDMDL
MODEL 7
REMARK VINA RESULT:      -8.6      1.450      2.102
REMARK  Name = 
REMARK  6 active torsions:
REMARK  status: ('A' for Active; 'I' for Inactive)
REMARK    1  A    between atoms: C_2  and  C_3
REMARK    2  A    between atoms: C_3  and  C_4
REMARK    3  A    between atoms: N_15  and  C_16
REMARK    4  A    between atoms: N_15  and  C_23
REMARK    5  A    between atoms: C_16  and  C_17
REMARK    6  A    between atoms: C_23  and  C_24
REMARK                            x       y       z     vdW  Elec       q    Type
REMARK                         _______ _______ _______ _____ _____    ______ ____
ROOT
ATOM      1  O   UNL     1       1.272   8.951  17.960  0.00  0.00    +0.000 OA
ATOM      2  C   UNL     1       1.285   9.069  19.188  0.00  0.00    +0.000 C 
ATOM      3  N   UNL     1       0.857  10.247  19.806  0.00  0.00    +0.000 N 
ENDROOT
BRANCH   2   4
ATOM      4  C   UNL     1       1.836   7.945  20.068  0.00  0.00    +0.000 C 
BRANCH   4   5
ATOM      5  C   UNL     1       2.398   6.768  19.291  0.00  0.00    +0.000 A 
ATOM      6  C   UNL     1       3.337   6.980  18.267  0.00  0.00    +0.000 A 
ATOM      7  C   UNL     1       3.834   5.900  17.525  0.00  0.00    +0.000 A 
ATOM      8 CL   UNL     1       4.977   6.229  16.271  0.00  0.00    +0.000 Cl
ATOM      9  C   UNL     1       3.417   4.598  17.807  0.00  0.00    +0.000 A 
ATOM     10  C   UNL     1       2.469   4.390  18.813  0.00  0.00    +0.000 A 
ATOM     11  C   UNL     1       1.969   5.464  19.555  0.00  0.00    +0.000 A 
ATOM     12  O   UNL     1       1.977   3.148  19.143  0.00  0.00    +0.000 OA
ATOM     13  C   UNL     1       2.260   2.186  18.120  0.00  0.00    +0.000 C 
ATOM     14  C   UNL     1       3.706   2.294  17.674  0.00  0.00    +0.000 C 
ATOM     15  O   UNL     1       3.951   3.565  17.070  0.00  0.00    +0.000 OA
ENDBRANCH   4   5
ENDBRANCH   2   4
BRANCH   3  16
ATOM     16  C   UNL     1       0.281  11.305  18.946  0.00  0.00    +0.000 C 
BRANCH  16  17
ATOM     17  C   UNL     1      -1.183  11.101  18.593  0.00  0.00    +0.000 A 
ATOM     18  C   UNL     1      -1.570  10.074  17.717  0.00  0.00    +0.000 A 
ATOM     19  C   UNL     1      -2.908   9.920  17.337  0.00  0.00    +0.000 A 
ATOM     20  C   UNL     1      -3.880  10.782  17.837  0.00  0.00    +0.000 A 
ATOM     21  C   UNL     1      -3.526  11.766  18.753  0.00  0.00    +0.000 A 
ATOM     22  C   UNL     1      -2.188  11.920  19.135  0.00  0.00    +0.000 A 
ENDBRANCH  16  17
ENDBRANCH   3  16
BRANCH   3  23
ATOM     23  C   UNL     1       1.163  10.610  21.206  0.00  0.00    +0.000 C 
BRANCH  23  24
ATOM     24  C   UNL     1       0.188  11.670  21.734  0.00  0.00    +0.000 A 
ATOM     25  N   UNL     1       0.458  12.926  21.613  0.00  0.00    +0.000 NA
ATOM     26  C   UNL     1      -0.367  13.846  22.288  0.00  0.00    +0.000 A 
ATOM     27  C   UNL     1      -0.008  15.194  22.311  0.00  0.00    +0.000 A 
ATOM     28  C   UNL     1      -0.621  16.077  23.208  0.00  0.00    +0.000 A 
ATOM     29  C   UNL     1      -1.615  15.620  24.073  0.00  0.00    +0.000 A 
ATOM     30  C   UNL     1      -2.061  14.305  23.984  0.00  0.00    +0.000 A 
ATOM     31  C   UNL     1      -1.448  13.437  23.075  0.00  0.00    +0.000 A 
ATOM     32  C   UNL     1      -1.853  12.027  22.961  0.00  0.00    +0.000 A 
ATOM     33  O   UNL     1      -2.932  11.624  23.382  0.00  0.00    +0.000 OA
ATOM     34  N   UNL     1      -0.946  11.204  22.354  0.00  0.00    +0.000 N 
ATOM     35  H   UNL     1      -1.208  10.230  22.326  0.00  0.00    +0.000 HD
ENDBRANCH  23  24
ENDBRANCH   3  23
TORSDOF 6
ENDMDL
MODEL 8
REMARK VINA RESULT:      -8.6      2.043      2.949
REMARK  Name = 
REMARK  6 active torsions:
REMARK  status: ('A' for Active; 'I' for Inactive)
REMARK    1  A    between atoms: C_2  and  C_3
REMARK    2  A    between atoms: C_3  and  C_4
REMARK    3  A    between atoms: N_15  and  C_16
REMARK    4  A    between atoms: N_15  and  C_23
REMARK    5  A    between atoms: C_16  and  C_17
REMARK    6  A    between atoms: C_23  and  C_24
REMARK                            x       y       z     vdW  Elec       q    Type
REMARK                         _______ _______ _______ _____ _____    ______ ____
ROOT
ATOM      1  O   UNL     1       1.479   9.604  19.260  0.00  0.00    +0.000 OA
ATOM      2  C   UNL     1       0.971   9.377  20.360  0.00  0.00    +0.000 C 
ATOM      3  N   UNL     1       0.056  10.265  20.932  0.00  0.00    +0.000 N 
ENDROOT
BRANCH   2   4
ATOM      4  C   UNL     1       1.382   8.141  21.163  0.00  0.00    +0.000 C 
BRANCH   4   5
ATOM      5  C   UNL     1       1.769   6.947  20.309  0.00  0.00    +0.000 A 
ATOM      6  C   UNL     1       2.700   7.096  19.266  0.00  0.00    +0.000 A 
ATOM      7  C   UNL     1       3.037   6.004  18.454  0.00  0.00    +0.000 A 
ATOM      8 CL   UNL     1       4.178   6.256  17.181  0.00  0.00    +0.000 Cl
ATOM      9  C   UNL     1       2.466   4.751  18.683  0.00  0.00    +0.000 A 
ATOM     10  C   UNL     1       1.526   4.608  19.709  0.00  0.00    +0.000 A 
ATOM     11  C   UNL     1       1.186   5.695  20.521  0.00  0.00    +0.000 A 
ATOM     12  O   UNL     1       0.891   3.421  19.991  0.00  0.00    +0.000 OA
ATOM     13  C   UNL     1       1.022   2.489  18.912  0.00  0.00    +0.000 C 
ATOM     14  C   UNL     1       2.458   2.439  18.424  0.00  0.00    +0.000 C 
ATOM     15  O   UNL     1       2.845   3.702  17.878  0.00  0.00    +0.000 OA
ENDBRANCH   4   5
ENDBRANCH   2   4
BRANCH   3  16
ATOM     16  C   UNL     1      -0.369  11.430  20.122  0.00  0.00    +0.000 C 
BRANCH  16  17
ATOM     17  C   UNL     1      -1.620  11.196  19.291  0.00  0.00    +0.000 A 
ATOM     18  C   UNL     1      -2.742  12.025  19.443  0.00  0.00    +0.000 A 
ATOM     19  C   UNL     1      -3.920  11.777  18.728  0.00  0.00    +0.000 A 
ATOM     20  C   UNL     1      -3.988  10.705  17.843  0.00  0.00    +0.000 A 
ATOM     21  C   UNL     1      -2.867   9.910  17.633  0.00  0.00    +0.000 A 
ATOM     22  C   UNL     1      -1.688  10.158  18.347  0.00  0.00    +0.000 A 
ENDBRANCH  16  17
ENDBRANCH   3  16
BRANCH   3  23
ATOM     23  C   UNL     1      -0.323  10.265  22.360  0.00  0.00    +0.000 C 
BRANCH  23  24
ATOM     24  C   UNL     1      -1.107  11.530  22.731  0.00  0.00    +0.000 A 
ATOM     25  N   UNL     1      -0.522  12.680  22.752  0.00  0.00    +0.000 NA
ATOM     26  C   UNL     1      -1.232  13.772  23.289  0.00  0.00    +0.000 A 
ATOM     27  C   UNL     1      -0.573  14.987  23.475  0.00  0.00    +0.000 A 
ATOM     28  C   UNL     1      -1.142  15.988  24.273  0.00  0.00    +0.000 A 
ATOM     29  C   UNL     1      -2.386  15.786  24.870  0.00  0.00    +0.000 A 
ATOM     30  C   UNL     1      -3.104  14.624  24.602  0.00  0.00    +0.000 A 
ATOM     31  C   UNL     1      -2.529  13.638  23.795  0.00  0.00    +0.000 A 
ATOM     32  C   UNL     1      -3.225  12.375  23.505  0.00  0.00    +0.000 A 
ATOM     33  O   UNL     1      -4.436  12.250  23.655  0.00  0.00    +0.000 OA
ATOM     34  N   UNL     1      -2.430  11.357  23.059  0.00  0.00    +0.000 N 
ATOM     35  H   UNL     1      -2.905  10.478  22.912  0.00  0.00    +0.000 HD
ENDBRANCH  23  24
ENDBRANCH   3  23
TORSDOF 6
ENDMDL
MODEL 9
REMARK VINA RESULT:      -8.5      2.412      3.267
REMARK  Name = 
REMARK  6 active torsions:
REMARK  status: ('A' for Active; 'I' for Inactive)
REMARK    1  A    between atoms: C_2  and  C_3
REMARK    2  A    between atoms: C_3  and  C_4
REMARK    3  A    between atoms: N_15  and  C_16
REMARK    4  A    between atoms: N_15  and  C_23
REMARK    5  A    between atoms: C_16  and  C_17
REMARK    6  A    between atoms: C_23  and  C_24
REMARK                            x       y       z     vdW  Elec       q    Type
REMARK                         _______ _______ _______ _____ _____    ______ ____
ROOT
ATOM      1  O   UNL     1       1.252   8.779  17.918  0.00  0.00    +0.000 OA
ATOM      2  C   UNL     1       1.176   9.208  19.072  0.00  0.00    +0.000 C 
ATOM      3  N   UNL     1       0.628  10.464  19.343  0.00  0.00    +0.000 N 
ENDROOT
BRANCH   2   4
ATOM      4  C   UNL     1       1.744   8.397  20.239  0.00  0.00    +0.000 C 
BRANCH   4   5
ATOM      5  C   UNL     1       2.138   6.976  19.873  0.00  0.00    +0.000 A 
ATOM      6  C   UNL     1       1.617   5.890  20.597  0.00  0.00    +0.000 A 
ATOM      7  C   UNL     1       2.002   4.579  20.284  0.00  0.00    +0.000 A 
ATOM      8 CL   UNL     1       1.335   3.288  21.220  0.00  0.00    +0.000 Cl
ATOM      9  C   UNL     1       2.892   4.336  19.237  0.00  0.00    +0.000 A 
ATOM     10  C   UNL     1       3.424   5.418  18.530  0.00  0.00    +0.000 A 
ATOM     11  C   UNL     1       3.044   6.728  18.839  0.00  0.00    +0.000 A 
ATOM     12  O   UNL     1       4.328   5.278  17.503  0.00  0.00    +0.000 OA
ATOM     13  C   UNL     1       4.919   3.974  17.501  0.00  0.00    +0.000 C 
ATOM     14  C   UNL     1       3.853   2.908  17.672  0.00  0.00    +0.000 C 
ATOM     15  O   UNL     1       3.222   3.031  18.949  0.00  0.00    +0.000 OA
ENDBRANCH   4   5
ENDBRANCH   2   4
BRANCH   3  16
ATOM     16  C   UNL     1       0.038  11.215  18.211  0.00  0.00    +0.000 C 
BRANCH  16  17
ATOM     17  C   UNL     1      -1.456  11.005  18.027  0.00  0.00    +0.000 A 
ATOM     18  C   UNL     1      -2.378  11.851  18.663  0.00  0.00    +0.000 A 
ATOM     19  C   UNL     1      -3.755  11.626  18.550  0.00  0.00    +0.000 A 
ATOM     20  C   UNL     1      -4.229  10.560  17.791  0.00  0.00    +0.000 A 
ATOM     21  C   UNL     1      -3.334   9.748  17.104  0.00  0.00    +0.000 A 
ATOM     22  C   UNL     1      -1.956   9.973  17.215  0.00  0.00    +0.000 A 
ENDBRANCH  16  17
ENDBRANCH   3  16
BRANCH   3  23
ATOM     23  C   UNL     1       0.815  11.198  20.611  0.00  0.00    +0.000 C 
BRANCH  23  24
ATOM     24  C   UNL     1       1.071  12.690  20.362  0.00  0.00    +0.000 A 
ATOM     25  N   UNL     1       0.090  13.529  20.345  0.00  0.00    +0.000 NA
ATOM     26  C   UNL     1       0.354  14.843  19.916  0.00  0.00    +0.000 A 
ATOM     27  C   UNL     1      -0.711  15.726  19.731  0.00  0.00    +0.000 A 
ATOM     28  C   UNL     1      -0.527  16.923  19.027  0.00  0.00    +0.000 A 
ATOM     29  C   UNL     1       0.731  17.254  18.524  0.00  0.00    +0.000 A 
ATOM     30  C   UNL     1       1.825  16.438  18.797  0.00  0.00    +0.000 A 
ATOM     31  C   UNL     1       1.629  15.252  19.511  0.00  0.00    +0.000 A 
ATOM     32  C   UNL     1       2.741  14.332  19.799  0.00  0.00    +0.000 A 
ATOM     33  O   UNL     1       3.912  14.689  19.741  0.00  0.00    +0.000 OA
ATOM     34  N   UNL     1       2.375  13.058  20.134  0.00  0.00    +0.000 N 
ATOM     35  H   UNL     1       3.143  12.419  20.279  0.00  0.00    +0.000 HD
ENDBRANCH  23  24
ENDBRANCH   3  23
TORSDOF 6
ENDMDL
