MODEL 1
REMARK VINA RESULT:      -8.2      0.000      0.000
REMARK  Name = 
REMARK  5 active torsions:
REMARK  status: ('A' for Active; 'I' for Inactive)
REMARK    1  A    between atoms: S_2  and  C_3
REMARK    2  A    between atoms: S_2  and  C_16
REMARK    3  A    between atoms: C_3  and  C_4
REMARK    4  A    between atoms: C_6  and  C_7
REMARK    5  A    between atoms: C_16  and  C_17
REMARK                            x       y       z     vdW  Elec       q    Type
REMARK                         _______ _______ _______ _____ _____    ______ ____
ROOT
ATOM      1  O   UNL     1       1.255   4.304  18.482  0.00  0.00    +0.000 OA
ATOM      2  S   UNL     1       1.666   4.119  19.916  0.00  0.00    +0.000 S 
ENDROOT
BRANCH   2   3
ATOM      3  C   UNL     1       2.984   2.857  19.917  0.00  0.00    +0.000 C 
BRANCH   3   4
ATOM      4  C   UNL     1       4.140   3.290  19.114  0.00  0.00    +0.000 A 
ATOM      5  N   UNL     1       4.251   3.375  17.811  0.00  0.00    +0.000 NA
ATOM      6  C   UNL     1       5.492   3.944  17.642  0.00  0.00    +0.000 A 
ATOM      7  N   UNL     1       6.157   4.126  18.797  0.00  0.00    +0.000 NA
ATOM      8  O   UNL     1       5.256   3.704  19.775  0.00  0.00    +0.000 OA
BRANCH   6   9
ATOM      9  C   UNL     1       6.022   4.301  16.329  0.00  0.00    +0.000 A 
ATOM     10  C   UNL     1       5.712   3.484  15.224  0.00  0.00    +0.000 A 
ATOM     11  C   UNL     1       6.188   3.789  13.946  0.00  0.00    +0.000 A 
ATOM     12  C   UNL     1       6.983   4.913  13.748  0.00  0.00    +0.000 A 
ATOM     13  C   UNL     1       7.308   5.728  14.830  0.00  0.00    +0.000 A 
ATOM     14  C   UNL     1       6.838   5.427  16.115  0.00  0.00    +0.000 A 
ATOM     15 CL   UNL     1       7.373   6.487  17.375  0.00  0.00    +0.000 Cl
ENDBRANCH   6   9
ENDBRANCH   3   4
ENDBRANCH   2   3
BRANCH   2  16
ATOM     16  C   UNL     1       2.718   5.531  20.398  0.00  0.00    +0.000 C 
BRANCH  16  17
ATOM     17  C   UNL     1       2.479   6.760  19.547  0.00  0.00    +0.000 A 
ATOM     18  C   UNL     1       3.104   6.803  18.288  0.00  0.00    +0.000 A 
ATOM     19  C   UNL     1       2.969   7.908  17.458  0.00  0.00    +0.000 A 
ATOM     20  C   UNL     1       2.200   8.990  17.869  0.00  0.00    +0.000 A 
ATOM     21  C   UNL     1       1.542   8.975  19.106  0.00  0.00    +0.000 A 
ATOM     22  C   UNL     1       0.757  10.076  19.487  0.00  0.00    +0.000 A 
ATOM     23  C   UNL     1       0.080  10.090  20.704  0.00  0.00    +0.000 A 
ATOM     24  C   UNL     1       0.184   9.001  21.558  0.00  0.00    +0.000 A 
ATOM     25  C   UNL     1       0.966   7.899  21.197  0.00  0.00    +0.000 A 
ATOM     26  C   UNL     1       1.665   7.852  19.967  0.00  0.00    +0.000 A 
ENDBRANCH  16  17
ENDBRANCH   2  16
TORSDOF 5
ENDMDL
MODEL 2
REMARK VINA RESULT:      -8.0      4.399      5.793
REMARK  Name = 
REMARK  5 active torsions:
REMARK  status: ('A' for Active; 'I' for Inactive)
REMARK    1  A    between atoms: S_2  and  C_3
REMARK    2  A    between atoms: S_2  and  C_16
REMARK    3  A    between atoms: C_3  and  C_4
REMARK    4  A    between atoms: C_6  and  C_7
REMARK    5  A    between atoms: C_16  and  C_17
REMARK                            x       y       z     vdW  Elec       q    Type
REMARK                         _______ _______ _______ _____ _____    ______ ____
ROOT
ATOM      1  O   UNL     1       1.310  11.510  18.540  0.00  0.00    +0.000 OA
ATOM      2  S   UNL     1       0.500  10.249  18.665  0.00  0.00    +0.000 S 
ENDROOT
BRANCH   2   3
ATOM      3  C   UNL     1       1.060   9.427  20.195  0.00  0.00    +0.000 C 
BRANCH   3   4
ATOM      4  C   UNL     1       1.623   8.095  19.911  0.00  0.00    +0.000 A 
ATOM      5  N   UNL     1       2.287   7.691  18.856  0.00  0.00    +0.000 NA
ATOM      6  C   UNL     1       2.658   6.411  19.195  0.00  0.00    +0.000 A 
ATOM      7  N   UNL     1       2.169   6.011  20.383  0.00  0.00    +0.000 NA
ATOM      8  O   UNL     1       1.492   7.132  20.864  0.00  0.00    +0.000 OA
BRANCH   6   9
ATOM      9  C   UNL     1       3.495   5.580  18.335  0.00  0.00    +0.000 A 
ATOM     10  C   UNL     1       4.836   5.957  18.119  0.00  0.00    +0.000 A 
ATOM     11  C   UNL     1       5.680   5.190  17.312  0.00  0.00    +0.000 A 
ATOM     12  C   UNL     1       5.200   4.034  16.703  0.00  0.00    +0.000 A 
ATOM     13  C   UNL     1       3.876   3.650  16.896  0.00  0.00    +0.000 A 
ATOM     14  C   UNL     1       3.022   4.416  17.702  0.00  0.00    +0.000 A 
ATOM     15 CL   UNL     1       1.386   3.857  17.800  0.00  0.00    +0.000 Cl
ENDBRANCH   6   9
ENDBRANCH   3   4
ENDBRANCH   2   3
BRANCH   2  16
ATOM     16  C   UNL     1      -1.168  10.696  19.259  0.00  0.00    +0.000 C 
BRANCH  16  17
ATOM     17  C   UNL     1      -2.196  10.733  18.148  0.00  0.00    +0.000 A 
ATOM     18  C   UNL     1      -1.882  10.057  16.956  0.00  0.00    +0.000 A 
ATOM     19  C   UNL     1      -2.751  10.071  15.873  0.00  0.00    +0.000 A 
ATOM     20  C   UNL     1      -3.956  10.756  15.964  0.00  0.00    +0.000 A 
ATOM     21  C   UNL     1      -4.317  11.422  17.143  0.00  0.00    +0.000 A 
ATOM     22  C   UNL     1      -5.550  12.092  17.212  0.00  0.00    +0.000 A 
ATOM     23  C   UNL     1      -5.945  12.755  18.371  0.00  0.00    +0.000 A 
ATOM     24  C   UNL     1      -5.107  12.757  19.477  0.00  0.00    +0.000 A 
ATOM     25  C   UNL     1      -3.873  12.101  19.424  0.00  0.00    +0.000 A 
ATOM     26  C   UNL     1      -3.442  11.417  18.262  0.00  0.00    +0.000 A 
ENDBRANCH  16  17
ENDBRANCH   2  16
TORSDOF 5
ENDMDL
MODEL 3
REMARK VINA RESULT:      -7.7      3.651      4.952
REMARK  Name = 
REMARK  5 active torsions:
REMARK  status: ('A' for Active; 'I' for Inactive)
REMARK    1  A    between atoms: S_2  and  C_3
REMARK    2  A    between atoms: S_2  and  C_16
REMARK    3  A    between atoms: C_3  and  C_4
REMARK    4  A    between atoms: C_6  and  C_7
REMARK    5  A    between atoms: C_16  and  C_17
REMARK                            x       y       z     vdW  Elec       q    Type
REMARK                         _______ _______ _______ _____ _____    ______ ____
ROOT
ATOM      1  O   UNL     1       2.512  10.446  18.001  0.00  0.00    +0.000 OA
ATOM      2  S   UNL     1       1.194   9.745  18.173  0.00  0.00    +0.000 S 
ENDROOT
BRANCH   2   3
ATOM      3  C   UNL     1       1.396   8.608  19.586  0.00  0.00    +0.000 C 
BRANCH   3   4
ATOM      4  C   UNL     1       2.294   7.491  19.250  0.00  0.00    +0.000 A 
ATOM      5  N   UNL     1       2.965   7.278  18.144  0.00  0.00    +0.000 NA
ATOM      6  C   UNL     1       3.712   6.164  18.444  0.00  0.00    +0.000 A 
ATOM      7  N   UNL     1       3.450   5.658  19.663  0.00  0.00    +0.000 NA
ATOM      8  O   UNL     1       2.519   6.544  20.203  0.00  0.00    +0.000 OA
BRANCH   6   9
ATOM      9  C   UNL     1       4.685   5.595  17.516  0.00  0.00    +0.000 A 
ATOM     10  C   UNL     1       5.887   6.292  17.277  0.00  0.00    +0.000 A 
ATOM     11  C   UNL     1       6.853   5.785  16.404  0.00  0.00    +0.000 A 
ATOM     12  C   UNL     1       6.637   4.575  15.753  0.00  0.00    +0.000 A 
ATOM     13  C   UNL     1       5.452   3.876  15.969  0.00  0.00    +0.000 A 
ATOM     14  C   UNL     1       4.477   4.379  16.839  0.00  0.00    +0.000 A 
ATOM     15 CL   UNL     1       3.027   3.440  16.961  0.00  0.00    +0.000 Cl
ENDBRANCH   6   9
ENDBRANCH   3   4
ENDBRANCH   2   3
BRANCH   2  16
ATOM     16  C   UNL     1       0.034  10.897  18.988  0.00  0.00    +0.000 C 
BRANCH  16  17
ATOM     17  C   UNL     1      -1.366  10.821  18.419  0.00  0.00    +0.000 A 
ATOM     18  C   UNL     1      -1.562   9.997  17.296  0.00  0.00    +0.000 A 
ATOM     19  C   UNL     1      -2.806   9.897  16.687  0.00  0.00    +0.000 A 
ATOM     20  C   UNL     1      -3.882  10.615  17.195  0.00  0.00    +0.000 A 
ATOM     21  C   UNL     1      -3.734  11.428  18.326  0.00  0.00    +0.000 A 
ATOM     22  C   UNL     1      -4.844  12.128  18.827  0.00  0.00    +0.000 A 
ATOM     23  C   UNL     1      -4.735  12.936  19.956  0.00  0.00    +0.000 A 
ATOM     24  C   UNL     1      -3.510  13.055  20.597  0.00  0.00    +0.000 A 
ATOM     25  C   UNL     1      -2.393  12.370  20.108  0.00  0.00    +0.000 A 
ATOM     26  C   UNL     1      -2.470  11.540  18.964  0.00  0.00    +0.000 A 
ENDBRANCH  16  17
ENDBRANCH   2  16
TORSDOF 5
ENDMDL
MODEL 4
REMARK VINA RESULT:      -7.7      4.910      8.926
REMARK  Name = 
REMARK  5 active torsions:
REMARK  status: ('A' for Active; 'I' for Inactive)
REMARK    1  A    between atoms: S_2  and  C_3
REMARK    2  A    between atoms: S_2  and  C_16
REMARK    3  A    between atoms: C_3  and  C_4
REMARK    4  A    between atoms: C_6  and  C_7
REMARK    5  A    between atoms: C_16  and  C_17
REMARK                            x       y       z     vdW  Elec       q    Type
REMARK                         _______ _______ _______ _____ _____    ______ ____
ROOT
ATOM      1  O   UNL     1       2.002   9.609  17.296  0.00  0.00    +0.000 OA
ATOM      2  S   UNL     1       2.366   8.805  18.513  0.00  0.00    +0.000 S 
ENDROOT
BRANCH   2   3
ATOM      3  C   UNL     1       1.179   9.275  19.816  0.00  0.00    +0.000 C 
BRANCH   3   4
ATOM      4  C   UNL     1       0.179  10.231  19.310  0.00  0.00    +0.000 A 
ATOM      5  N   UNL     1      -1.068  10.016  18.971  0.00  0.00    +0.000 NA
ATOM      6  C   UNL     1      -1.537  11.278  18.693  0.00  0.00    +0.000 A 
ATOM      7  N   UNL     1      -0.589  12.229  18.776  0.00  0.00    +0.000 NA
ATOM      8  O   UNL     1       0.547  11.537  19.197  0.00  0.00    +0.000 OA
BRANCH   6   9
ATOM      9  C   UNL     1      -2.928  11.541  18.338  0.00  0.00    +0.000 A 
ATOM     10  C   UNL     1      -3.791  12.080  19.313  0.00  0.00    +0.000 A 
ATOM     11  C   UNL     1      -5.129  12.357  19.020  0.00  0.00    +0.000 A 
ATOM     12  C   UNL     1      -5.630  12.099  17.748  0.00  0.00    +0.000 A 
ATOM     13  C   UNL     1      -4.796  11.558  16.773  0.00  0.00    +0.000 A 
ATOM     14  C   UNL     1      -3.455  11.274  17.061  0.00  0.00    +0.000 A 
ATOM     15 CL   UNL     1      -2.553  10.543  15.776  0.00  0.00    +0.000 Cl
ENDBRANCH   6   9
ENDBRANCH   3   4
ENDBRANCH   2   3
BRANCH   2  16
ATOM     16  C   UNL     1       1.760   7.099  18.275  0.00  0.00    +0.000 C 
BRANCH  16  17
ATOM     17  C   UNL     1       2.866   6.125  17.927  0.00  0.00    +0.000 A 
ATOM     18  C   UNL     1       4.088   6.668  17.494  0.00  0.00    +0.000 A 
ATOM     19  C   UNL     1       5.144   5.848  17.118  0.00  0.00    +0.000 A 
ATOM     20  C   UNL     1       5.000   4.467  17.177  0.00  0.00    +0.000 A 
ATOM     21  C   UNL     1       3.806   3.888  17.627  0.00  0.00    +0.000 A 
ATOM     22  C   UNL     1       3.696   2.489  17.692  0.00  0.00    +0.000 A 
ATOM     23  C   UNL     1       2.528   1.880  18.146  0.00  0.00    +0.000 A 
ATOM     24  C   UNL     1       1.453   2.666  18.537  0.00  0.00    +0.000 A 
ATOM     25  C   UNL     1       1.544   4.060  18.472  0.00  0.00    +0.000 A 
ATOM     26  C   UNL     1       2.716   4.710  18.018  0.00  0.00    +0.000 A 
ENDBRANCH  16  17
ENDBRANCH   2  16
TORSDOF 5
ENDMDL
MODEL 5
REMARK VINA RESULT:      -7.7      2.938      7.698
REMARK  Name = 
REMARK  5 active torsions:
REMARK  status: ('A' for Active; 'I' for Inactive)
REMARK    1  A    between atoms: S_2  and  C_3
REMARK    2  A    between atoms: S_2  and  C_16
REMARK    3  A    between atoms: C_3  and  C_4
REMARK    4  A    between atoms: C_6  and  C_7
REMARK    5  A    between atoms: C_16  and  C_17
REMARK                            x       y       z     vdW  Elec       q    Type
REMARK                         _______ _______ _______ _____ _____    ______ ____
ROOT
ATOM      1  O   UNL     1       1.216   4.467  18.649  0.00  0.00    +0.000 OA
ATOM      2  S   UNL     1       2.495   5.155  18.263  0.00  0.00    +0.000 S 
ENDROOT
BRANCH   2   3
ATOM      3  C   UNL     1       2.741   6.501  19.471  0.00  0.00    +0.000 C 
BRANCH   3   4
ATOM      4  C   UNL     1       2.178   7.771  18.979  0.00  0.00    +0.000 A 
ATOM      5  N   UNL     1       1.391   8.616  19.598  0.00  0.00    +0.000 NA
ATOM      6  C   UNL     1       1.292   9.658  18.707  0.00  0.00    +0.000 A 
ATOM      7  N   UNL     1       1.928   9.427  17.544  0.00  0.00    +0.000 NA
ATOM      8  O   UNL     1       2.526   8.180  17.728  0.00  0.00    +0.000 OA
BRANCH   6   9
ATOM      9  C   UNL     1       0.559  10.884  19.007  0.00  0.00    +0.000 A 
ATOM     10  C   UNL     1      -0.748  10.787  19.526  0.00  0.00    +0.000 A 
ATOM     11  C   UNL     1      -1.487  11.932  19.837  0.00  0.00    +0.000 A 
ATOM     12  C   UNL     1      -0.937  13.193  19.634  0.00  0.00    +0.000 A 
ATOM     13  C   UNL     1       0.350  13.310  19.113  0.00  0.00    +0.000 A 
ATOM     14  C   UNL     1       1.096  12.168  18.795  0.00  0.00    +0.000 A 
ATOM     15 CL   UNL     1       2.652  12.462  18.095  0.00  0.00    +0.000 Cl
ENDBRANCH   6   9
ENDBRANCH   3   4
ENDBRANCH   2   3
BRANCH   2  16
ATOM     16  C   UNL     1       3.893   4.116  18.812  0.00  0.00    +0.000 C 
BRANCH  16  17
ATOM     17  C   UNL     1       5.237   4.663  18.381  0.00  0.00    +0.000 A 
ATOM     18  C   UNL     1       6.047   5.240  19.375  0.00  0.00    +0.000 A 
ATOM     19  C   UNL     1       7.279   5.800  19.062  0.00  0.00    +0.000 A 
ATOM     20  C   UNL     1       7.728   5.786  17.747  0.00  0.00    +0.000 A 
ATOM     21  C   UNL     1       6.962   5.199  16.732  0.00  0.00    +0.000 A 
ATOM     22  C   UNL     1       7.450   5.184  15.415  0.00  0.00    +0.000 A 
ATOM     23  C   UNL     1       6.720   4.599  14.383  0.00  0.00    +0.000 A 
ATOM     24  C   UNL     1       5.488   4.023  14.658  0.00  0.00    +0.000 A 
ATOM     25  C   UNL     1       4.984   4.034  15.962  0.00  0.00    +0.000 A 
ATOM     26  C   UNL     1       5.701   4.619  17.033  0.00  0.00    +0.000 A 
ENDBRANCH  16  17
ENDBRANCH   2  16
TORSDOF 5
ENDMDL
MODEL 6
REMARK VINA RESULT:      -7.6      5.100      6.683
REMARK  Name = 
REMARK  5 active torsions:
REMARK  status: ('A' for Active; 'I' for Inactive)
REMARK    1  A    between atoms: S_2  and  C_3
REMARK    2  A    between atoms: S_2  and  C_16
REMARK    3  A    between atoms: C_3  and  C_4
REMARK    4  A    between atoms: C_6  and  C_7
REMARK    5  A    between atoms: C_16  and  C_17
REMARK                            x       y       z     vdW  Elec       q    Type
REMARK                         _______ _______ _______ _____ _____    ______ ____
ROOT
ATOM      1  O   UNL     1       6.695   4.615  19.036  0.00  0.00    +0.000 OA
ATOM      2  S   UNL     1       6.388   6.068  18.805  0.00  0.00    +0.000 S 
ENDROOT
BRANCH   2   3
ATOM      3  C   UNL     1       7.660   6.687  17.652  0.00  0.00    +0.000 C 
BRANCH   3   4
ATOM      4  C   UNL     1       7.991   8.096  17.927  0.00  0.00    +0.000 A 
ATOM      5  N   UNL     1       8.994   8.587  18.613  0.00  0.00    +0.000 NA
ATOM      6  C   UNL     1       8.860   9.943  18.430  0.00  0.00    +0.000 A 
ATOM      7  N   UNL     1       7.765  10.281  17.726  0.00  0.00    +0.000 NA
ATOM      8  O   UNL     1       7.194   9.056  17.381  0.00  0.00    +0.000 OA
BRANCH   6   9
ATOM      9  C   UNL     1       9.818  10.908  18.962  0.00  0.00    +0.000 A 
ATOM     10  C   UNL     1      10.843  11.385  18.121  0.00  0.00    +0.000 A 
ATOM     11  C   UNL     1      11.779  12.315  18.581  0.00  0.00    +0.000 A 
ATOM     12  C   UNL     1      11.710  12.784  19.889  0.00  0.00    +0.000 A 
ATOM     13  C   UNL     1      10.710  12.318  20.739  0.00  0.00    +0.000 A 
ATOM     14  C   UNL     1       9.770  11.382  20.286  0.00  0.00    +0.000 A 
ATOM     15 CL   UNL     1       8.626  10.841  21.467  0.00  0.00    +0.000 Cl
ENDBRANCH   6   9
ENDBRANCH   3   4
ENDBRANCH   2   3
BRANCH   2  16
ATOM     16  C   UNL     1       4.978   6.179  17.649  0.00  0.00    +0.000 C 
BRANCH  16  17
ATOM     17  C   UNL     1       4.074   4.967  17.707  0.00  0.00    +0.000 A 
ATOM     18  C   UNL     1       4.256   3.980  16.723  0.00  0.00    +0.000 A 
ATOM     19  C   UNL     1       3.446   2.853  16.678  0.00  0.00    +0.000 A 
ATOM     20  C   UNL     1       2.441   2.687  17.623  0.00  0.00    +0.000 A 
ATOM     21  C   UNL     1       2.243   3.636  18.635  0.00  0.00    +0.000 A 
ATOM     22  C   UNL     1       1.231   3.433  19.587  0.00  0.00    +0.000 A 
ATOM     23  C   UNL     1       1.014   4.350  20.613  0.00  0.00    +0.000 A 
ATOM     24  C   UNL     1       1.808   5.485  20.696  0.00  0.00    +0.000 A 
ATOM     25  C   UNL     1       2.816   5.706  19.752  0.00  0.00    +0.000 A 
ATOM     26  C   UNL     1       3.064   4.794  18.699  0.00  0.00    +0.000 A 
ENDBRANCH  16  17
ENDBRANCH   2  16
TORSDOF 5
ENDMDL
MODEL 7
REMARK VINA RESULT:      -7.6      4.917      8.573
REMARK  Name = 
REMARK  5 active torsions:
REMARK  status: ('A' for Active; 'I' for Inactive)
REMARK    1  A    between atoms: S_2  and  C_3
REMARK    2  A    between atoms: S_2  and  C_16
REMARK    3  A    between atoms: C_3  and  C_4
REMARK    4  A    between atoms: C_6  and  C_7
REMARK    5  A    between atoms: C_16  and  C_17
REMARK                            x       y       z     vdW  Elec       q    Type
REMARK                         _______ _______ _______ _____ _____    ______ ____
ROOT
ATOM      1  O   UNL     1       1.068   8.498  17.507  0.00  0.00    +0.000 OA
ATOM      2  S   UNL     1       1.890   8.868  18.710  0.00  0.00    +0.000 S 
ENDROOT
BRANCH   2   3
ATOM      3  C   UNL     1       0.731   9.576  19.929  0.00  0.00    +0.000 C 
BRANCH   3   4
ATOM      4  C   UNL     1       0.946  11.024  20.094  0.00  0.00    +0.000 A 
ATOM      5  N   UNL     1       0.931  11.967  19.184  0.00  0.00    +0.000 NA
ATOM      6  C   UNL     1       1.072  13.116  19.926  0.00  0.00    +0.000 A 
ATOM      7  N   UNL     1       1.252  12.884  21.239  0.00  0.00    +0.000 NA
ATOM      8  O   UNL     1       1.157  11.497  21.353  0.00  0.00    +0.000 OA
BRANCH   6   9
ATOM      9  C   UNL     1       1.035  14.448  19.330  0.00  0.00    +0.000 A 
ATOM     10  C   UNL     1      -0.216  15.052  19.091  0.00  0.00    +0.000 A 
ATOM     11  C   UNL     1      -0.304  16.329  18.530  0.00  0.00    +0.000 A 
ATOM     12  C   UNL     1       0.853  17.025  18.196  0.00  0.00    +0.000 A 
ATOM     13  C   UNL     1       2.098  16.441  18.416  0.00  0.00    +0.000 A 
ATOM     14  C   UNL     1       2.195  15.160  18.974  0.00  0.00    +0.000 A 
ATOM     15 CL   UNL     1       3.801  14.531  19.130  0.00  0.00    +0.000 Cl
ENDBRANCH   6   9
ENDBRANCH   3   4
ENDBRANCH   2   3
BRANCH   2  16
ATOM     16  C   UNL     1       2.270   7.341  19.637  0.00  0.00    +0.000 C 
BRANCH  16  17
ATOM     17  C   UNL     1       2.824   6.242  18.756  0.00  0.00    +0.000 A 
ATOM     18  C   UNL     1       3.863   6.586  17.873  0.00  0.00    +0.000 A 
ATOM     19  C   UNL     1       4.405   5.650  17.002  0.00  0.00    +0.000 A 
ATOM     20  C   UNL     1       3.923   4.346  17.004  0.00  0.00    +0.000 A 
ATOM     21  C   UNL     1       2.906   3.957  17.886  0.00  0.00    +0.000 A 
ATOM     22  C   UNL     1       2.451   2.628  17.877  0.00  0.00    +0.000 A 
ATOM     23  C   UNL     1       1.450   2.205  18.748  0.00  0.00    +0.000 A 
ATOM     24  C   UNL     1       0.889   3.110  19.638  0.00  0.00    +0.000 A 
ATOM     25  C   UNL     1       1.325   4.438  19.656  0.00  0.00    +0.000 A 
ATOM     26  C   UNL     1       2.341   4.901  18.786  0.00  0.00    +0.000 A 
ENDBRANCH  16  17
ENDBRANCH   2  16
TORSDOF 5
ENDMDL
MODEL 8
REMARK VINA RESULT:      -7.6      3.059      7.984
REMARK  Name = 
REMARK  5 active torsions:
REMARK  status: ('A' for Active; 'I' for Inactive)
REMARK    1  A    between atoms: S_2  and  C_3
REMARK    2  A    between atoms: S_2  and  C_16
REMARK    3  A    between atoms: C_3  and  C_4
REMARK    4  A    between atoms: C_6  and  C_7
REMARK    5  A    between atoms: C_16  and  C_17
REMARK                            x       y       z     vdW  Elec       q    Type
REMARK                         _______ _______ _______ _____ _____    ______ ____
ROOT
ATOM      1  O   UNL     1       2.730   5.158  20.569  0.00  0.00    +0.000 OA
ATOM      2  S   UNL     1       2.368   5.143  19.110  0.00  0.00    +0.000 S 
ENDROOT
BRANCH   2   3
ATOM      3  C   UNL     1       3.092   6.653  18.384  0.00  0.00    +0.000 C 
BRANCH   3   4
ATOM      4  C   UNL     1       2.237   7.827  18.628  0.00  0.00    +0.000 A 
ATOM      5  N   UNL     1       1.815   8.314  19.769  0.00  0.00    +0.000 NA
ATOM      6  C   UNL     1       1.165   9.466  19.393  0.00  0.00    +0.000 A 
ATOM      7  N   UNL     1       1.117   9.640  18.060  0.00  0.00    +0.000 NA
ATOM      8  O   UNL     1       1.838   8.560  17.552  0.00  0.00    +0.000 OA
BRANCH   6   9
ATOM      9  C   UNL     1       0.585  10.394  20.359  0.00  0.00    +0.000 A 
ATOM     10  C   UNL     1       0.850  11.772  20.224  0.00  0.00    +0.000 A 
ATOM     11  C   UNL     1       0.311  12.701  21.118  0.00  0.00    +0.000 A 
ATOM     12  C   UNL     1      -0.500  12.272  22.164  0.00  0.00    +0.000 A 
ATOM     13  C   UNL     1      -0.766  10.914  22.320  0.00  0.00    +0.000 A 
ATOM     14  C   UNL     1      -0.226   9.976  21.430  0.00  0.00    +0.000 A 
ATOM     15 CL   UNL     1      -0.584   8.319  21.782  0.00  0.00    +0.000 Cl
ENDBRANCH   6   9
ENDBRANCH   3   4
ENDBRANCH   2   3
BRANCH   2  16
ATOM     16  C   UNL     1       3.460   3.951  18.260  0.00  0.00    +0.000 C 
BRANCH  16  17
ATOM     17  C   UNL     1       4.870   4.471  18.078  0.00  0.00    +0.000 A 
ATOM     18  C   UNL     1       5.556   4.887  19.233  0.00  0.00    +0.000 A 
ATOM     19  C   UNL     1       6.840   5.412  19.155  0.00  0.00    +0.000 A 
ATOM     20  C   UNL     1       7.465   5.524  17.919  0.00  0.00    +0.000 A 
ATOM     21  C   UNL     1       6.824   5.098  16.748  0.00  0.00    +0.000 A 
ATOM     22  C   UNL     1       7.488   5.207  15.515  0.00  0.00    +0.000 A 
ATOM     23  C   UNL     1       6.885   4.783  14.334  0.00  0.00    +0.000 A 
ATOM     24  C   UNL     1       5.606   4.247  14.372  0.00  0.00    +0.000 A 
ATOM     25  C   UNL     1       4.928   4.136  15.590  0.00  0.00    +0.000 A 
ATOM     26  C   UNL     1       5.512   4.556  16.809  0.00  0.00    +0.000 A 
ENDBRANCH  16  17
ENDBRANCH   2  16
TORSDOF 5
ENDMDL
MODEL 9
REMARK VINA RESULT:      -7.5      2.616      7.531
REMARK  Name = 
REMARK  5 active torsions:
REMARK  status: ('A' for Active; 'I' for Inactive)
REMARK    1  A    between atoms: S_2  and  C_3
REMARK    2  A    between atoms: S_2  and  C_16
REMARK    3  A    between atoms: C_3  and  C_4
REMARK    4  A    between atoms: C_6  and  C_7
REMARK    5  A    between atoms: C_16  and  C_17
REMARK                            x       y       z     vdW  Elec       q    Type
REMARK                         _______ _______ _______ _____ _____    ______ ____
ROOT
ATOM      1  O   UNL     1       2.275   2.573  18.648  0.00  0.00    +0.000 OA
ATOM      2  S   UNL     1       3.040   3.865  18.718  0.00  0.00    +0.000 S 
ENDROOT
BRANCH   2   3
ATOM      3  C   UNL     1       2.659   4.603  20.343  0.00  0.00    +0.000 C 
BRANCH   3   4
ATOM      4  C   UNL     1       2.191   5.993  20.203  0.00  0.00    +0.000 A 
ATOM      5  N   UNL     1       1.411   6.683  20.998  0.00  0.00    +0.000 NA
ATOM      6  C   UNL     1       1.420   7.936  20.432  0.00  0.00    +0.000 A 
ATOM      7  N   UNL     1       2.113   7.996  19.280  0.00  0.00    +0.000 NA
ATOM      8  O   UNL     1       2.635   6.710  19.134  0.00  0.00    +0.000 OA
BRANCH   6   9
ATOM      9  C   UNL     1       0.732   9.076  21.031  0.00  0.00    +0.000 A 
ATOM     10  C   UNL     1       0.302   8.985  22.370  0.00  0.00    +0.000 A 
ATOM     11  C   UNL     1      -0.352  10.052  22.991  0.00  0.00    +0.000 A 
ATOM     12  C   UNL     1      -0.591  11.228  22.287  0.00  0.00    +0.000 A 
ATOM     13  C   UNL     1      -0.182  11.333  20.959  0.00  0.00    +0.000 A 
ATOM     14  C   UNL     1       0.471  10.267  20.329  0.00  0.00    +0.000 A 
ATOM     15 CL   UNL     1       0.863  10.512  18.660  0.00  0.00    +0.000 Cl
ENDBRANCH   6   9
ENDBRANCH   3   4
ENDBRANCH   2   3
BRANCH   2  16
ATOM     16  C   UNL     1       4.791   3.477  19.064  0.00  0.00    +0.000 C 
BRANCH  16  17
ATOM     17  C   UNL     1       5.749   4.455  18.417  0.00  0.00    +0.000 A 
ATOM     18  C   UNL     1       6.408   5.365  19.263  0.00  0.00    +0.000 A 
ATOM     19  C   UNL     1       7.275   6.322  18.751  0.00  0.00    +0.000 A 
ATOM     20  C   UNL     1       7.505   6.381  17.382  0.00  0.00    +0.000 A 
ATOM     21  C   UNL     1       6.887   5.476  16.509  0.00  0.00    +0.000 A 
ATOM     22  C   UNL     1       7.154   5.549  15.132  0.00  0.00    +0.000 A 
ATOM     23  C   UNL     1       6.565   4.659  14.237  0.00  0.00    +0.000 A 
ATOM     24  C   UNL     1       5.698   3.684  14.711  0.00  0.00    +0.000 A 
ATOM     25  C   UNL     1       5.417   3.601  16.078  0.00  0.00    +0.000 A 
ATOM     26  C   UNL     1       5.999   4.489  17.014  0.00  0.00    +0.000 A 
ENDBRANCH  16  17
ENDBRANCH   2  16
TORSDOF 5
ENDMDL
