MODEL 1
REMARK VINA RESULT:      -8.7      0.000      0.000
REMARK  Name = 
REMARK  7 active torsions:
REMARK  status: ('A' for Active; 'I' for Inactive)
REMARK    1  A    between atoms: C_1  and  C_2
REMARK    2  A    between atoms: C_2  and  C_3
REMARK    3  A    between atoms: C_2  and  C_23
REMARK    4  A    between atoms: C_3  and  C_4
REMARK    5  A    between atoms: C_8  and  N_9
REMARK    6  A    between atoms: C_16  and  C_17
REMARK    7  A    between atoms: N_27  and  C_28
REMARK                            x       y       z     vdW  Elec       q    Type
REMARK                         _______ _______ _______ _____ _____    ______ ____
ROOT
ATOM      1  C   UNL     1       7.992   8.072  17.937  0.00  0.00    +0.000 A 
ATOM      2  C   UNL     1       8.130   7.274  19.081  0.00  0.00    +0.000 A 
ATOM      3  C   UNL     1       7.949   5.893  19.011  0.00  0.00    +0.000 A 
ATOM      4  C   UNL     1       7.527   5.306  17.824  0.00  0.00    +0.000 A 
ATOM      5  C   UNL     1       7.186   6.120  16.736  0.00  0.00    +0.000 A 
ATOM      6  C   UNL     1       7.564   7.471  16.746  0.00  0.00    +0.000 A 
ENDROOT
BRANCH   5   7
ATOM      7  N   UNL     1       6.084   5.739  15.866  0.00  0.00    +0.000 N 
ATOM      8  C   UNL     1       4.895   6.578  16.148  0.00  0.00    +0.000 C 
ATOM      9  C   UNL     1       4.118   5.735  17.108  0.00  0.00    +0.000 A 
ATOM     10  C   UNL     1       4.481   4.405  16.888  0.00  0.00    +0.000 A 
ATOM     11  C   UNL     1       4.061   3.370  17.701  0.00  0.00    +0.000 A 
ATOM     12  C   UNL     1       3.258   3.702  18.790  0.00  0.00    +0.000 A 
ATOM     13  C   UNL     1       2.902   5.042  19.036  0.00  0.00    +0.000 A 
ATOM     14  C   UNL     1       3.320   6.087  18.191  0.00  0.00    +0.000 A 
ATOM     15  C   UNL     1       5.644   4.397  15.974  0.00  0.00    +0.000 C 
ATOM     16  O   UNL     1       6.195   3.384  15.580  0.00  0.00    +0.000 OA
BRANCH  14  17
ATOM     17  C   UNL     1       2.999   7.511  18.564  0.00  0.00    +0.000 C 
ATOM     18  F   UNL     1       2.246   8.128  17.609  0.00  0.00    +0.000 F 
ATOM     19  F   UNL     1       2.262   7.584  19.710  0.00  0.00    +0.000 F 
ENDBRANCH  14  17
ENDBRANCH   5   7
BRANCH   1  20
ATOM     20  C   UNL     1       8.218   9.565  17.998  0.00  0.00    +0.000 C 
BRANCH  20  22
ATOM     21  C   UNL     1       9.037  10.400  20.269  0.00  0.00    +0.000 C 
ATOM     22  C   UNL     1       9.426  10.079  18.823  0.00  0.00    +0.000 C 
BRANCH  22  23
ATOM     23  C   UNL     1      10.141  11.244  18.195  0.00  0.00    +0.000 A 
ATOM     24  N   UNL     1      11.449  11.351  18.029  0.00  0.00    +0.000 NA
ATOM     25  N   UNL     1      11.724  12.551  17.438  0.00  0.00    +0.000 NA
ATOM     26  C   UNL     1      10.585  13.137  17.206  0.00  0.00    +0.000 A 
ATOM     27  N   UNL     1       9.559  12.356  17.643  0.00  0.00    +0.000 N 
ATOM     28  C   UNL     1       8.163  12.653  17.497  0.00  0.00    +0.000 C 
ENDBRANCH  22  23
ENDBRANCH  20  22
ENDBRANCH   1  20
TORSDOF 5
ENDMDL
MODEL 2
REMARK VINA RESULT:      -8.5      0.547      1.120
REMARK  Name = 
REMARK  7 active torsions:
REMARK  status: ('A' for Active; 'I' for Inactive)
REMARK    1  A    between atoms: C_1  and  C_2
REMARK    2  A    between atoms: C_2  and  C_3
REMARK    3  A    between atoms: C_2  and  C_23
REMARK    4  A    between atoms: C_3  and  C_4
REMARK    5  A    between atoms: C_8  and  N_9
REMARK    6  A    between atoms: C_16  and  C_17
REMARK    7  A    between atoms: N_27  and  C_28
REMARK                            x       y       z     vdW  Elec       q    Type
REMARK                         _______ _______ _______ _____ _____    ______ ____
ROOT
ATOM      1  C   UNL     1       7.936   8.098  17.922  0.00  0.00    +0.000 A 
ATOM      2  C   UNL     1       8.111   7.306  19.065  0.00  0.00    +0.000 A 
ATOM      3  C   UNL     1       7.969   5.920  18.998  0.00  0.00    +0.000 A 
ATOM      4  C   UNL     1       7.552   5.319  17.815  0.00  0.00    +0.000 A 
ATOM      5  C   UNL     1       7.175   6.123  16.731  0.00  0.00    +0.000 A 
ATOM      6  C   UNL     1       7.514   7.483  16.736  0.00  0.00    +0.000 A 
ENDROOT
BRANCH   5   7
ATOM      7  N   UNL     1       6.075   5.708  15.873  0.00  0.00    +0.000 N 
ATOM      8  C   UNL     1       4.889   6.565  16.112  0.00  0.00    +0.000 C 
ATOM      9  C   UNL     1       4.103   5.769  17.104  0.00  0.00    +0.000 A 
ATOM     10  C   UNL     1       4.460   4.430  16.946  0.00  0.00    +0.000 A 
ATOM     11  C   UNL     1       4.031   3.434  17.802  0.00  0.00    +0.000 A 
ATOM     12  C   UNL     1       3.224   3.819  18.872  0.00  0.00    +0.000 A 
ATOM     13  C   UNL     1       2.874   5.170  19.055  0.00  0.00    +0.000 A 
ATOM     14  C   UNL     1       3.302   6.174  18.166  0.00  0.00    +0.000 A 
ATOM     15  C   UNL     1       5.628   4.374  16.039  0.00  0.00    +0.000 C 
ATOM     16  O   UNL     1       6.176   3.342  15.694  0.00  0.00    +0.000 OA
BRANCH  14  17
ATOM     17  C   UNL     1       2.987   7.615  18.473  0.00  0.00    +0.000 C 
ATOM     18  F   UNL     1       2.251   8.195  17.483  0.00  0.00    +0.000 F 
ATOM     19  F   UNL     1       2.236   7.742  19.606  0.00  0.00    +0.000 F 
ENDBRANCH  14  17
ENDBRANCH   5   7
BRANCH   1  20
ATOM     20  C   UNL     1       8.120   9.597  17.979  0.00  0.00    +0.000 C 
BRANCH  20  22
ATOM     21  C   UNL     1       9.098  10.234  20.252  0.00  0.00    +0.000 C 
ATOM     22  C   UNL     1       9.352  10.145  18.743  0.00  0.00    +0.000 C 
BRANCH  22  23
ATOM     23  C   UNL     1       9.864  11.456  18.213  0.00  0.00    +0.000 A 
ATOM     24  N   UNL     1       9.153  12.349  17.542  0.00  0.00    +0.000 NA
ATOM     25  N   UNL     1       9.960  13.403  17.217  0.00  0.00    +0.000 NA
ATOM     26  C   UNL     1      11.132  13.166  17.733  0.00  0.00    +0.000 A 
ATOM     27  N   UNL     1      11.123  11.969  18.383  0.00  0.00    +0.000 N 
ATOM     28  C   UNL     1      12.221  11.413  19.122  0.00  0.00    +0.000 C 
ENDBRANCH  22  23
ENDBRANCH  20  22
ENDBRANCH   1  20
TORSDOF 5
ENDMDL
MODEL 3
REMARK VINA RESULT:      -8.4      4.386      6.865
REMARK  Name = 
REMARK  7 active torsions:
REMARK  status: ('A' for Active; 'I' for Inactive)
REMARK    1  A    between atoms: C_1  and  C_2
REMARK    2  A    between atoms: C_2  and  C_3
REMARK    3  A    between atoms: C_2  and  C_23
REMARK    4  A    between atoms: C_3  and  C_4
REMARK    5  A    between atoms: C_8  and  N_9
REMARK    6  A    between atoms: C_16  and  C_17
REMARK    7  A    between atoms: N_27  and  C_28
REMARK                            x       y       z     vdW  Elec       q    Type
REMARK                         _______ _______ _______ _____ _____    ______ ____
ROOT
ATOM      1  C   UNL     1       1.850   7.463  19.918  0.00  0.00    +0.000 A 
ATOM      2  C   UNL     1       2.255   8.393  18.951  0.00  0.00    +0.000 A 
ATOM      3  C   UNL     1       3.001   7.989  17.844  0.00  0.00    +0.000 A 
ATOM      4  C   UNL     1       3.438   6.673  17.743  0.00  0.00    +0.000 A 
ATOM      5  C   UNL     1       3.215   5.789  18.807  0.00  0.00    +0.000 A 
ATOM      6  C   UNL     1       2.298   6.140  19.808  0.00  0.00    +0.000 A 
ENDROOT
BRANCH   5   7
ATOM      7  N   UNL     1       4.218   4.788  19.137  0.00  0.00    +0.000 N 
ATOM      8  C   UNL     1       5.565   5.407  19.176  0.00  0.00    +0.000 C 
ATOM      9  C   UNL     1       6.090   5.139  17.803  0.00  0.00    +0.000 A 
ATOM     10  C   UNL     1       5.427   4.013  17.311  0.00  0.00    +0.000 A 
ATOM     11  C   UNL     1       5.564   3.571  16.010  0.00  0.00    +0.000 A 
ATOM     12  C   UNL     1       6.392   4.314  15.170  0.00  0.00    +0.000 A 
ATOM     13  C   UNL     1       7.051   5.464  15.647  0.00  0.00    +0.000 A 
ATOM     14  C   UNL     1       6.918   5.895  16.981  0.00  0.00    +0.000 A 
ATOM     15  C   UNL     1       4.322   3.695  18.242  0.00  0.00    +0.000 C 
ATOM     16  O   UNL     1       3.556   2.758  18.098  0.00  0.00    +0.000 OA
BRANCH  14  17
ATOM     17  C   UNL     1       7.558   7.191  17.404  0.00  0.00    +0.000 C 
ATOM     18  F   UNL     1       6.632   8.170  17.612  0.00  0.00    +0.000 F 
ATOM     19  F   UNL     1       8.227   7.067  18.588  0.00  0.00    +0.000 F 
ENDBRANCH  14  17
ENDBRANCH   5   7
BRANCH   1  20
ATOM     20  C   UNL     1       1.014   7.887  21.103  0.00  0.00    +0.000 C 
BRANCH  20  22
ATOM     21  C   UNL     1       0.450   9.642  22.873  0.00  0.00    +0.000 C 
ATOM     22  C   UNL     1       0.971   9.397  21.453  0.00  0.00    +0.000 C 
BRANCH  22  23
ATOM     23  C   UNL     1       0.211  10.231  20.459  0.00  0.00    +0.000 A 
ATOM     24  N   UNL     1      -0.896   9.869  19.831  0.00  0.00    +0.000 NA
ATOM     25  N   UNL     1      -1.285  10.881  19.000  0.00  0.00    +0.000 NA
ATOM     26  C   UNL     1      -0.445  11.862  19.166  0.00  0.00    +0.000 A 
ATOM     27  N   UNL     1       0.502  11.516  20.082  0.00  0.00    +0.000 N 
ATOM     28  C   UNL     1       1.552  12.371  20.559  0.00  0.00    +0.000 C 
ENDBRANCH  22  23
ENDBRANCH  20  22
ENDBRANCH   1  20
TORSDOF 5
ENDMDL
MODEL 4
REMARK VINA RESULT:      -8.3      4.945      7.489
REMARK  Name = 
REMARK  7 active torsions:
REMARK  status: ('A' for Active; 'I' for Inactive)
REMARK    1  A    between atoms: C_1  and  C_2
REMARK    2  A    between atoms: C_2  and  C_3
REMARK    3  A    between atoms: C_2  and  C_23
REMARK    4  A    between atoms: C_3  and  C_4
REMARK    5  A    between atoms: C_8  and  N_9
REMARK    6  A    between atoms: C_16  and  C_17
REMARK    7  A    between atoms: N_27  and  C_28
REMARK                            x       y       z     vdW  Elec       q    Type
REMARK                         _______ _______ _______ _____ _____    ______ ____
ROOT
ATOM      1  C   UNL     1       1.967   4.053  18.473  0.00  0.00    +0.000 A 
ATOM      2  C   UNL     1       1.598   3.536  19.723  0.00  0.00    +0.000 A 
ATOM      3  C   UNL     1       1.141   4.381  20.735  0.00  0.00    +0.000 A 
ATOM      4  C   UNL     1       1.144   5.758  20.546  0.00  0.00    +0.000 A 
ATOM      5  C   UNL     1       1.707   6.292  19.379  0.00  0.00    +0.000 A 
ATOM      6  C   UNL     1       1.969   5.443  18.295  0.00  0.00    +0.000 A 
ENDROOT
BRANCH   5   7
ATOM      7  N   UNL     1       2.437   7.549  19.439  0.00  0.00    +0.000 N 
ATOM      8  C   UNL     1       2.028   8.322  20.637  0.00  0.00    +0.000 C 
ATOM      9  C   UNL     1       0.974   9.233  20.095  0.00  0.00    +0.000 A 
ATOM     10  C   UNL     1       1.218   9.395  18.731  0.00  0.00    +0.000 A 
ATOM     11  C   UNL     1       0.350  10.060  17.888  0.00  0.00    +0.000 A 
ATOM     12  C   UNL     1      -0.822  10.563  18.450  0.00  0.00    +0.000 A 
ATOM     13  C   UNL     1      -1.092  10.389  19.821  0.00  0.00    +0.000 A 
ATOM     14  C   UNL     1      -0.190   9.725  20.675  0.00  0.00    +0.000 A 
ATOM     15  C   UNL     1       2.262   8.423  18.338  0.00  0.00    +0.000 C 
ATOM     16  O   UNL     1       2.706   8.316  17.208  0.00  0.00    +0.000 OA
BRANCH  14  17
ATOM     17  C   UNL     1      -0.581   9.474  22.108  0.00  0.00    +0.000 C 
ATOM     18  F   UNL     1      -0.878   8.161  22.329  0.00  0.00    +0.000 F 
ATOM     19  F   UNL     1       0.434   9.767  22.972  0.00  0.00    +0.000 F 
ENDBRANCH  14  17
ENDBRANCH   5   7
BRANCH   1  20
ATOM     20  C   UNL     1       2.433   3.142  17.362  0.00  0.00    +0.000 C 
BRANCH  20  22
ATOM     21  C   UNL     1       3.839   1.266  18.377  0.00  0.00    +0.000 C 
ATOM     22  C   UNL     1       3.844   2.513  17.487  0.00  0.00    +0.000 C 
BRANCH  22  23
ATOM     23  C   UNL     1       4.904   3.480  17.938  0.00  0.00    +0.000 A 
ATOM     24  N   UNL     1       5.302   3.664  19.187  0.00  0.00    +0.000 NA
ATOM     25  N   UNL     1       6.269   4.631  19.205  0.00  0.00    +0.000 NA
ATOM     26  C   UNL     1       6.482   4.987  17.971  0.00  0.00    +0.000 A 
ATOM     27  N   UNL     1       5.668   4.286  17.134  0.00  0.00    +0.000 N 
ATOM     28  C   UNL     1       5.671   4.372  15.701  0.00  0.00    +0.000 C 
ENDBRANCH  22  23
ENDBRANCH  20  22
ENDBRANCH   1  20
TORSDOF 5
ENDMDL
MODEL 5
REMARK VINA RESULT:      -8.3      4.746      7.196
REMARK  Name = 
REMARK  7 active torsions:
REMARK  status: ('A' for Active; 'I' for Inactive)
REMARK    1  A    between atoms: C_1  and  C_2
REMARK    2  A    between atoms: C_2  and  C_3
REMARK    3  A    between atoms: C_2  and  C_23
REMARK    4  A    between atoms: C_3  and  C_4
REMARK    5  A    between atoms: C_8  and  N_9
REMARK    6  A    between atoms: C_16  and  C_17
REMARK    7  A    between atoms: N_27  and  C_28
REMARK                            x       y       z     vdW  Elec       q    Type
REMARK                         _______ _______ _______ _____ _____    ______ ____
ROOT
ATOM      1  C   UNL     1       1.740   7.604  19.967  0.00  0.00    +0.000 A 
ATOM      2  C   UNL     1       2.151   8.498  18.969  0.00  0.00    +0.000 A 
ATOM      3  C   UNL     1       2.892   8.051  17.876  0.00  0.00    +0.000 A 
ATOM      4  C   UNL     1       3.321   6.729  17.819  0.00  0.00    +0.000 A 
ATOM      5  C   UNL     1       3.093   5.883  18.913  0.00  0.00    +0.000 A 
ATOM      6  C   UNL     1       2.179   6.275  19.902  0.00  0.00    +0.000 A 
ENDROOT
BRANCH   5   7
ATOM      7  N   UNL     1       4.089   4.888  19.276  0.00  0.00    +0.000 N 
ATOM      8  C   UNL     1       5.443   5.494  19.271  0.00  0.00    +0.000 C 
ATOM      9  C   UNL     1       5.948   5.156  17.905  0.00  0.00    +0.000 A 
ATOM     10  C   UNL     1       5.267   4.017  17.474  0.00  0.00    +0.000 A 
ATOM     11  C   UNL     1       5.383   3.514  16.192  0.00  0.00    +0.000 A 
ATOM     12  C   UNL     1       6.208   4.209  15.309  0.00  0.00    +0.000 A 
ATOM     13  C   UNL     1       6.885   5.372  15.724  0.00  0.00    +0.000 A 
ATOM     14  C   UNL     1       6.773   5.865  17.038  0.00  0.00    +0.000 A 
ATOM     15  C   UNL     1       4.170   3.753  18.432  0.00  0.00    +0.000 C 
ATOM     16  O   UNL     1       3.393   2.820  18.340  0.00  0.00    +0.000 OA
BRANCH  14  17
ATOM     17  C   UNL     1       7.432   7.172  17.394  0.00  0.00    +0.000 C 
ATOM     18  F   UNL     1       6.516   8.154  17.630  0.00  0.00    +0.000 F 
ATOM     19  F   UNL     1       8.166   7.077  18.541  0.00  0.00    +0.000 F 
ENDBRANCH  14  17
ENDBRANCH   5   7
BRANCH   1  20
ATOM     20  C   UNL     1       0.908   8.074  21.138  0.00  0.00    +0.000 C 
BRANCH  20  22
ATOM     21  C   UNL     1       2.116   9.247  23.060  0.00  0.00    +0.000 C 
ATOM     22  C   UNL     1       1.280   9.431  21.789  0.00  0.00    +0.000 C 
BRANCH  22  23
ATOM     23  C   UNL     1       0.099  10.322  22.057  0.00  0.00    +0.000 A 
ATOM     24  N   UNL     1      -0.468  10.522  23.236  0.00  0.00    +0.000 NA
ATOM     25  N   UNL     1      -1.519  11.382  23.083  0.00  0.00    +0.000 NA
ATOM     26  C   UNL     1      -1.550  11.734  21.830  0.00  0.00    +0.000 A 
ATOM     27  N   UNL     1      -0.549  11.115  21.145  0.00  0.00    +0.000 N 
ATOM     28  C   UNL     1      -0.241  11.312  19.757  0.00  0.00    +0.000 C 
ENDBRANCH  22  23
ENDBRANCH  20  22
ENDBRANCH   1  20
TORSDOF 5
ENDMDL
MODEL 6
REMARK VINA RESULT:      -8.2      5.063      7.921
REMARK  Name = 
REMARK  7 active torsions:
REMARK  status: ('A' for Active; 'I' for Inactive)
REMARK    1  A    between atoms: C_1  and  C_2
REMARK    2  A    between atoms: C_2  and  C_3
REMARK    3  A    between atoms: C_2  and  C_23
REMARK    4  A    between atoms: C_3  and  C_4
REMARK    5  A    between atoms: C_8  and  N_9
REMARK    6  A    between atoms: C_16  and  C_17
REMARK    7  A    between atoms: N_27  and  C_28
REMARK                            x       y       z     vdW  Elec       q    Type
REMARK                         _______ _______ _______ _____ _____    ______ ____
ROOT
ATOM      1  C   UNL     1       2.635   5.967  19.119  0.00  0.00    +0.000 A 
ATOM      2  C   UNL     1       2.532   6.611  17.877  0.00  0.00    +0.000 A 
ATOM      3  C   UNL     1       2.206   7.964  17.804  0.00  0.00    +0.000 A 
ATOM      4  C   UNL     1       1.878   8.665  18.959  0.00  0.00    +0.000 A 
ATOM      5  C   UNL     1       1.775   7.977  20.176  0.00  0.00    +0.000 A 
ATOM      6  C   UNL     1       2.300   6.681  20.276  0.00  0.00    +0.000 A 
ENDROOT
BRANCH   5   7
ATOM      7  N   UNL     1       0.759   8.367  21.142  0.00  0.00    +0.000 N 
ATOM      8  C   UNL     1      -0.517   8.669  20.448  0.00  0.00    +0.000 C 
ATOM      9  C   UNL     1      -0.452  10.153  20.274  0.00  0.00    +0.000 A 
ATOM     10  C   UNL     1       0.390  10.656  21.266  0.00  0.00    +0.000 A 
ATOM     11  C   UNL     1       0.790  11.978  21.310  0.00  0.00    +0.000 A 
ATOM     12  C   UNL     1       0.332  12.815  20.294  0.00  0.00    +0.000 A 
ATOM     13  C   UNL     1      -0.501  12.315  19.275  0.00  0.00    +0.000 A 
ATOM     14  C   UNL     1      -0.917  10.970  19.250  0.00  0.00    +0.000 A 
ATOM     15  C   UNL     1       1.053   9.509  21.926  0.00  0.00    +0.000 C 
ATOM     16  O   UNL     1       1.847   9.615  22.844  0.00  0.00    +0.000 OA
BRANCH  14  17
ATOM     17  C   UNL     1      -1.718  10.467  18.078  0.00  0.00    +0.000 C 
ATOM     18  F   UNL     1      -2.145  11.488  17.281  0.00  0.00    +0.000 F 
ATOM     19  F   UNL     1      -0.979   9.657  17.265  0.00  0.00    +0.000 F 
ENDBRANCH  14  17
ENDBRANCH   5   7
BRANCH   1  20
ATOM     20  C   UNL     1       3.020   4.508  19.208  0.00  0.00    +0.000 C 
BRANCH  20  22
ATOM     21  C   UNL     1       3.550   2.376  17.905  0.00  0.00    +0.000 C 
ATOM     22  C   UNL     1       3.779   3.887  18.008  0.00  0.00    +0.000 C 
BRANCH  22  23
ATOM     23  C   UNL     1       5.250   4.202  17.989  0.00  0.00    +0.000 A 
ATOM     24  N   UNL     1       6.022   4.356  19.054  0.00  0.00    +0.000 NA
ATOM     25  N   UNL     1       7.292   4.646  18.641  0.00  0.00    +0.000 NA
ATOM     26  C   UNL     1       7.292   4.616  17.340  0.00  0.00    +0.000 A 
ATOM     27  N   UNL     1       6.044   4.325  16.878  0.00  0.00    +0.000 N 
ATOM     28  C   UNL     1       5.683   4.150  15.500  0.00  0.00    +0.000 C 
ENDBRANCH  22  23
ENDBRANCH  20  22
ENDBRANCH   1  20
TORSDOF 5
ENDMDL
MODEL 7
REMARK VINA RESULT:      -8.1      5.565      7.633
REMARK  Name = 
REMARK  7 active torsions:
REMARK  status: ('A' for Active; 'I' for Inactive)
REMARK    1  A    between atoms: C_1  and  C_2
REMARK    2  A    between atoms: C_2  and  C_3
REMARK    3  A    between atoms: C_2  and  C_23
REMARK    4  A    between atoms: C_3  and  C_4
REMARK    5  A    between atoms: C_8  and  N_9
REMARK    6  A    between atoms: C_16  and  C_17
REMARK    7  A    between atoms: N_27  and  C_28
REMARK                            x       y       z     vdW  Elec       q    Type
REMARK                         _______ _______ _______ _____ _____    ______ ____
ROOT
ATOM      1  C   UNL     1       1.416   8.900  19.601  0.00  0.00    +0.000 A 
ATOM      2  C   UNL     1       1.898   9.250  18.331  0.00  0.00    +0.000 A 
ATOM      3  C   UNL     1       2.519   8.301  17.520  0.00  0.00    +0.000 A 
ATOM      4  C   UNL     1       2.760   7.021  18.005  0.00  0.00    +0.000 A 
ATOM      5  C   UNL     1       2.470   6.726  19.345  0.00  0.00    +0.000 A 
ATOM      6  C   UNL     1       1.666   7.608  20.081  0.00  0.00    +0.000 A 
ENDROOT
BRANCH   5   7
ATOM      7  N   UNL     1       3.338   5.827  20.090  0.00  0.00    +0.000 N 
ATOM      8  C   UNL     1       4.476   5.396  19.243  0.00  0.00    +0.000 C 
ATOM      9  C   UNL     1       3.998   4.092  18.688  0.00  0.00    +0.000 A 
ATOM     10  C   UNL     1       3.050   3.581  19.575  0.00  0.00    +0.000 A 
ATOM     11  C   UNL     1       2.295   2.456  19.299  0.00  0.00    +0.000 A 
ATOM     12  C   UNL     1       2.499   1.841  18.065  0.00  0.00    +0.000 A 
ATOM     13  C   UNL     1       3.437   2.360  17.152  0.00  0.00    +0.000 A 
ATOM     14  C   UNL     1       4.214   3.495  17.451  0.00  0.00    +0.000 A 
ATOM     15  C   UNL     1       2.736   4.635  20.564  0.00  0.00    +0.000 C 
ATOM     16  O   UNL     1       1.946   4.498  21.482  0.00  0.00    +0.000 OA
BRANCH  14  17
ATOM     17  C   UNL     1       5.121   4.068  16.394  0.00  0.00    +0.000 C 
ATOM     18  F   UNL     1       4.766   5.340  16.055  0.00  0.00    +0.000 F 
ATOM     19  F   UNL     1       6.414   4.155  16.824  0.00  0.00    +0.000 F 
ENDBRANCH  14  17
ENDBRANCH   5   7
BRANCH   1  20
ATOM     20  C   UNL     1       0.713   9.914  20.472  0.00  0.00    +0.000 C 
BRANCH  20  22
ATOM     21  C   UNL     1       1.187  12.416  20.679  0.00  0.00    +0.000 C 
ATOM     22  C   UNL     1       0.464  11.325  19.881  0.00  0.00    +0.000 C 
BRANCH  22  23
ATOM     23  C   UNL     1      -0.991  11.668  19.714  0.00  0.00    +0.000 A 
ATOM     24  N   UNL     1      -1.673  12.528  20.454  0.00  0.00    +0.000 NA
ATOM     25  N   UNL     1      -2.966  12.563  20.012  0.00  0.00    +0.000 NA
ATOM     26  C   UNL     1      -3.045  11.768  18.984  0.00  0.00    +0.000 A 
ATOM     27  N   UNL     1      -1.834  11.194  18.742  0.00  0.00    +0.000 N 
ATOM     28  C   UNL     1      -1.532  10.311  17.652  0.00  0.00    +0.000 C 
ENDBRANCH  22  23
ENDBRANCH  20  22
ENDBRANCH   1  20
TORSDOF 5
ENDMDL
MODEL 8
REMARK VINA RESULT:      -8.1      4.671      6.729
REMARK  Name = 
REMARK  7 active torsions:
REMARK  status: ('A' for Active; 'I' for Inactive)
REMARK    1  A    between atoms: C_1  and  C_2
REMARK    2  A    between atoms: C_2  and  C_3
REMARK    3  A    between atoms: C_2  and  C_23
REMARK    4  A    between atoms: C_3  and  C_4
REMARK    5  A    between atoms: C_8  and  N_9
REMARK    6  A    between atoms: C_16  and  C_17
REMARK    7  A    between atoms: N_27  and  C_28
REMARK                            x       y       z     vdW  Elec       q    Type
REMARK                         _______ _______ _______ _____ _____    ______ ____
ROOT
ATOM      1  C   UNL     1       2.362   6.004  20.164  0.00  0.00    +0.000 A 
ATOM      2  C   UNL     1       1.190   5.371  20.602  0.00  0.00    +0.000 A 
ATOM      3  C   UNL     1       1.133   3.983  20.718  0.00  0.00    +0.000 A 
ATOM      4  C   UNL     1       2.208   3.205  20.301  0.00  0.00    +0.000 A 
ATOM      5  C   UNL     1       3.298   3.818  19.668  0.00  0.00    +0.000 A 
ATOM      6  C   UNL     1       3.437   5.211  19.744  0.00  0.00    +0.000 A 
ENDROOT
BRANCH   5   7
ATOM      7  N   UNL     1       3.983   3.132  18.583  0.00  0.00    +0.000 N 
ATOM      8  C   UNL     1       5.448   3.327  18.699  0.00  0.00    +0.000 C 
ATOM      9  C   UNL     1       5.696   4.496  17.801  0.00  0.00    +0.000 A 
ATOM     10  C   UNL     1       4.668   4.527  16.857  0.00  0.00    +0.000 A 
ATOM     11  C   UNL     1       4.506   5.564  15.960  0.00  0.00    +0.000 A 
ATOM     12  C   UNL     1       5.411   6.621  16.038  0.00  0.00    +0.000 A 
ATOM     13  C   UNL     1       6.440   6.613  16.999  0.00  0.00    +0.000 A 
ATOM     14  C   UNL     1       6.608   5.541  17.897  0.00  0.00    +0.000 A 
ATOM     15  C   UNL     1       3.640   3.547  17.273  0.00  0.00    +0.000 C 
ATOM     16  O   UNL     1       2.615   3.328  16.652  0.00  0.00    +0.000 OA
BRANCH  14  17
ATOM     17  C   UNL     1       7.657   5.638  18.973  0.00  0.00    +0.000 C 
ATOM     18  F   UNL     1       8.362   6.803  18.891  0.00  0.00    +0.000 F 
ATOM     19  F   UNL     1       7.109   5.634  20.223  0.00  0.00    +0.000 F 
ENDBRANCH  14  17
ENDBRANCH   5   7
BRANCH   1  20
ATOM     20  C   UNL     1       2.442   7.510  20.067  0.00  0.00    +0.000 C 
BRANCH  20  22
ATOM     21  C   UNL     1       2.443   8.315  17.642  0.00  0.00    +0.000 C 
ATOM     22  C   UNL     1       1.636   8.205  18.940  0.00  0.00    +0.000 C 
BRANCH  22  23
ATOM     23  C   UNL     1       1.075   9.545  19.330  0.00  0.00    +0.000 A 
ATOM     24  N   UNL     1       1.241  10.677  18.664  0.00  0.00    +0.000 NA
ATOM     25  N   UNL     1       0.596  11.681  19.329  0.00  0.00    +0.000 NA
ATOM     26  C   UNL     1       0.007  11.146  20.360  0.00  0.00    +0.000 A 
ATOM     27  N   UNL     1       0.258   9.808  20.399  0.00  0.00    +0.000 N 
ATOM     28  C   UNL     1      -0.279   8.886  21.359  0.00  0.00    +0.000 C 
ENDBRANCH  22  23
ENDBRANCH  20  22
ENDBRANCH   1  20
TORSDOF 5
ENDMDL
MODEL 9
REMARK VINA RESULT:      -8.1      5.516      7.277
REMARK  Name = 
REMARK  7 active torsions:
REMARK  status: ('A' for Active; 'I' for Inactive)
REMARK    1  A    between atoms: C_1  and  C_2
REMARK    2  A    between atoms: C_2  and  C_3
REMARK    3  A    between atoms: C_2  and  C_23
REMARK    4  A    between atoms: C_3  and  C_4
REMARK    5  A    between atoms: C_8  and  N_9
REMARK    6  A    between atoms: C_16  and  C_17
REMARK    7  A    between atoms: N_27  and  C_28
REMARK                            x       y       z     vdW  Elec       q    Type
REMARK                         _______ _______ _______ _____ _____    ______ ____
ROOT
ATOM      1  C   UNL     1       1.429   9.294  19.065  0.00  0.00    +0.000 A 
ATOM      2  C   UNL     1       1.025   8.795  20.312  0.00  0.00    +0.000 A 
ATOM      3  C   UNL     1       1.510   7.574  20.781  0.00  0.00    +0.000 A 
ATOM      4  C   UNL     1       2.321   6.790  19.969  0.00  0.00    +0.000 A 
ATOM      5  C   UNL     1       2.559   7.185  18.645  0.00  0.00    +0.000 A 
ATOM      6  C   UNL     1       2.245   8.494  18.255  0.00  0.00    +0.000 A 
ENDROOT
BRANCH   5   7
ATOM      7  N   UNL     1       2.662   6.179  17.599  0.00  0.00    +0.000 N 
ATOM      8  C   UNL     1       1.742   5.050  17.882  0.00  0.00    +0.000 C 
ATOM      9  C   UNL     1       2.629   4.072  18.583  0.00  0.00    +0.000 A 
ATOM     10  C   UNL     1       3.940   4.328  18.179  0.00  0.00    +0.000 A 
ATOM     11  C   UNL     1       5.035   3.703  18.745  0.00  0.00    +0.000 A 
ATOM     12  C   UNL     1       4.787   2.796  19.774  0.00  0.00    +0.000 A 
ATOM     13  C   UNL     1       3.471   2.543  20.206  0.00  0.00    +0.000 A 
ATOM     14  C   UNL     1       2.362   3.173  19.610  0.00  0.00    +0.000 A 
ATOM     15  C   UNL     1       3.942   5.598  17.420  0.00  0.00    +0.000 C 
ATOM     16  O   UNL     1       4.937   6.096  16.923  0.00  0.00    +0.000 OA
BRANCH  14  17
ATOM     17  C   UNL     1       0.988   2.946  20.185  0.00  0.00    +0.000 C 
ATOM     18  F   UNL     1       0.442   4.101  20.664  0.00  0.00    +0.000 F 
ATOM     19  F   UNL     1       0.109   2.493  19.243  0.00  0.00    +0.000 F 
ENDBRANCH  14  17
ENDBRANCH   5   7
BRANCH   1  20
ATOM     20  C   UNL     1       0.934  10.631  18.565  0.00  0.00    +0.000 C 
BRANCH  20  22
ATOM     21  C   UNL     1      -1.564  10.593  18.027  0.00  0.00    +0.000 C 
ATOM     22  C   UNL     1      -0.484  11.083  18.998  0.00  0.00    +0.000 C 
BRANCH  22  23
ATOM     23  C   UNL     1      -0.608  12.565  19.223  0.00  0.00    +0.000 A 
ATOM     24  N   UNL     1      -0.109  13.510  18.443  0.00  0.00    +0.000 NA
ATOM     25  N   UNL     1      -0.413  14.731  18.977  0.00  0.00    +0.000 NA
ATOM     26  C   UNL     1      -1.132  14.519  20.041  0.00  0.00    +0.000 A 
ATOM     27  N   UNL     1      -1.301  13.182  20.233  0.00  0.00    +0.000 N 
ATOM     28  C   UNL     1      -2.089  12.580  21.271  0.00  0.00    +0.000 C 
ENDBRANCH  22  23
ENDBRANCH  20  22
ENDBRANCH   1  20
TORSDOF 5
ENDMDL
