MODEL 1
REMARK VINA RESULT:      -9.2      0.000      0.000
REMARK  Name = 
REMARK  5 active torsions:
REMARK  status: ('A' for Active; 'I' for Inactive)
REMARK    1  A    between atoms: C_2  and  C_3
REMARK    2  A    between atoms: C_3  and  C_4
REMARK    3  A    between atoms: C_4  and  N_5
REMARK    4  A    between atoms: C_4  and  C_14
REMARK    5  A    between atoms: C_6  and  C_8
REMARK                            x       y       z     vdW  Elec       q    Type
REMARK                         _______ _______ _______ _____ _____    ______ ____
ROOT
ATOM      1  C   UNL     1       6.037   6.524  17.403  0.00  0.00    +0.000 C 
ENDROOT
BRANCH   1   2
ATOM      2  C   UNL     1       4.967   5.696  18.108  0.00  0.00    +0.000 A 
ATOM      3  C   UNL     1       5.351   4.579  18.875  0.00  0.00    +0.000 A 
ATOM      4  C   UNL     1       4.396   3.788  19.519  0.00  0.00    +0.000 A 
ATOM      5  C   UNL     1       3.044   4.100  19.410  0.00  0.00    +0.000 A 
ATOM      6  C   UNL     1       2.646   5.197  18.650  0.00  0.00    +0.000 A 
ATOM      7  C   UNL     1       3.598   5.985  17.995  0.00  0.00    +0.000 A 
ENDBRANCH   1   2
BRANCH   1   8
ATOM      8  N   UNL     1       6.237   6.084  16.024  0.00  0.00    +0.000 N 
ATOM      9  C   UNL     1       7.037   5.043  15.626  0.00  0.00    +0.000 C 
ATOM     10  O   UNL     1       7.790   4.426  16.357  0.00  0.00    +0.000 OA
ATOM     11  H   UNL     1       5.712   6.586  15.325  0.00  0.00    +0.000 HD
BRANCH   9  12
ATOM     12  C   UNL     1       6.939   4.644  14.185  0.00  0.00    +0.000 A 
ATOM     13  C   UNL     1       5.964   3.703  13.828  0.00  0.00    +0.000 A 
ATOM     14  C   UNL     1       5.833   3.315  12.494  0.00  0.00    +0.000 A 
ATOM     15  C   UNL     1       6.652   3.870  11.517  0.00  0.00    +0.000 A 
ATOM     16  C   UNL     1       7.617   4.816  11.870  0.00  0.00    +0.000 A 
ATOM     17  C   UNL     1       7.757   5.207  13.204  0.00  0.00    +0.000 A 
ENDBRANCH   9  12
ENDBRANCH   1   8
BRANCH   1  18
ATOM     18  C   UNL     1       7.293   6.655  18.272  0.00  0.00    +0.000 C 
BRANCH  18  20
ATOM     19  O   UNL     1       8.035   8.415  16.837  0.00  0.00    +0.000 OA
ATOM     20  C   UNL     1       8.030   7.940  17.975  0.00  0.00    +0.000 C 
ATOM     21  N   UNL     1       8.599   8.548  19.074  0.00  0.00    +0.000 N 
ATOM     22  C   UNL     1       9.112   9.819  18.974  0.00  0.00    +0.000 A 
ATOM     23  N   UNL     1      10.081  10.321  19.705  0.00  0.00    +0.000 NA
ATOM     24  C   UNL     1      10.260  11.605  19.233  0.00  0.00    +0.000 A 
ATOM     25  C   UNL     1      11.226  12.566  19.568  0.00  0.00    +0.000 A 
ATOM     26  C   UNL     1      11.146  13.837  18.980  0.00  0.00    +0.000 A 
ATOM     27  C   UNL     1      10.117  14.151  18.087  0.00  0.00    +0.000 A 
ATOM     28  C   UNL     1       9.170  13.193  17.708  0.00  0.00    +0.000 A 
ATOM     29  C   UNL     1       9.296  11.928  18.284  0.00  0.00    +0.000 A 
ATOM     30  N   UNL     1       8.620  10.752  18.097  0.00  0.00    +0.000 N 
ATOM     31  H   UNL     1       8.917   7.979  19.854  0.00  0.00    +0.000 HD
ATOM     32  H   UNL     1       7.886  10.575  17.427  0.00  0.00    +0.000 HD
ENDBRANCH  18  20
ENDBRANCH   1  18
TORSDOF 5
ENDMDL
MODEL 2
REMARK VINA RESULT:      -8.8      1.015      1.024
REMARK  Name = 
REMARK  5 active torsions:
REMARK  status: ('A' for Active; 'I' for Inactive)
REMARK    1  A    between atoms: C_2  and  C_3
REMARK    2  A    between atoms: C_3  and  C_4
REMARK    3  A    between atoms: C_4  and  N_5
REMARK    4  A    between atoms: C_4  and  C_14
REMARK    5  A    between atoms: C_6  and  C_8
REMARK                            x       y       z     vdW  Elec       q    Type
REMARK                         _______ _______ _______ _____ _____    ______ ____
ROOT
ATOM      1  C   UNL     1       6.052   5.871  17.767  0.00  0.00    +0.000 C 
ENDROOT
BRANCH   1   2
ATOM      2  C   UNL     1       5.028   5.190  18.670  0.00  0.00    +0.000 A 
ATOM      3  C   UNL     1       5.137   3.808  18.920  0.00  0.00    +0.000 A 
ATOM      4  C   UNL     1       4.206   3.150  19.728  0.00  0.00    +0.000 A 
ATOM      5  C   UNL     1       3.155   3.859  20.300  0.00  0.00    +0.000 A 
ATOM      6  C   UNL     1       3.027   5.225  20.058  0.00  0.00    +0.000 A 
ATOM      7  C   UNL     1       3.951   5.885  19.242  0.00  0.00    +0.000 A 
ENDBRANCH   1   2
BRANCH   1   8
ATOM      8  N   UNL     1       6.173   5.188  16.480  0.00  0.00    +0.000 N 
ATOM      9  C   UNL     1       5.736   5.673  15.274  0.00  0.00    +0.000 C 
ATOM     10  O   UNL     1       5.074   6.684  15.130  0.00  0.00    +0.000 OA
ATOM     11  H   UNL     1       6.644   4.296  16.502  0.00  0.00    +0.000 HD
BRANCH   9  12
ATOM     12  C   UNL     1       6.140   4.893  14.060  0.00  0.00    +0.000 A 
ATOM     13  C   UNL     1       5.231   3.960  13.545  0.00  0.00    +0.000 A 
ATOM     14  C   UNL     1       5.566   3.224  12.408  0.00  0.00    +0.000 A 
ATOM     15  C   UNL     1       6.789   3.424  11.775  0.00  0.00    +0.000 A 
ATOM     16  C   UNL     1       7.692   4.361  12.282  0.00  0.00    +0.000 A 
ATOM     17  C   UNL     1       7.365   5.100  13.422  0.00  0.00    +0.000 A 
ENDBRANCH   9  12
ENDBRANCH   1   8
BRANCH   1  18
ATOM     18  C   UNL     1       7.356   6.148  18.524  0.00  0.00    +0.000 C 
BRANCH  18  20
ATOM     19  O   UNL     1       7.831   7.883  16.953  0.00  0.00    +0.000 OA
ATOM     20  C   UNL     1       7.957   7.470  18.108  0.00  0.00    +0.000 C 
ATOM     21  N   UNL     1       8.561   8.177  19.126  0.00  0.00    +0.000 N 
ATOM     22  C   UNL     1       8.956   9.477  18.926  0.00  0.00    +0.000 A 
ATOM     23  N   UNL     1       9.936  10.093  19.549  0.00  0.00    +0.000 NA
ATOM     24  C   UNL     1       9.970  11.360  19.005  0.00  0.00    +0.000 A 
ATOM     25  C   UNL     1      10.876  12.411  19.214  0.00  0.00    +0.000 A 
ATOM     26  C   UNL     1      10.644  13.639  18.578  0.00  0.00    +0.000 A 
ATOM     27  C   UNL     1       9.524  13.823  17.761  0.00  0.00    +0.000 A 
ATOM     28  C   UNL     1       8.632  12.776  17.507  0.00  0.00    +0.000 A 
ATOM     29  C   UNL     1       8.909  11.556  18.128  0.00  0.00    +0.000 A 
ATOM     30  N   UNL     1       8.319  10.323  18.052  0.00  0.00    +0.000 N 
ATOM     31  H   UNL     1       8.986   7.677  19.901  0.00  0.00    +0.000 HD
ATOM     32  H   UNL     1       7.552  10.053  17.455  0.00  0.00    +0.000 HD
ENDBRANCH  18  20
ENDBRANCH   1  18
TORSDOF 5
ENDMDL
MODEL 3
REMARK VINA RESULT:      -8.5      1.909      5.130
REMARK  Name = 
REMARK  5 active torsions:
REMARK  status: ('A' for Active; 'I' for Inactive)
REMARK    1  A    between atoms: C_2  and  C_3
REMARK    2  A    between atoms: C_3  and  C_4
REMARK    3  A    between atoms: C_4  and  N_5
REMARK    4  A    between atoms: C_4  and  C_14
REMARK    5  A    between atoms: C_6  and  C_8
REMARK                            x       y       z     vdW  Elec       q    Type
REMARK                         _______ _______ _______ _____ _____    ______ ____
ROOT
ATOM      1  C   UNL     1       6.041   4.610  17.014  0.00  0.00    +0.000 C 
ENDROOT
BRANCH   1   2
ATOM      2  C   UNL     1       6.214   4.453  15.506  0.00  0.00    +0.000 A 
ATOM      3  C   UNL     1       5.221   3.785  14.762  0.00  0.00    +0.000 A 
ATOM      4  C   UNL     1       5.356   3.608  13.383  0.00  0.00    +0.000 A 
ATOM      5  C   UNL     1       6.481   4.094  12.724  0.00  0.00    +0.000 A 
ATOM      6  C   UNL     1       7.476   4.750  13.445  0.00  0.00    +0.000 A 
ATOM      7  C   UNL     1       7.350   4.921  14.827  0.00  0.00    +0.000 A 
ENDBRANCH   1   2
BRANCH   1   8
ATOM      8  N   UNL     1       5.024   5.608  17.338  0.00  0.00    +0.000 N 
ATOM      9  C   UNL     1       3.850   5.366  18.004  0.00  0.00    +0.000 C 
ATOM     10  O   UNL     1       3.438   4.260  18.306  0.00  0.00    +0.000 OA
ATOM     11  H   UNL     1       5.237   6.554  17.060  0.00  0.00    +0.000 HD
BRANCH   9  12
ATOM     12  C   UNL     1       3.050   6.570  18.400  0.00  0.00    +0.000 A 
ATOM     13  C   UNL     1       2.509   6.605  19.691  0.00  0.00    +0.000 A 
ATOM     14  C   UNL     1       1.769   7.715  20.101  0.00  0.00    +0.000 A 
ATOM     15  C   UNL     1       1.582   8.791  19.240  0.00  0.00    +0.000 A 
ATOM     16  C   UNL     1       2.129   8.762  17.956  0.00  0.00    +0.000 A 
ATOM     17  C   UNL     1       2.869   7.653  17.537  0.00  0.00    +0.000 A 
ENDBRANCH   9  12
ENDBRANCH   1   8
BRANCH   1  18
ATOM     18  C   UNL     1       7.398   4.760  17.711  0.00  0.00    +0.000 C 
BRANCH  18  20
ATOM     19  O   UNL     1       7.463   6.292  19.541  0.00  0.00    +0.000 OA
ATOM     20  C   UNL     1       7.549   6.133  18.321  0.00  0.00    +0.000 C 
ATOM     21  N   UNL     1       7.863   7.134  17.427  0.00  0.00    +0.000 N 
ATOM     22  C   UNL     1       8.231   8.377  17.880  0.00  0.00    +0.000 A 
ATOM     23  N   UNL     1       8.073   9.513  17.239  0.00  0.00    +0.000 NA
ATOM     24  C   UNL     1       8.568  10.480  18.089  0.00  0.00    +0.000 A 
ATOM     25  C   UNL     1       8.562  11.878  17.971  0.00  0.00    +0.000 A 
ATOM     26  C   UNL     1       9.200  12.642  18.959  0.00  0.00    +0.000 A 
ATOM     27  C   UNL     1       9.845  12.026  20.036  0.00  0.00    +0.000 A 
ATOM     28  C   UNL     1       9.826  10.636  20.193  0.00  0.00    +0.000 A 
ATOM     29  C   UNL     1       9.154   9.906  19.212  0.00  0.00    +0.000 A 
ATOM     30  N   UNL     1       8.869   8.573  19.080  0.00  0.00    +0.000 N 
ATOM     31  H   UNL     1       7.542   7.067  16.466  0.00  0.00    +0.000 HD
ATOM     32  H   UNL     1       9.074   7.841  19.743  0.00  0.00    +0.000 HD
ENDBRANCH  18  20
ENDBRANCH   1  18
TORSDOF 5
ENDMDL
MODEL 4
REMARK VINA RESULT:      -8.4      5.299      7.072
REMARK  Name = 
REMARK  5 active torsions:
REMARK  status: ('A' for Active; 'I' for Inactive)
REMARK    1  A    between atoms: C_2  and  C_3
REMARK    2  A    between atoms: C_3  and  C_4
REMARK    3  A    between atoms: C_4  and  N_5
REMARK    4  A    between atoms: C_4  and  C_14
REMARK    5  A    between atoms: C_6  and  C_8
REMARK                            x       y       z     vdW  Elec       q    Type
REMARK                         _______ _______ _______ _____ _____    ______ ____
ROOT
ATOM      1  C   UNL     1       2.326   5.963  18.751  0.00  0.00    +0.000 C 
ENDROOT
BRANCH   1   2
ATOM      2  C   UNL     1       1.801   4.593  19.172  0.00  0.00    +0.000 A 
ATOM      3  C   UNL     1       1.731   4.270  20.541  0.00  0.00    +0.000 A 
ATOM      4  C   UNL     1       1.273   3.018  20.960  0.00  0.00    +0.000 A 
ATOM      5  C   UNL     1       0.875   2.071  20.021  0.00  0.00    +0.000 A 
ATOM      6  C   UNL     1       0.945   2.371  18.663  0.00  0.00    +0.000 A 
ATOM      7  C   UNL     1       1.413   3.619  18.239  0.00  0.00    +0.000 A 
ENDBRANCH   1   2
BRANCH   1   8
ATOM      8  N   UNL     1       3.395   5.849  17.761  0.00  0.00    +0.000 N 
ATOM      9  C   UNL     1       4.609   5.245  17.962  0.00  0.00    +0.000 C 
ATOM     10  O   UNL     1       5.011   4.832  19.035  0.00  0.00    +0.000 OA
ATOM     11  H   UNL     1       3.189   6.232  16.851  0.00  0.00    +0.000 HD
BRANCH   9  12
ATOM     12  C   UNL     1       5.473   5.071  16.750  0.00  0.00    +0.000 A 
ATOM     13  C   UNL     1       4.964   4.322  15.682  0.00  0.00    +0.000 A 
ATOM     14  C   UNL     1       5.733   4.149  14.530  0.00  0.00    +0.000 A 
ATOM     15  C   UNL     1       6.994   4.729  14.433  0.00  0.00    +0.000 A 
ATOM     16  C   UNL     1       7.498   5.484  15.494  0.00  0.00    +0.000 A 
ATOM     17  C   UNL     1       6.736   5.660  16.651  0.00  0.00    +0.000 A 
ENDBRANCH   9  12
ENDBRANCH   1   8
BRANCH   1  18
ATOM     18  C   UNL     1       2.613   6.841  19.974  0.00  0.00    +0.000 C 
BRANCH  18  20
ATOM     19  O   UNL     1       1.754   8.707  18.756  0.00  0.00    +0.000 OA
ATOM     20  C   UNL     1       1.923   8.180  19.858  0.00  0.00    +0.000 C 
ATOM     21  N   UNL     1       1.445   8.691  21.046  0.00  0.00    +0.000 N 
ATOM     22  C   UNL     1       0.621   9.789  21.046  0.00  0.00    +0.000 A 
ATOM     23  N   UNL     1       0.498  10.665  22.018  0.00  0.00    +0.000 NA
ATOM     24  C   UNL     1      -0.418  11.588  21.558  0.00  0.00    +0.000 A 
ATOM     25  C   UNL     1      -0.853  12.794  22.130  0.00  0.00    +0.000 A 
ATOM     26  C   UNL     1      -1.858  13.525  21.480  0.00  0.00    +0.000 A 
ATOM     27  C   UNL     1      -2.429  13.060  20.292  0.00  0.00    +0.000 A 
ATOM     28  C   UNL     1      -1.980  11.882  19.684  0.00  0.00    +0.000 A 
ATOM     29  C   UNL     1      -0.955  11.195  20.338  0.00  0.00    +0.000 A 
ATOM     30  N   UNL     1      -0.231  10.080  20.009  0.00  0.00    +0.000 N 
ATOM     31  H   UNL     1       1.922   8.468  21.916  0.00  0.00    +0.000 HD
ATOM     32  H   UNL     1      -0.288   9.551  19.152  0.00  0.00    +0.000 HD
ENDBRANCH  18  20
ENDBRANCH   1  18
TORSDOF 5
ENDMDL
MODEL 5
REMARK VINA RESULT:      -8.4      4.807      7.910
REMARK  Name = 
REMARK  5 active torsions:
REMARK  status: ('A' for Active; 'I' for Inactive)
REMARK    1  A    between atoms: C_2  and  C_3
REMARK    2  A    between atoms: C_3  and  C_4
REMARK    3  A    between atoms: C_4  and  N_5
REMARK    4  A    between atoms: C_4  and  C_14
REMARK    5  A    between atoms: C_6  and  C_8
REMARK                            x       y       z     vdW  Elec       q    Type
REMARK                         _______ _______ _______ _____ _____    ______ ____
ROOT
ATOM      1  C   UNL     1       3.469   5.480  19.976  0.00  0.00    +0.000 C 
ENDROOT
BRANCH   1   2
ATOM      2  C   UNL     1       2.576   4.300  19.602  0.00  0.00    +0.000 A 
ATOM      3  C   UNL     1       1.899   4.309  18.366  0.00  0.00    +0.000 A 
ATOM      4  C   UNL     1       1.060   3.254  18.000  0.00  0.00    +0.000 A 
ATOM      5  C   UNL     1       0.883   2.174  18.859  0.00  0.00    +0.000 A 
ATOM      6  C   UNL     1       1.538   2.151  20.088  0.00  0.00    +0.000 A 
ATOM      7  C   UNL     1       2.370   3.210  20.462  0.00  0.00    +0.000 A 
ENDBRANCH   1   2
BRANCH   1   8
ATOM      8  N   UNL     1       2.915   6.746  19.500  0.00  0.00    +0.000 N 
ATOM      9  C   UNL     1       1.908   7.455  20.105  0.00  0.00    +0.000 C 
ATOM     10  O   UNL     1       1.252   7.060  21.052  0.00  0.00    +0.000 OA
ATOM     11  H   UNL     1       3.343   7.124  18.669  0.00  0.00    +0.000 HD
BRANCH   9  12
ATOM     12  C   UNL     1       1.635   8.821  19.554  0.00  0.00    +0.000 A 
ATOM     13  C   UNL     1       0.887   9.709  20.338  0.00  0.00    +0.000 A 
ATOM     14  C   UNL     1       0.623  10.995  19.865  0.00  0.00    +0.000 A 
ATOM     15  C   UNL     1       1.113  11.403  18.628  0.00  0.00    +0.000 A 
ATOM     16  C   UNL     1       1.867  10.522  17.851  0.00  0.00    +0.000 A 
ATOM     17  C   UNL     1       2.134   9.232  18.316  0.00  0.00    +0.000 A 
ENDBRANCH   9  12
ENDBRANCH   1   8
BRANCH   1  18
ATOM     18  C   UNL     1       4.933   5.194  19.624  0.00  0.00    +0.000 C 
BRANCH  18  20
ATOM     19  O   UNL     1       5.280   6.502  17.656  0.00  0.00    +0.000 OA
ATOM     20  C   UNL     1       5.183   5.374  18.145  0.00  0.00    +0.000 C 
ATOM     21  N   UNL     1       5.369   4.203  17.442  0.00  0.00    +0.000 N 
ATOM     22  C   UNL     1       5.811   4.238  16.142  0.00  0.00    +0.000 A 
ATOM     23  N   UNL     1       5.567   3.336  15.217  0.00  0.00    +0.000 NA
ATOM     24  C   UNL     1       6.191   3.807  14.081  0.00  0.00    +0.000 A 
ATOM     25  C   UNL     1       6.178   3.310  12.769  0.00  0.00    +0.000 A 
ATOM     26  C   UNL     1       6.962   3.949  11.797  0.00  0.00    +0.000 A 
ATOM     27  C   UNL     1       7.754   5.052  12.126  0.00  0.00    +0.000 A 
ATOM     28  C   UNL     1       7.749   5.589  13.419  0.00  0.00    +0.000 A 
ATOM     29  C   UNL     1       6.932   4.952  14.355  0.00  0.00    +0.000 A 
ATOM     30  N   UNL     1       6.621   5.235  15.658  0.00  0.00    +0.000 N 
ATOM     31  H   UNL     1       4.908   3.352  17.753  0.00  0.00    +0.000 HD
ATOM     32  H   UNL     1       6.916   6.039  16.191  0.00  0.00    +0.000 HD
ENDBRANCH  18  20
ENDBRANCH   1  18
TORSDOF 5
ENDMDL
MODEL 6
REMARK VINA RESULT:      -8.4      1.436      2.198
REMARK  Name = 
REMARK  5 active torsions:
REMARK  status: ('A' for Active; 'I' for Inactive)
REMARK    1  A    between atoms: C_2  and  C_3
REMARK    2  A    between atoms: C_3  and  C_4
REMARK    3  A    between atoms: C_4  and  N_5
REMARK    4  A    between atoms: C_4  and  C_14
REMARK    5  A    between atoms: C_6  and  C_8
REMARK                            x       y       z     vdW  Elec       q    Type
REMARK                         _______ _______ _______ _____ _____    ______ ____
ROOT
ATOM      1  C   UNL     1       5.920   5.850  16.243  0.00  0.00    +0.000 C 
ENDROOT
BRANCH   1   2
ATOM      2  C   UNL     1       4.672   5.771  17.117  0.00  0.00    +0.000 A 
ATOM      3  C   UNL     1       4.009   6.958  17.485  0.00  0.00    +0.000 A 
ATOM      4  C   UNL     1       2.874   6.924  18.299  0.00  0.00    +0.000 A 
ATOM      5  C   UNL     1       2.381   5.706  18.756  0.00  0.00    +0.000 A 
ATOM      6  C   UNL     1       3.028   4.522  18.409  0.00  0.00    +0.000 A 
ATOM      7  C   UNL     1       4.170   4.553  17.603  0.00  0.00    +0.000 A 
ENDBRANCH   1   2
BRANCH   1   8
ATOM      8  N   UNL     1       5.771   5.064  15.020  0.00  0.00    +0.000 N 
ATOM      9  C   UNL     1       6.730   4.902  14.053  0.00  0.00    +0.000 C 
ATOM     10  O   UNL     1       7.793   5.497  14.021  0.00  0.00    +0.000 OA
ATOM     11  H   UNL     1       4.889   4.587  14.912  0.00  0.00    +0.000 HD
BRANCH   9  12
ATOM     12  C   UNL     1       6.431   3.896  12.984  0.00  0.00    +0.000 A 
ATOM     13  C   UNL     1       5.089   3.659  12.660  0.00  0.00    +0.000 A 
ATOM     14  C   UNL     1       4.771   2.739  11.661  0.00  0.00    +0.000 A 
ATOM     15  C   UNL     1       5.779   2.069  10.975  0.00  0.00    +0.000 A 
ATOM     16  C   UNL     1       7.118   2.312  11.290  0.00  0.00    +0.000 A 
ATOM     17  C   UNL     1       7.445   3.230  12.291  0.00  0.00    +0.000 A 
ENDBRANCH   9  12
ENDBRANCH   1   8
BRANCH   1  18
ATOM     18  C   UNL     1       7.187   5.603  17.070  0.00  0.00    +0.000 C 
BRANCH  18  20
ATOM     19  O   UNL     1       7.693   6.683  19.139  0.00  0.00    +0.000 OA
ATOM     20  C   UNL     1       7.523   6.803  17.923  0.00  0.00    +0.000 C 
ATOM     21  N   UNL     1       7.699   7.979  17.226  0.00  0.00    +0.000 N 
ATOM     22  C   UNL     1       8.210   9.088  17.855  0.00  0.00    +0.000 A 
ATOM     23  N   UNL     1       7.981  10.339  17.527  0.00  0.00    +0.000 NA
ATOM     24  C   UNL     1       8.683  11.089  18.447  0.00  0.00    +0.000 A 
ATOM     25  C   UNL     1       8.721  12.478  18.644  0.00  0.00    +0.000 A 
ATOM     26  C   UNL     1       9.581  12.998  19.622  0.00  0.00    +0.000 A 
ATOM     27  C   UNL     1      10.399  12.155  20.379  0.00  0.00    +0.000 A 
ATOM     28  C   UNL     1      10.346  10.765  20.227  0.00  0.00    +0.000 A 
ATOM     29  C   UNL     1       9.455  10.276  19.270  0.00  0.00    +0.000 A 
ATOM     30  N   UNL     1       9.086   9.007  18.910  0.00  0.00    +0.000 N 
ATOM     31  H   UNL     1       7.187   8.131  16.362  0.00  0.00    +0.000 HD
ATOM     32  H   UNL     1       9.385   8.144  19.338  0.00  0.00    +0.000 HD
ENDBRANCH  18  20
ENDBRANCH   1  18
TORSDOF 5
ENDMDL
MODEL 7
REMARK VINA RESULT:      -8.4      5.407      7.446
REMARK  Name = 
REMARK  5 active torsions:
REMARK  status: ('A' for Active; 'I' for Inactive)
REMARK    1  A    between atoms: C_2  and  C_3
REMARK    2  A    between atoms: C_3  and  C_4
REMARK    3  A    between atoms: C_4  and  N_5
REMARK    4  A    between atoms: C_4  and  C_14
REMARK    5  A    between atoms: C_6  and  C_8
REMARK                            x       y       z     vdW  Elec       q    Type
REMARK                         _______ _______ _______ _____ _____    ______ ____
ROOT
ATOM      1  C   UNL     1       2.396   6.182  18.821  0.00  0.00    +0.000 C 
ENDROOT
BRANCH   1   2
ATOM      2  C   UNL     1       2.007   4.886  19.526  0.00  0.00    +0.000 A 
ATOM      3  C   UNL     1       2.373   4.694  20.873  0.00  0.00    +0.000 A 
ATOM      4  C   UNL     1       2.049   3.513  21.543  0.00  0.00    +0.000 A 
ATOM      5  C   UNL     1       1.354   2.505  20.883  0.00  0.00    +0.000 A 
ATOM      6  C   UNL     1       0.989   2.674  19.549  0.00  0.00    +0.000 A 
ATOM      7  C   UNL     1       1.321   3.851  18.871  0.00  0.00    +0.000 A 
ENDBRANCH   1   2
BRANCH   1   8
ATOM      8  N   UNL     1       3.359   5.943  17.748  0.00  0.00    +0.000 N 
ATOM      9  C   UNL     1       4.661   5.547  17.917  0.00  0.00    +0.000 C 
ATOM     10  O   UNL     1       5.228   5.463  18.991  0.00  0.00    +0.000 OA
ATOM     11  H   UNL     1       3.006   6.061  16.811  0.00  0.00    +0.000 HD
BRANCH   9  12
ATOM     12  C   UNL     1       5.407   5.172  16.672  0.00  0.00    +0.000 A 
ATOM     13  C   UNL     1       6.762   5.517  16.589  0.00  0.00    +0.000 A 
ATOM     14  C   UNL     1       7.494   5.174  15.452  0.00  0.00    +0.000 A 
ATOM     15  C   UNL     1       6.890   4.478  14.410  0.00  0.00    +0.000 A 
ATOM     16  C   UNL     1       5.541   4.125  14.496  0.00  0.00    +0.000 A 
ATOM     17  C   UNL     1       4.801   4.468  15.630  0.00  0.00    +0.000 A 
ENDBRANCH   9  12
ENDBRANCH   1   8
BRANCH   1  18
ATOM     18  C   UNL     1       2.754   7.274  19.835  0.00  0.00    +0.000 C 
BRANCH  18  20
ATOM     19  O   UNL     1       0.927   7.773  21.291  0.00  0.00    +0.000 OA
ATOM     20  C   UNL     1       1.529   8.054  20.252  0.00  0.00    +0.000 C 
ATOM     21  N   UNL     1       1.215   9.120  19.435  0.00  0.00    +0.000 N 
ATOM     22  C   UNL     1       0.258  10.028  19.818  0.00  0.00    +0.000 A 
ATOM     23  N   UNL     1      -0.489  10.750  19.014  0.00  0.00    +0.000 NA
ATOM     24  C   UNL     1      -1.305  11.488  19.846  0.00  0.00    +0.000 A 
ATOM     25  C   UNL     1      -2.369  12.349  19.539  0.00  0.00    +0.000 A 
ATOM     26  C   UNL     1      -3.003  13.039  20.583  0.00  0.00    +0.000 A 
ATOM     27  C   UNL     1      -2.577  12.886  21.906  0.00  0.00    +0.000 A 
ATOM     28  C   UNL     1      -1.545  12.000  22.237  0.00  0.00    +0.000 A 
ATOM     29  C   UNL     1      -0.958  11.303  21.180  0.00  0.00    +0.000 A 
ATOM     30  N   UNL     1      -0.003  10.323  21.133  0.00  0.00    +0.000 N 
ATOM     31  H   UNL     1       1.449   9.081  18.447  0.00  0.00    +0.000 HD
ATOM     32  H   UNL     1       0.442   9.872  21.918  0.00  0.00    +0.000 HD
ENDBRANCH  18  20
ENDBRANCH   1  18
TORSDOF 5
ENDMDL
MODEL 8
REMARK VINA RESULT:      -8.4      4.762      7.856
REMARK  Name = 
REMARK  5 active torsions:
REMARK  status: ('A' for Active; 'I' for Inactive)
REMARK    1  A    between atoms: C_2  and  C_3
REMARK    2  A    between atoms: C_3  and  C_4
REMARK    3  A    between atoms: C_4  and  N_5
REMARK    4  A    between atoms: C_4  and  C_14
REMARK    5  A    between atoms: C_6  and  C_8
REMARK                            x       y       z     vdW  Elec       q    Type
REMARK                         _______ _______ _______ _____ _____    ______ ____
ROOT
ATOM      1  C   UNL     1       3.910   5.488  19.783  0.00  0.00    +0.000 C 
ENDROOT
BRANCH   1   2
ATOM      2  C   UNL     1       3.208   4.226  19.292  0.00  0.00    +0.000 A 
ATOM      3  C   UNL     1       3.653   2.967  19.740  0.00  0.00    +0.000 A 
ATOM      4  C   UNL     1       3.044   1.791  19.297  0.00  0.00    +0.000 A 
ATOM      5  C   UNL     1       1.981   1.851  18.401  0.00  0.00    +0.000 A 
ATOM      6  C   UNL     1       1.532   3.086  17.941  0.00  0.00    +0.000 A 
ATOM      7  C   UNL     1       2.146   4.265  18.374  0.00  0.00    +0.000 A 
ENDBRANCH   1   2
BRANCH   1   8
ATOM      8  N   UNL     1       3.154   6.692  19.442  0.00  0.00    +0.000 N 
ATOM      9  C   UNL     1       2.068   7.174  20.128  0.00  0.00    +0.000 C 
ATOM     10  O   UNL     1       1.509   6.593  21.040  0.00  0.00    +0.000 OA
ATOM     11  H   UNL     1       3.494   7.210  18.647  0.00  0.00    +0.000 HD
BRANCH   9  12
ATOM     12  C   UNL     1       1.572   8.527  19.718  0.00  0.00    +0.000 A 
ATOM     13  C   UNL     1       1.884   8.979  18.429  0.00  0.00    +0.000 A 
ATOM     14  C   UNL     1       1.428  10.229  18.006  0.00  0.00    +0.000 A 
ATOM     15  C   UNL     1       0.654  11.018  18.851  0.00  0.00    +0.000 A 
ATOM     16  C   UNL     1       0.335  10.563  20.132  0.00  0.00    +0.000 A 
ATOM     17  C   UNL     1       0.789   9.315  20.564  0.00  0.00    +0.000 A 
ENDBRANCH   9  12
ENDBRANCH   1   8
BRANCH   1  18
ATOM     18  C   UNL     1       5.394   5.477  19.399  0.00  0.00    +0.000 C 
BRANCH  18  20
ATOM     19  O   UNL     1       5.694   6.708  17.374  0.00  0.00    +0.000 OA
ATOM     20  C   UNL     1       5.571   5.601  17.904  0.00  0.00    +0.000 C 
ATOM     21  N   UNL     1       5.665   4.402  17.230  0.00  0.00    +0.000 N 
ATOM     22  C   UNL     1       6.036   4.377  15.908  0.00  0.00    +0.000 A 
ATOM     23  N   UNL     1       5.701   3.461  15.027  0.00  0.00    +0.000 NA
ATOM     24  C   UNL     1       6.283   3.868  13.844  0.00  0.00    +0.000 A 
ATOM     25  C   UNL     1       6.176   3.333  12.552  0.00  0.00    +0.000 A 
ATOM     26  C   UNL     1       6.935   3.905  11.520  0.00  0.00    +0.000 A 
ATOM     27  C   UNL     1       7.794   4.978  11.771  0.00  0.00    +0.000 A 
ATOM     28  C   UNL     1       7.883   5.553  13.044  0.00  0.00    +0.000 A 
ATOM     29  C   UNL     1       7.090   4.983  14.042  0.00  0.00    +0.000 A 
ATOM     30  N   UNL     1       6.863   5.320  15.350  0.00  0.00    +0.000 N 
ATOM     31  H   UNL     1       5.183   3.584  17.592  0.00  0.00    +0.000 HD
ATOM     32  H   UNL     1       7.224   6.124  15.840  0.00  0.00    +0.000 HD
ENDBRANCH  18  20
ENDBRANCH   1  18
TORSDOF 5
ENDMDL
MODEL 9
REMARK VINA RESULT:      -8.3      5.041      6.303
REMARK  Name = 
REMARK  5 active torsions:
REMARK  status: ('A' for Active; 'I' for Inactive)
REMARK    1  A    between atoms: C_2  and  C_3
REMARK    2  A    between atoms: C_3  and  C_4
REMARK    3  A    between atoms: C_4  and  N_5
REMARK    4  A    between atoms: C_4  and  C_14
REMARK    5  A    between atoms: C_6  and  C_8
REMARK                            x       y       z     vdW  Elec       q    Type
REMARK                         _______ _______ _______ _____ _____    ______ ____
ROOT
ATOM      1  C   UNL     1       3.818   5.135  17.328  0.00  0.00    +0.000 C 
ENDROOT
BRANCH   1   2
ATOM      2  C   UNL     1       3.854   3.799  18.065  0.00  0.00    +0.000 A 
ATOM      3  C   UNL     1       4.466   3.726  19.332  0.00  0.00    +0.000 A 
ATOM      4  C   UNL     1       4.533   2.516  20.027  0.00  0.00    +0.000 A 
ATOM      5  C   UNL     1       3.990   1.361  19.471  0.00  0.00    +0.000 A 
ATOM      6  C   UNL     1       3.388   1.414  18.216  0.00  0.00    +0.000 A 
ATOM      7  C   UNL     1       3.328   2.621  17.513  0.00  0.00    +0.000 A 
ENDBRANCH   1   2
BRANCH   1   8
ATOM      8  N   UNL     1       4.535   5.067  16.056  0.00  0.00    +0.000 N 
ATOM      9  C   UNL     1       5.877   4.825  15.909  0.00  0.00    +0.000 C 
ATOM     10  O   UNL     1       6.677   4.760  16.825  0.00  0.00    +0.000 OA
ATOM     11  H   UNL     1       3.971   5.186  15.229  0.00  0.00    +0.000 HD
BRANCH   9  12
ATOM     12  C   UNL     1       6.362   4.605  14.508  0.00  0.00    +0.000 A 
ATOM     13  C   UNL     1       5.661   3.696  13.705  0.00  0.00    +0.000 A 
ATOM     14  C   UNL     1       6.074   3.473  12.391  0.00  0.00    +0.000 A 
ATOM     15  C   UNL     1       7.165   4.161  11.871  0.00  0.00    +0.000 A 
ATOM     16  C   UNL     1       7.859   5.075  12.667  0.00  0.00    +0.000 A 
ATOM     17  C   UNL     1       7.453   5.301  13.985  0.00  0.00    +0.000 A 
ENDBRANCH   9  12
ENDBRANCH   1   8
BRANCH   1  18
ATOM     18  C   UNL     1       4.185   6.291  18.264  0.00  0.00    +0.000 C 
BRANCH  18  20
ATOM     19  O   UNL     1       2.388   6.616  19.803  0.00  0.00    +0.000 OA
ATOM     20  C   UNL     1       2.949   6.995  18.772  0.00  0.00    +0.000 C 
ATOM     21  N   UNL     1       2.578   8.108  18.048  0.00  0.00    +0.000 N 
ATOM     22  C   UNL     1       1.604   8.951  18.525  0.00  0.00    +0.000 A 
ATOM     23  N   UNL     1       0.810   9.706  17.799  0.00  0.00    +0.000 NA
ATOM     24  C   UNL     1      -0.004  10.351  18.706  0.00  0.00    +0.000 A 
ATOM     25  C   UNL     1      -1.104  11.196  18.494  0.00  0.00    +0.000 A 
ATOM     26  C   UNL     1      -1.727  11.784  19.605  0.00  0.00    +0.000 A 
ATOM     27  C   UNL     1      -1.257  11.547  20.900  0.00  0.00    +0.000 A 
ATOM     28  C   UNL     1      -0.189  10.674  21.135  0.00  0.00    +0.000 A 
ATOM     29  C   UNL     1       0.389  10.079  20.012  0.00  0.00    +0.000 A 
ATOM     30  N   UNL     1       1.373   9.138  19.865  0.00  0.00    +0.000 N 
ATOM     31  H   UNL     1       2.782   8.151  17.054  0.00  0.00    +0.000 HD
ATOM     32  H   UNL     1       1.855   8.645  20.601  0.00  0.00    +0.000 HD
ENDBRANCH  18  20
ENDBRANCH   1  18
TORSDOF 5
ENDMDL
