MODEL 1
REMARK VINA RESULT:     -10.1      0.000      0.000
REMARK  Name = 
REMARK  4 active torsions:
REMARK  status: ('A' for Active; 'I' for Inactive)
REMARK    1  A    between atoms: C_2  and  C_22
REMARK    2  A    between atoms: N_3  and  C_4
REMARK    3  A    between atoms: C_8  and  N_9
REMARK    4  A    between atoms: C_10  and  C_12
REMARK                            x       y       z     vdW  Elec       q    Type
REMARK                         _______ _______ _______ _____ _____    ______ ____
ROOT
ATOM      1  C   UNL     1       2.358   4.996  20.620  0.00  0.00    +0.000 A 
ATOM      2  C   UNL     1       2.188   3.897  21.462  0.00  0.00    +0.000 A 
ATOM      3  C   UNL     1       2.878   2.709  21.240  0.00  0.00    +0.000 A 
ATOM      4  C   UNL     1       3.740   2.596  20.152  0.00  0.00    +0.000 A 
ATOM      5  C   UNL     1       3.916   3.658  19.268  0.00  0.00    +0.000 A 
ATOM      6  C   UNL     1       3.217   4.863  19.507  0.00  0.00    +0.000 A 
ENDROOT
BRANCH   1   9
ATOM      7  O   UNL     1       2.591   7.532  19.132  0.00  0.00    +0.000 OA
ATOM      8  C   UNL     1       1.881   7.404  20.124  0.00  0.00    +0.000 C 
ATOM      9  N   UNL     1       1.678   6.230  20.850  0.00  0.00    +0.000 N 
ATOM     10  H   UNL     1       0.917   6.215  21.514  0.00  0.00    +0.000 HD
BRANCH   8  11
ATOM     11  C   UNL     1       1.112   8.607  20.546  0.00  0.00    +0.000 A 
ATOM     12  C   UNL     1       0.902   9.624  19.580  0.00  0.00    +0.000 A 
ATOM     13  C   UNL     1       0.222  10.801  19.906  0.00  0.00    +0.000 A 
ATOM     14  C   UNL     1      -0.226  10.935  21.200  0.00  0.00    +0.000 A 
ATOM     15  C   UNL     1      -0.004   9.962  22.149  0.00  0.00    +0.000 A 
ATOM     16  C   UNL     1       0.667   8.787  21.862  0.00  0.00    +0.000 A 
ATOM     17  O   UNL     1      -0.512  10.308  23.364  0.00  0.00    +0.000 OA
ATOM     18  C   UNL     1      -1.140  11.570  23.049  0.00  0.00    +0.000 C 
ATOM     19  O   UNL     1      -0.907  12.002  21.694  0.00  0.00    +0.000 OA
ENDBRANCH   8  11
ENDBRANCH   1   9
BRANCH   5  20
ATOM     20  N   UNL     1       4.786   3.569  18.148  0.00  0.00    +0.000 N 
ATOM     21  C   UNL     1       5.796   4.461  17.798  0.00  0.00    +0.000 C 
ATOM     22  O   UNL     1       6.170   5.435  18.447  0.00  0.00    +0.000 OA
ATOM     23  H   UNL     1       4.642   2.799  17.502  0.00  0.00    +0.000 HD
BRANCH  21  24
ATOM     24  C   UNL     1       6.499   4.125  16.481  0.00  0.00    +0.000 C 
ATOM     25  C   UNL     1       5.540   3.516  15.449  0.00  0.00    +0.000 C 
ATOM     26  C   UNL     1       6.261   3.939  14.223  0.00  0.00    +0.000 A 
ATOM     27  C   UNL     1       6.161   3.489  12.918  0.00  0.00    +0.000 A 
ATOM     28  C   UNL     1       6.955   4.112  11.948  0.00  0.00    +0.000 A 
ATOM     29  C   UNL     1       7.808   5.176  12.289  0.00  0.00    +0.000 A 
ATOM     30  C   UNL     1       7.892   5.622  13.607  0.00  0.00    +0.000 A 
ATOM     31  C   UNL     1       7.120   4.979  14.549  0.00  0.00    +0.000 A 
ATOM     32  O   UNL     1       7.122   5.288  15.885  0.00  0.00    +0.000 OA
ENDBRANCH  21  24
ENDBRANCH   5  20
TORSDOF 4
ENDMDL
MODEL 2
REMARK VINA RESULT:      -9.8      0.569      1.271
REMARK  Name = 
REMARK  4 active torsions:
REMARK  status: ('A' for Active; 'I' for Inactive)
REMARK    1  A    between atoms: C_2  and  C_22
REMARK    2  A    between atoms: N_3  and  C_4
REMARK    3  A    between atoms: C_8  and  N_9
REMARK    4  A    between atoms: C_10  and  C_12
REMARK                            x       y       z     vdW  Elec       q    Type
REMARK                         _______ _______ _______ _____ _____    ______ ____
ROOT
ATOM      1  C   UNL     1       2.436   5.032  20.575  0.00  0.00    +0.000 A 
ATOM      2  C   UNL     1       2.220   3.914  21.380  0.00  0.00    +0.000 A 
ATOM      3  C   UNL     1       2.863   2.707  21.123  0.00  0.00    +0.000 A 
ATOM      4  C   UNL     1       3.724   2.595  20.034  0.00  0.00    +0.000 A 
ATOM      5  C   UNL     1       3.946   3.677  19.185  0.00  0.00    +0.000 A 
ATOM      6  C   UNL     1       3.294   4.900  19.460  0.00  0.00    +0.000 A 
ENDROOT
BRANCH   1   9
ATOM      7  O   UNL     1       2.521   7.514  18.983  0.00  0.00    +0.000 OA
ATOM      8  C   UNL     1       1.935   7.430  20.058  0.00  0.00    +0.000 C 
ATOM      9  N   UNL     1       1.805   6.284  20.842  0.00  0.00    +0.000 N 
ATOM     10  H   UNL     1       1.130   6.303  21.594  0.00  0.00    +0.000 HD
BRANCH   8  11
ATOM     11  C   UNL     1       1.237   8.659  20.528  0.00  0.00    +0.000 A 
ATOM     12  C   UNL     1       0.949   8.761  21.913  0.00  0.00    +0.000 A 
ATOM     13  C   UNL     1       0.264   9.865  22.429  0.00  0.00    +0.000 A 
ATOM     14  C   UNL     1      -0.125  10.840  21.540  0.00  0.00    +0.000 A 
ATOM     15  C   UNL     1       0.130  10.735  20.190  0.00  0.00    +0.000 A 
ATOM     16  C   UNL     1       0.802   9.656  19.646  0.00  0.00    +0.000 A 
ATOM     17  O   UNL     1      -0.359  11.798  19.494  0.00  0.00    +0.000 OA
ATOM     18  C   UNL     1      -0.882  12.612  20.567  0.00  0.00    +0.000 C 
ATOM     19  O   UNL     1      -0.792  11.980  21.859  0.00  0.00    +0.000 OA
ENDBRANCH   8  11
ENDBRANCH   1   9
BRANCH   5  20
ATOM     20  N   UNL     1       4.816   3.589  18.066  0.00  0.00    +0.000 N 
ATOM     21  C   UNL     1       5.874   4.440  17.757  0.00  0.00    +0.000 C 
ATOM     22  O   UNL     1       6.295   5.365  18.449  0.00  0.00    +0.000 OA
ATOM     23  H   UNL     1       4.636   2.856  17.387  0.00  0.00    +0.000 HD
BRANCH  21  24
ATOM     24  C   UNL     1       6.566   4.124  16.429  0.00  0.00    +0.000 C 
ATOM     25  C   UNL     1       5.608   3.490  15.411  0.00  0.00    +0.000 C 
ATOM     26  C   UNL     1       6.300   3.932  14.175  0.00  0.00    +0.000 A 
ATOM     27  C   UNL     1       6.193   3.479  12.871  0.00  0.00    +0.000 A 
ATOM     28  C   UNL     1       6.955   4.124  11.890  0.00  0.00    +0.000 A 
ATOM     29  C   UNL     1       7.784   5.210  12.219  0.00  0.00    +0.000 A 
ATOM     30  C   UNL     1       7.876   5.658  13.537  0.00  0.00    +0.000 A 
ATOM     31  C   UNL     1       7.136   4.994  14.489  0.00  0.00    +0.000 A 
ATOM     32  O   UNL     1       7.149   5.303  15.825  0.00  0.00    +0.000 OA
ENDBRANCH  21  24
ENDBRANCH   5  20
TORSDOF 4
ENDMDL
MODEL 3
REMARK VINA RESULT:      -9.4      1.737      2.259
REMARK  Name = 
REMARK  4 active torsions:
REMARK  status: ('A' for Active; 'I' for Inactive)
REMARK    1  A    between atoms: C_2  and  C_22
REMARK    2  A    between atoms: N_3  and  C_4
REMARK    3  A    between atoms: C_8  and  N_9
REMARK    4  A    between atoms: C_10  and  C_12
REMARK                            x       y       z     vdW  Elec       q    Type
REMARK                         _______ _______ _______ _____ _____    ______ ____
ROOT
ATOM      1  C   UNL     1       2.263   7.019  19.612  0.00  0.00    +0.000 A 
ATOM      2  C   UNL     1       1.849   6.121  20.596  0.00  0.00    +0.000 A 
ATOM      3  C   UNL     1       2.314   4.810  20.614  0.00  0.00    +0.000 A 
ATOM      4  C   UNL     1       3.192   4.368  19.628  0.00  0.00    +0.000 A 
ATOM      5  C   UNL     1       3.608   5.221  18.607  0.00  0.00    +0.000 A 
ATOM      6  C   UNL     1       3.136   6.554  18.603  0.00  0.00    +0.000 A 
ENDROOT
BRANCH   1   9
ATOM      7  O   UNL     1       2.068   8.866  17.321  0.00  0.00    +0.000 OA
ATOM      8  C   UNL     1       1.799   9.199  18.470  0.00  0.00    +0.000 C 
ATOM      9  N   UNL     1       1.816   8.374  19.595  0.00  0.00    +0.000 N 
ATOM     10  H   UNL     1       1.379   8.721  20.438  0.00  0.00    +0.000 HD
BRANCH   8  11
ATOM     11  C   UNL     1       1.343  10.604  18.662  0.00  0.00    +0.000 A 
ATOM     12  C   UNL     1       2.192  11.639  18.193  0.00  0.00    +0.000 A 
ATOM     13  C   UNL     1       1.855  12.984  18.368  0.00  0.00    +0.000 A 
ATOM     14  C   UNL     1       0.675  13.261  19.020  0.00  0.00    +0.000 A 
ATOM     15  C   UNL     1      -0.142  12.260  19.499  0.00  0.00    +0.000 A 
ATOM     16  C   UNL     1       0.163  10.920  19.346  0.00  0.00    +0.000 A 
ATOM     17  O   UNL     1      -1.244  12.757  20.126  0.00  0.00    +0.000 OA
ATOM     18  C   UNL     1      -1.062  14.175  19.919  0.00  0.00    +0.000 C 
ATOM     19  O   UNL     1       0.184  14.502  19.274  0.00  0.00    +0.000 OA
ENDBRANCH   8  11
ENDBRANCH   1   9
BRANCH   5  20
ATOM     20  N   UNL     1       4.500   4.796  17.587  0.00  0.00    +0.000 N 
ATOM     21  C   UNL     1       5.883   4.664  17.684  0.00  0.00    +0.000 C 
ATOM     22  O   UNL     1       6.563   4.807  18.697  0.00  0.00    +0.000 OA
ATOM     23  H   UNL     1       4.108   4.602  16.671  0.00  0.00    +0.000 HD
BRANCH  21  24
ATOM     24  C   UNL     1       6.567   4.265  16.374  0.00  0.00    +0.000 C 
ATOM     25  C   UNL     1       5.594   3.603  15.389  0.00  0.00    +0.000 C 
ATOM     26  C   UNL     1       6.295   3.966  14.132  0.00  0.00    +0.000 A 
ATOM     27  C   UNL     1       6.177   3.450  12.853  0.00  0.00    +0.000 A 
ATOM     28  C   UNL     1       6.953   4.027  11.841  0.00  0.00    +0.000 A 
ATOM     29  C   UNL     1       7.807   5.109  12.115  0.00  0.00    +0.000 A 
ATOM     30  C   UNL     1       7.910   5.621  13.408  0.00  0.00    +0.000 A 
ATOM     31  C   UNL     1       7.155   5.023  14.393  0.00  0.00    +0.000 A 
ATOM     32  O   UNL     1       7.176   5.399  15.712  0.00  0.00    +0.000 OA
ENDBRANCH  21  24
ENDBRANCH   5  20
TORSDOF 4
ENDMDL
MODEL 4
REMARK VINA RESULT:      -9.3      2.178      2.734
REMARK  Name = 
REMARK  4 active torsions:
REMARK  status: ('A' for Active; 'I' for Inactive)
REMARK    1  A    between atoms: C_2  and  C_22
REMARK    2  A    between atoms: N_3  and  C_4
REMARK    3  A    between atoms: C_8  and  N_9
REMARK    4  A    between atoms: C_10  and  C_12
REMARK                            x       y       z     vdW  Elec       q    Type
REMARK                         _______ _______ _______ _____ _____    ______ ____
ROOT
ATOM      1  C   UNL     1       2.216   7.211  19.658  0.00  0.00    +0.000 A 
ATOM      2  C   UNL     1       1.776   6.349  20.663  0.00  0.00    +0.000 A 
ATOM      3  C   UNL     1       2.211   5.028  20.717  0.00  0.00    +0.000 A 
ATOM      4  C   UNL     1       3.083   4.541  19.747  0.00  0.00    +0.000 A 
ATOM      5  C   UNL     1       3.523   5.357  18.708  0.00  0.00    +0.000 A 
ATOM      6  C   UNL     1       3.083   6.699  18.667  0.00  0.00    +0.000 A 
ENDROOT
BRANCH   1   9
ATOM      7  O   UNL     1       1.028   8.686  17.397  0.00  0.00    +0.000 OA
ATOM      8  C   UNL     1       1.289   9.213  18.474  0.00  0.00    +0.000 C 
ATOM      9  N   UNL     1       1.801   8.575  19.604  0.00  0.00    +0.000 N 
ATOM     10  H   UNL     1       1.776   9.080  20.479  0.00  0.00    +0.000 HD
BRANCH   8  11
ATOM     11  C   UNL     1       0.957  10.659  18.600  0.00  0.00    +0.000 A 
ATOM     12  C   UNL     1      -0.415  11.014  18.666  0.00  0.00    +0.000 A 
ATOM     13  C   UNL     1      -0.812  12.352  18.748  0.00  0.00    +0.000 A 
ATOM     14  C   UNL     1       0.179  13.306  18.752  0.00  0.00    +0.000 A 
ATOM     15  C   UNL     1       1.512  12.969  18.663  0.00  0.00    +0.000 A 
ATOM     16  C   UNL     1       1.939  11.657  18.579  0.00  0.00    +0.000 A 
ATOM     17  O   UNL     1       2.317  14.067  18.664  0.00  0.00    +0.000 OA
ATOM     18  C   UNL     1       1.345  15.121  18.839  0.00  0.00    +0.000 C 
ATOM     19  O   UNL     1      -0.016  14.649  18.831  0.00  0.00    +0.000 OA
ENDBRANCH   8  11
ENDBRANCH   1   9
BRANCH   5  20
ATOM     20  N   UNL     1       4.410   4.885  17.704  0.00  0.00    +0.000 N 
ATOM     21  C   UNL     1       5.787   5.083  17.639  0.00  0.00    +0.000 C 
ATOM     22  O   UNL     1       6.488   5.627  18.490  0.00  0.00    +0.000 OA
ATOM     23  H   UNL     1       4.007   4.381  16.920  0.00  0.00    +0.000 HD
BRANCH  21  24
ATOM     24  C   UNL     1       6.444   4.517  16.379  0.00  0.00    +0.000 C 
ATOM     25  C   UNL     1       5.426   3.847  15.445  0.00  0.00    +0.000 C 
ATOM     26  C   UNL     1       6.160   4.040  14.169  0.00  0.00    +0.000 A 
ATOM     27  C   UNL     1       6.008   3.423  12.939  0.00  0.00    +0.000 A 
ATOM     28  C   UNL     1       6.832   3.844  11.890  0.00  0.00    +0.000 A 
ATOM     29  C   UNL     1       7.768   4.876  12.077  0.00  0.00    +0.000 A 
ATOM     30  C   UNL     1       7.905   5.491  13.321  0.00  0.00    +0.000 A 
ATOM     31  C   UNL     1       7.100   5.046  14.345  0.00  0.00    +0.000 A 
ATOM     32  O   UNL     1       7.145   5.535  15.626  0.00  0.00    +0.000 OA
ENDBRANCH  21  24
ENDBRANCH   5  20
TORSDOF 4
ENDMDL
MODEL 5
REMARK VINA RESULT:      -9.3      4.159      7.388
REMARK  Name = 
REMARK  4 active torsions:
REMARK  status: ('A' for Active; 'I' for Inactive)
REMARK    1  A    between atoms: C_2  and  C_22
REMARK    2  A    between atoms: N_3  and  C_4
REMARK    3  A    between atoms: C_8  and  N_9
REMARK    4  A    between atoms: C_10  and  C_12
REMARK                            x       y       z     vdW  Elec       q    Type
REMARK                         _______ _______ _______ _____ _____    ______ ____
ROOT
ATOM      1  C   UNL     1      -0.868  11.821  20.144  0.00  0.00    +0.000 A 
ATOM      2  C   UNL     1      -0.233  12.818  19.401  0.00  0.00    +0.000 A 
ATOM      3  C   UNL     1       0.933  12.551  18.689  0.00  0.00    +0.000 A 
ATOM      4  C   UNL     1       1.496  11.278  18.727  0.00  0.00    +0.000 A 
ATOM      5  C   UNL     1       0.914  10.261  19.480  0.00  0.00    +0.000 A 
ATOM      6  C   UNL     1      -0.275  10.540  20.192  0.00  0.00    +0.000 A 
ENDROOT
BRANCH   1   9
ATOM      7  O   UNL     1      -1.215  12.580  22.972  0.00  0.00    +0.000 OA
ATOM      8  C   UNL     1      -2.159  12.382  22.214  0.00  0.00    +0.000 C 
ATOM      9  N   UNL     1      -2.078  12.072  20.856  0.00  0.00    +0.000 N 
ATOM     10  H   UNL     1      -2.925  12.138  20.309  0.00  0.00    +0.000 HD
BRANCH   8  11
ATOM     11  C   UNL     1      -3.520  12.562  22.792  0.00  0.00    +0.000 A 
ATOM     12  C   UNL     1      -3.687  12.290  24.174  0.00  0.00    +0.000 A 
ATOM     13  C   UNL     1      -4.939  12.398  24.785  0.00  0.00    +0.000 A 
ATOM     14  C   UNL     1      -6.000  12.769  23.992  0.00  0.00    +0.000 A 
ATOM     15  C   UNL     1      -5.849  13.011  22.644  0.00  0.00    +0.000 A 
ATOM     16  C   UNL     1      -4.625  12.910  22.007  0.00  0.00    +0.000 A 
ATOM     17  O   UNL     1      -7.028  13.343  22.050  0.00  0.00    +0.000 OA
ATOM     18  C   UNL     1      -7.916  13.354  23.189  0.00  0.00    +0.000 C 
ATOM     19  O   UNL     1      -7.282  12.930  24.411  0.00  0.00    +0.000 OA
ENDBRANCH   8  11
ENDBRANCH   1   9
BRANCH   5  20
ATOM     20  N   UNL     1       1.469   8.955  19.539  0.00  0.00    +0.000 N 
ATOM     21  C   UNL     1       2.097   8.264  18.506  0.00  0.00    +0.000 C 
ATOM     22  O   UNL     1       2.360   8.699  17.387  0.00  0.00    +0.000 OA
ATOM     23  H   UNL     1       1.370   8.441  20.408  0.00  0.00    +0.000 HD
BRANCH  21  24
ATOM     24  C   UNL     1       2.511   6.836  18.868  0.00  0.00    +0.000 C 
ATOM     25  C   UNL     1       1.954   6.398  20.230  0.00  0.00    +0.000 C 
ATOM     26  C   UNL     1       1.917   4.936  19.977  0.00  0.00    +0.000 A 
ATOM     27  C   UNL     1       1.821   3.871  20.856  0.00  0.00    +0.000 A 
ATOM     28  C   UNL     1       1.769   2.580  20.318  0.00  0.00    +0.000 A 
ATOM     29  C   UNL     1       1.791   2.378  18.926  0.00  0.00    +0.000 A 
ATOM     30  C   UNL     1       1.881   3.463  18.054  0.00  0.00    +0.000 A 
ATOM     31  C   UNL     1       1.955   4.721  18.607  0.00  0.00    +0.000 A 
ATOM     32  O   UNL     1       2.078   5.875  17.876  0.00  0.00    +0.000 OA
ENDBRANCH  21  24
ENDBRANCH   5  20
TORSDOF 4
ENDMDL
MODEL 6
REMARK VINA RESULT:      -9.3      1.504      2.262
REMARK  Name = 
REMARK  4 active torsions:
REMARK  status: ('A' for Active; 'I' for Inactive)
REMARK    1  A    between atoms: C_2  and  C_22
REMARK    2  A    between atoms: N_3  and  C_4
REMARK    3  A    between atoms: C_8  and  N_9
REMARK    4  A    between atoms: C_10  and  C_12
REMARK                            x       y       z     vdW  Elec       q    Type
REMARK                         _______ _______ _______ _____ _____    ______ ____
ROOT
ATOM      1  C   UNL     1       2.226   6.828  19.739  0.00  0.00    +0.000 A 
ATOM      2  C   UNL     1       1.871   5.928  20.744  0.00  0.00    +0.000 A 
ATOM      3  C   UNL     1       2.395   4.639  20.773  0.00  0.00    +0.000 A 
ATOM      4  C   UNL     1       3.274   4.222  19.777  0.00  0.00    +0.000 A 
ATOM      5  C   UNL     1       3.632   5.077  18.737  0.00  0.00    +0.000 A 
ATOM      6  C   UNL     1       3.101   6.386  18.721  0.00  0.00    +0.000 A 
ENDROOT
BRANCH   1   9
ATOM      7  O   UNL     1       1.261   8.478  21.985  0.00  0.00    +0.000 OA
ATOM      8  C   UNL     1       1.235   8.858  20.819  0.00  0.00    +0.000 C 
ATOM      9  N   UNL     1       1.719   8.161  19.711  0.00  0.00    +0.000 N 
ATOM     10  H   UNL     1       1.822   8.671  18.845  0.00  0.00    +0.000 HD
BRANCH   8  11
ATOM     11  C   UNL     1       0.699  10.227  20.582  0.00  0.00    +0.000 A 
ATOM     12  C   UNL     1      -0.246  10.731  21.511  0.00  0.00    +0.000 A 
ATOM     13  C   UNL     1      -0.826  11.992  21.339  0.00  0.00    +0.000 A 
ATOM     14  C   UNL     1      -0.449  12.716  20.232  0.00  0.00    +0.000 A 
ATOM     15  C   UNL     1       0.451  12.222  19.313  0.00  0.00    +0.000 A 
ATOM     16  C   UNL     1       1.040  10.978  19.451  0.00  0.00    +0.000 A 
ATOM     17  O   UNL     1       0.664  13.092  18.288  0.00  0.00    +0.000 OA
ATOM     18  C   UNL     1      -0.143  14.214  18.708  0.00  0.00    +0.000 C 
ATOM     19  O   UNL     1      -0.900  13.956  19.907  0.00  0.00    +0.000 OA
ENDBRANCH   8  11
ENDBRANCH   1   9
BRANCH   5  20
ATOM     20  N   UNL     1       4.524   4.676  17.706  0.00  0.00    +0.000 N 
ATOM     21  C   UNL     1       5.890   4.933  17.632  0.00  0.00    +0.000 C 
ATOM     22  O   UNL     1       6.581   5.476  18.493  0.00  0.00    +0.000 OA
ATOM     23  H   UNL     1       4.131   4.183  16.911  0.00  0.00    +0.000 HD
BRANCH  21  24
ATOM     24  C   UNL     1       6.553   4.437  16.345  0.00  0.00    +0.000 C 
ATOM     25  C   UNL     1       5.556   3.735  15.412  0.00  0.00    +0.000 C 
ATOM     26  C   UNL     1       6.252   4.002  14.129  0.00  0.00    +0.000 A 
ATOM     27  C   UNL     1       6.111   3.410  12.886  0.00  0.00    +0.000 A 
ATOM     28  C   UNL     1       6.889   3.903  11.833  0.00  0.00    +0.000 A 
ATOM     29  C   UNL     1       7.769   4.982  12.031  0.00  0.00    +0.000 A 
ATOM     30  C   UNL     1       7.896   5.572  13.288  0.00  0.00    +0.000 A 
ATOM     31  C   UNL     1       7.138   5.055  14.315  0.00  0.00    +0.000 A 
ATOM     32  O   UNL     1       7.180   5.513  15.607  0.00  0.00    +0.000 OA
ENDBRANCH  21  24
ENDBRANCH   5  20
TORSDOF 4
ENDMDL
MODEL 7
REMARK VINA RESULT:      -9.1      1.168      1.906
REMARK  Name = 
REMARK  4 active torsions:
REMARK  status: ('A' for Active; 'I' for Inactive)
REMARK    1  A    between atoms: C_2  and  C_22
REMARK    2  A    between atoms: N_3  and  C_4
REMARK    3  A    between atoms: C_8  and  N_9
REMARK    4  A    between atoms: C_10  and  C_12
REMARK                            x       y       z     vdW  Elec       q    Type
REMARK                         _______ _______ _______ _____ _____    ______ ____
ROOT
ATOM      1  C   UNL     1       1.961   5.786  20.566  0.00  0.00    +0.000 A 
ATOM      2  C   UNL     1       1.997   4.574  21.256  0.00  0.00    +0.000 A 
ATOM      3  C   UNL     1       2.625   3.457  20.715  0.00  0.00    +0.000 A 
ATOM      4  C   UNL     1       3.214   3.531  19.455  0.00  0.00    +0.000 A 
ATOM      5  C   UNL     1       3.175   4.711  18.716  0.00  0.00    +0.000 A 
ATOM      6  C   UNL     1       2.541   5.843  19.279  0.00  0.00    +0.000 A 
ENDROOT
BRANCH   1   9
ATOM      7  O   UNL     1       1.758   8.491  19.408  0.00  0.00    +0.000 OA
ATOM      8  C   UNL     1       1.333   8.210  20.524  0.00  0.00    +0.000 C 
ATOM      9  N   UNL     1       1.344   6.948  21.119  0.00  0.00    +0.000 N 
ATOM     10  H   UNL     1       0.782   6.815  21.948  0.00  0.00    +0.000 HD
BRANCH   8  11
ATOM     11  C   UNL     1       0.680   9.314  21.281  0.00  0.00    +0.000 A 
ATOM     12  C   UNL     1      -0.055   8.967  22.443  0.00  0.00    +0.000 A 
ATOM     13  C   UNL     1      -0.729   9.939  23.188  0.00  0.00    +0.000 A 
ATOM     14  C   UNL     1      -0.656  11.239  22.744  0.00  0.00    +0.000 A 
ATOM     15  C   UNL     1       0.036  11.579  21.602  0.00  0.00    +0.000 A 
ATOM     16  C   UNL     1       0.711  10.642  20.840  0.00  0.00    +0.000 A 
ATOM     17  O   UNL     1      -0.040  12.912  21.337  0.00  0.00    +0.000 OA
ATOM     18  C   UNL     1      -0.793  13.377  22.478  0.00  0.00    +0.000 C 
ATOM     19  O   UNL     1      -1.239  12.312  23.340  0.00  0.00    +0.000 OA
ENDBRANCH   8  11
ENDBRANCH   1   9
BRANCH   5  20
ATOM     20  N   UNL     1       3.764   4.813  17.428  0.00  0.00    +0.000 N 
ATOM     21  C   UNL     1       5.078   5.165  17.132  0.00  0.00    +0.000 C 
ATOM     22  O   UNL     1       5.983   5.363  17.940  0.00  0.00    +0.000 OA
ATOM     23  H   UNL     1       3.165   4.653  16.624  0.00  0.00    +0.000 HD
BRANCH  21  24
ATOM     24  C   UNL     1       5.378   5.267  15.635  0.00  0.00    +0.000 C 
ATOM     25  C   UNL     1       6.863   5.537  15.357  0.00  0.00    +0.000 C 
ATOM     26  C   UNL     1       6.934   4.926  14.007  0.00  0.00    +0.000 A 
ATOM     27  C   UNL     1       7.877   5.065  13.003  0.00  0.00    +0.000 A 
ATOM     28  C   UNL     1       7.698   4.322  11.830  0.00  0.00    +0.000 A 
ATOM     29  C   UNL     1       6.607   3.447  11.689  0.00  0.00    +0.000 A 
ATOM     30  C   UNL     1       5.669   3.314  12.713  0.00  0.00    +0.000 A 
ATOM     31  C   UNL     1       5.852   4.072  13.848  0.00  0.00    +0.000 A 
ATOM     32  O   UNL     1       4.997   4.068  14.921  0.00  0.00    +0.000 OA
ENDBRANCH  21  24
ENDBRANCH   5  20
TORSDOF 4
ENDMDL
MODEL 8
REMARK VINA RESULT:      -9.1      1.413      1.892
REMARK  Name = 
REMARK  4 active torsions:
REMARK  status: ('A' for Active; 'I' for Inactive)
REMARK    1  A    between atoms: C_2  and  C_22
REMARK    2  A    between atoms: N_3  and  C_4
REMARK    3  A    between atoms: C_8  and  N_9
REMARK    4  A    between atoms: C_10  and  C_12
REMARK                            x       y       z     vdW  Elec       q    Type
REMARK                         _______ _______ _______ _____ _____    ______ ____
ROOT
ATOM      1  C   UNL     1       2.139   6.805  19.682  0.00  0.00    +0.000 A 
ATOM      2  C   UNL     1       1.831   5.931  20.726  0.00  0.00    +0.000 A 
ATOM      3  C   UNL     1       2.406   4.667  20.798  0.00  0.00    +0.000 A 
ATOM      4  C   UNL     1       3.291   4.246  19.809  0.00  0.00    +0.000 A 
ATOM      5  C   UNL     1       3.604   5.072  18.732  0.00  0.00    +0.000 A 
ATOM      6  C   UNL     1       3.020   6.358  18.672  0.00  0.00    +0.000 A 
ENDROOT
BRANCH   1   9
ATOM      7  O   UNL     1       1.299   8.575  21.887  0.00  0.00    +0.000 OA
ATOM      8  C   UNL     1       1.162   8.871  20.704  0.00  0.00    +0.000 C 
ATOM      9  N   UNL     1       1.579   8.115  19.608  0.00  0.00    +0.000 N 
ATOM     10  H   UNL     1       1.589   8.566  18.704  0.00  0.00    +0.000 HD
BRANCH   8  11
ATOM     11  C   UNL     1       0.554  10.201  20.422  0.00  0.00    +0.000 A 
ATOM     12  C   UNL     1      -0.163  10.350  19.208  0.00  0.00    +0.000 A 
ATOM     13  C   UNL     1      -0.732  11.576  18.850  0.00  0.00    +0.000 A 
ATOM     14  C   UNL     1      -0.561  12.629  19.719  0.00  0.00    +0.000 A 
ATOM     15  C   UNL     1       0.154  12.497  20.889  0.00  0.00    +0.000 A 
ATOM     16  C   UNL     1       0.732  11.300  21.271  0.00  0.00    +0.000 A 
ATOM     17  O   UNL     1       0.215  13.665  21.585  0.00  0.00    +0.000 OA
ATOM     18  C   UNL     1      -0.604  14.521  20.758  0.00  0.00    +0.000 C 
ATOM     19  O   UNL     1      -1.045  13.887  19.542  0.00  0.00    +0.000 OA
ENDBRANCH   8  11
ENDBRANCH   1   9
BRANCH   5  20
ATOM     20  N   UNL     1       4.500   4.667  17.707  0.00  0.00    +0.000 N 
ATOM     21  C   UNL     1       5.854   4.973  17.608  0.00  0.00    +0.000 C 
ATOM     22  O   UNL     1       6.532   5.575  18.438  0.00  0.00    +0.000 OA
ATOM     23  H   UNL     1       4.119   4.128  16.936  0.00  0.00    +0.000 HD
BRANCH  21  24
ATOM     24  C   UNL     1       6.523   4.454  16.333  0.00  0.00    +0.000 C 
ATOM     25  C   UNL     1       5.526   3.755  15.398  0.00  0.00    +0.000 C 
ATOM     26  C   UNL     1       6.238   3.998  14.119  0.00  0.00    +0.000 A 
ATOM     27  C   UNL     1       6.100   3.393  12.881  0.00  0.00    +0.000 A 
ATOM     28  C   UNL     1       6.896   3.865  11.830  0.00  0.00    +0.000 A 
ATOM     29  C   UNL     1       7.788   4.933  12.025  0.00  0.00    +0.000 A 
ATOM     30  C   UNL     1       7.910   5.536  13.277  0.00  0.00    +0.000 A 
ATOM     31  C   UNL     1       7.135   5.041  14.301  0.00  0.00    +0.000 A 
ATOM     32  O   UNL     1       7.172   5.512  15.589  0.00  0.00    +0.000 OA
ENDBRANCH  21  24
ENDBRANCH   5  20
TORSDOF 4
ENDMDL
MODEL 9
REMARK VINA RESULT:      -8.9      3.743      6.914
REMARK  Name = 
REMARK  4 active torsions:
REMARK  status: ('A' for Active; 'I' for Inactive)
REMARK    1  A    between atoms: C_2  and  C_22
REMARK    2  A    between atoms: N_3  and  C_4
REMARK    3  A    between atoms: C_8  and  N_9
REMARK    4  A    between atoms: C_10  and  C_12
REMARK                            x       y       z     vdW  Elec       q    Type
REMARK                         _______ _______ _______ _____ _____    ______ ____
ROOT
ATOM      1  C   UNL     1      -0.294  11.621  19.741  0.00  0.00    +0.000 A 
ATOM      2  C   UNL     1       0.439  12.577  19.037  0.00  0.00    +0.000 A 
ATOM      3  C   UNL     1       1.577  12.224  18.317  0.00  0.00    +0.000 A 
ATOM      4  C   UNL     1       2.013  10.901  18.309  0.00  0.00    +0.000 A 
ATOM      5  C   UNL     1       1.330   9.920  19.024  0.00  0.00    +0.000 A 
ATOM      6  C   UNL     1       0.171  10.287  19.744  0.00  0.00    +0.000 A 
ENDROOT
BRANCH   1   9
ATOM      7  O   UNL     1      -0.592  12.224  22.613  0.00  0.00    +0.000 OA
ATOM      8  C   UNL     1      -1.542  12.189  21.836  0.00  0.00    +0.000 C 
ATOM      9  N   UNL     1      -1.477  11.963  20.461  0.00  0.00    +0.000 N 
ATOM     10  H   UNL     1      -2.303  12.163  19.914  0.00  0.00    +0.000 HD
BRANCH   8  11
ATOM     11  C   UNL     1      -2.881  12.487  22.416  0.00  0.00    +0.000 A 
ATOM     12  C   UNL     1      -3.047  12.304  23.812  0.00  0.00    +0.000 A 
ATOM     13  C   UNL     1      -4.283  12.525  24.428  0.00  0.00    +0.000 A 
ATOM     14  C   UNL     1      -5.328  12.918  23.624  0.00  0.00    +0.000 A 
ATOM     15  C   UNL     1      -5.179  13.074  22.263  0.00  0.00    +0.000 A 
ATOM     16  C   UNL     1      -3.972  12.860  21.622  0.00  0.00    +0.000 A 
ATOM     17  O   UNL     1      -6.342  13.447  21.662  0.00  0.00    +0.000 OA
ATOM     18  C   UNL     1      -7.214  13.578  22.807  0.00  0.00    +0.000 C 
ATOM     19  O   UNL     1      -6.592  13.183  24.045  0.00  0.00    +0.000 OA
ENDBRANCH   8  11
ENDBRANCH   1   9
BRANCH   5  20
ATOM     20  N   UNL     1       1.755   8.564  19.035  0.00  0.00    +0.000 N 
ATOM     21  C   UNL     1       1.841   7.721  20.140  0.00  0.00    +0.000 C 
ATOM     22  O   UNL     1       1.477   7.977  21.286  0.00  0.00    +0.000 OA
ATOM     23  H   UNL     1       2.073   8.164  18.158  0.00  0.00    +0.000 HD
BRANCH  21  24
ATOM     24  C   UNL     1       2.420   6.339  19.831  0.00  0.00    +0.000 C 
ATOM     25  C   UNL     1       1.778   5.236  20.684  0.00  0.00    +0.000 C 
ATOM     26  C   UNL     1       1.993   4.102  19.751  0.00  0.00    +0.000 A 
ATOM     27  C   UNL     1       1.957   2.736  19.969  0.00  0.00    +0.000 A 
ATOM     28  C   UNL     1       2.165   1.892  18.872  0.00  0.00    +0.000 A 
ATOM     29  C   UNL     1       2.383   2.420  17.587  0.00  0.00    +0.000 A 
ATOM     30  C   UNL     1       2.412   3.800  17.384  0.00  0.00    +0.000 A 
ATOM     31  C   UNL     1       2.227   4.611  18.481  0.00  0.00    +0.000 A 
ATOM     32  O   UNL     1       2.259   5.981  18.438  0.00  0.00    +0.000 OA
ENDBRANCH  21  24
ENDBRANCH   5  20
TORSDOF 4
ENDMDL
