MODEL 1
REMARK VINA RESULT:      -7.6      0.000      0.000
REMARK  Name = 
REMARK  4 active torsions:
REMARK  status: ('A' for Active; 'I' for Inactive)
REMARK    1  A    between atoms: N_1  and  S_2
REMARK    2  A    between atoms: S_2  and  C_5
REMARK    3  A    between atoms: C_10  and  C_11
REMARK    4  A    between atoms: C_17  and  C_18
REMARK                            x       y       z     vdW  Elec       q    Type
REMARK                         _______ _______ _______ _____ _____    ______ ____
ROOT
ATOM      1  C   UNL     1       3.596   5.452  17.572  0.00  0.00    +0.000 C 
ATOM      2  O   UNL     1       3.107   4.349  17.334  0.00  0.00    +0.000 OA
ATOM      3  N   UNL     1       4.799   5.887  17.029  0.00  0.00    +0.000 N 
ATOM      4  C   UNL     1       5.456   5.054  16.011  0.00  0.00    +0.000 C 
ATOM      5  C   UNL     1       6.915   4.773  16.376  0.00  0.00    +0.000 C 
ATOM      6  C   UNL     1       7.679   6.061  16.675  0.00  0.00    +0.000 C 
ATOM      7  C   UNL     1       6.955   6.909  17.734  0.00  0.00    +0.000 C 
ATOM      8  C   UNL     1       5.503   7.155  17.278  0.00  0.00    +0.000 C 
ENDROOT
BRANCH   7   9
ATOM      9  C   UNL     1       7.671   8.207  17.984  0.00  0.00    +0.000 A 
ATOM     10  C   UNL     1       7.563   9.419  17.333  0.00  0.00    +0.000 A 
ATOM     11  C   UNL     1       8.428  10.345  17.964  0.00  0.00    +0.000 A 
ATOM     12  C   UNL     1       8.720  11.703  17.747  0.00  0.00    +0.000 A 
ATOM     13  C   UNL     1       9.631  12.348  18.589  0.00  0.00    +0.000 A 
ATOM     14  C   UNL     1      10.254  11.653  19.623  0.00  0.00    +0.000 A 
ATOM     15  C   UNL     1       9.987  10.298  19.849  0.00  0.00    +0.000 A 
ATOM     16  C   UNL     1       9.064   9.669  19.003  0.00  0.00    +0.000 A 
ATOM     17  N   UNL     1       8.598   8.370  18.993  0.00  0.00    +0.000 N 
ATOM     18  H   UNL     1       8.896   7.660  19.652  0.00  0.00    +0.000 HD
ENDBRANCH   7   9
BRANCH   1  24
ATOM     19  C   UNL     1       1.635   8.387  19.049  0.00  0.00    +0.000 A 
ATOM     20  C   UNL     1       1.485   7.984  20.365  0.00  0.00    +0.000 A 
ATOM     21  C   UNL     1       2.022   6.774  20.781  0.00  0.00    +0.000 A 
ATOM     22  C   UNL     1       2.710   5.952  19.870  0.00  0.00    +0.000 A 
ATOM     23  F   UNL     1       3.272   4.833  20.346  0.00  0.00    +0.000 F 
ATOM     24  C   UNL     1       2.833   6.327  18.539  0.00  0.00    +0.000 A 
ATOM     25  C   UNL     1       2.330   7.573  18.147  0.00  0.00    +0.000 A 
BRANCH  19  26
ATOM     26  S   UNL     1       1.068   9.974  18.525  0.00  0.00    +0.000 S 
ATOM     27  O   UNL     1       1.191  10.895  19.636  0.00  0.00    +0.000 OA
ATOM     28  O   UNL     1      -0.154   9.810  17.778  0.00  0.00    +0.000 OA
BRANCH  26  29
ATOM     29  N   UNL     1       2.245  10.382  17.402  0.00  0.00    +0.000 NA
ATOM     30  H   UNL     1       2.846  11.111  17.786  0.00  0.00    +0.000 HD
ATOM     31  H   UNL     1       1.835  10.633  16.502  0.00  0.00    +0.000 HD
ENDBRANCH  26  29
ENDBRANCH  19  26
ENDBRANCH   1  24
TORSDOF 4
ENDMDL
MODEL 2
REMARK VINA RESULT:      -7.5      0.589      1.130
REMARK  Name = 
REMARK  4 active torsions:
REMARK  status: ('A' for Active; 'I' for Inactive)
REMARK    1  A    between atoms: N_1  and  S_2
REMARK    2  A    between atoms: S_2  and  C_5
REMARK    3  A    between atoms: C_10  and  C_11
REMARK    4  A    between atoms: C_17  and  C_18
REMARK                            x       y       z     vdW  Elec       q    Type
REMARK                         _______ _______ _______ _____ _____    ______ ____
ROOT
ATOM      1  C   UNL     1       3.427   5.432  17.563  0.00  0.00    +0.000 C 
ATOM      2  O   UNL     1       2.911   4.343  17.315  0.00  0.00    +0.000 OA
ATOM      3  N   UNL     1       4.632   5.849  17.009  0.00  0.00    +0.000 N 
ATOM      4  C   UNL     1       5.255   5.018  15.970  0.00  0.00    +0.000 C 
ATOM      5  C   UNL     1       6.713   4.699  16.309  0.00  0.00    +0.000 C 
ATOM      6  C   UNL     1       7.510   5.965  16.616  0.00  0.00    +0.000 C 
ATOM      7  C   UNL     1       6.820   6.812  17.699  0.00  0.00    +0.000 C 
ATOM      8  C   UNL     1       5.367   7.097  17.268  0.00  0.00    +0.000 C 
ENDROOT
BRANCH   7   9
ATOM      9  C   UNL     1       7.568   8.090  17.959  0.00  0.00    +0.000 A 
ATOM     10  C   UNL     1       8.646   8.334  18.784  0.00  0.00    +0.000 A 
ATOM     11  C   UNL     1       9.008   9.697  18.657  0.00  0.00    +0.000 A 
ATOM     12  C   UNL     1      10.015  10.491  19.233  0.00  0.00    +0.000 A 
ATOM     13  C   UNL     1      10.116  11.837  18.866  0.00  0.00    +0.000 A 
ATOM     14  C   UNL     1       9.223  12.390  17.952  0.00  0.00    +0.000 A 
ATOM     15  C   UNL     1       8.205  11.621  17.376  0.00  0.00    +0.000 A 
ATOM     16  C   UNL     1       8.124  10.272  17.746  0.00  0.00    +0.000 A 
ATOM     17  N   UNL     1       7.252   9.283  17.341  0.00  0.00    +0.000 N 
ATOM     18  H   UNL     1       6.505   9.430  16.672  0.00  0.00    +0.000 HD
ENDBRANCH   7   9
BRANCH   1  24
ATOM     19  C   UNL     1       1.559   8.389  19.116  0.00  0.00    +0.000 A 
ATOM     20  C   UNL     1       1.413   7.965  20.426  0.00  0.00    +0.000 A 
ATOM     21  C   UNL     1       1.922   6.734  20.813  0.00  0.00    +0.000 A 
ATOM     22  C   UNL     1       2.579   5.912  19.880  0.00  0.00    +0.000 A 
ATOM     23  F   UNL     1       3.117   4.770  20.329  0.00  0.00    +0.000 F 
ATOM     24  C   UNL     1       2.697   6.308  18.555  0.00  0.00    +0.000 A 
ATOM     25  C   UNL     1       2.223   7.574  18.192  0.00  0.00    +0.000 A 
BRANCH  19  26
ATOM     26  S   UNL     1       1.028   9.999  18.627  0.00  0.00    +0.000 S 
ATOM     27  O   UNL     1       1.205  10.900  19.747  0.00  0.00    +0.000 OA
ATOM     28  O   UNL     1      -0.216   9.882  17.908  0.00  0.00    +0.000 OA
BRANCH  26  29
ATOM     29  N   UNL     1       2.189  10.387  17.481  0.00  0.00    +0.000 NA
ATOM     30  H   UNL     1       2.598  11.296  17.703  0.00  0.00    +0.000 HD
ATOM     31  H   UNL     1       1.814  10.338  16.534  0.00  0.00    +0.000 HD
ENDBRANCH  26  29
ENDBRANCH  19  26
ENDBRANCH   1  24
TORSDOF 4
ENDMDL
MODEL 3
REMARK VINA RESULT:      -7.5      4.266      6.866
REMARK  Name = 
REMARK  4 active torsions:
REMARK  status: ('A' for Active; 'I' for Inactive)
REMARK    1  A    between atoms: N_1  and  S_2
REMARK    2  A    between atoms: S_2  and  C_5
REMARK    3  A    between atoms: C_10  and  C_11
REMARK    4  A    between atoms: C_17  and  C_18
REMARK                            x       y       z     vdW  Elec       q    Type
REMARK                         _______ _______ _______ _____ _____    ______ ____
ROOT
ATOM      1  C   UNL     1       4.804   3.644  19.208  0.00  0.00    +0.000 C 
ATOM      2  O   UNL     1       4.984   2.430  19.131  0.00  0.00    +0.000 OA
ATOM      3  N   UNL     1       3.784   4.218  19.959  0.00  0.00    +0.000 N 
ATOM      4  C   UNL     1       2.965   3.350  20.816  0.00  0.00    +0.000 C 
ATOM      5  C   UNL     1       1.471   3.548  20.547  0.00  0.00    +0.000 C 
ATOM      6  C   UNL     1       1.073   5.019  20.637  0.00  0.00    +0.000 C 
ATOM      7  C   UNL     1       1.960   5.896  19.736  0.00  0.00    +0.000 C 
ATOM      8  C   UNL     1       3.441   5.643  20.086  0.00  0.00    +0.000 C 
ENDROOT
BRANCH   7   9
ATOM      9  C   UNL     1       1.613   7.352  19.871  0.00  0.00    +0.000 A 
ATOM     10  C   UNL     1       1.133   8.052  20.958  0.00  0.00    +0.000 A 
ATOM     11  C   UNL     1       0.994   9.412  20.589  0.00  0.00    +0.000 A 
ATOM     12  C   UNL     1       0.571  10.565  21.275  0.00  0.00    +0.000 A 
ATOM     13  C   UNL     1       0.574  11.794  20.608  0.00  0.00    +0.000 A 
ATOM     14  C   UNL     1       0.979  11.878  19.278  0.00  0.00    +0.000 A 
ATOM     15  C   UNL     1       1.392  10.741  18.574  0.00  0.00    +0.000 A 
ATOM     16  C   UNL     1       1.393   9.518  19.259  0.00  0.00    +0.000 A 
ATOM     17  N   UNL     1       1.756   8.255  18.837  0.00  0.00    +0.000 N 
ATOM     18  H   UNL     1       2.092   8.048  17.904  0.00  0.00    +0.000 HD
ENDBRANCH   7   9
BRANCH   1  24
ATOM     19  C   UNL     1       6.614   5.267  16.253  0.00  0.00    +0.000 A 
ATOM     20  C   UNL     1       7.536   6.070  16.903  0.00  0.00    +0.000 A 
ATOM     21  C   UNL     1       7.583   6.084  18.289  0.00  0.00    +0.000 A 
ATOM     22  C   UNL     1       6.694   5.292  19.037  0.00  0.00    +0.000 A 
ATOM     23  F   UNL     1       6.837   5.287  20.370  0.00  0.00    +0.000 F 
ATOM     24  C   UNL     1       5.739   4.513  18.399  0.00  0.00    +0.000 A 
ATOM     25  C   UNL     1       5.738   4.471  17.000  0.00  0.00    +0.000 A 
BRANCH  19  26
ATOM     26  S   UNL     1       6.614   5.140  14.493  0.00  0.00    +0.000 S 
ATOM     27  O   UNL     1       7.949   5.430  14.012  0.00  0.00    +0.000 OA
ATOM     28  O   UNL     1       5.438   5.796  13.978  0.00  0.00    +0.000 OA
BRANCH  26  29
ATOM     29  N   UNL     1       6.353   3.496  14.289  0.00  0.00    +0.000 NA
ATOM     30  H   UNL     1       5.760   3.147  15.043  0.00  0.00    +0.000 HD
ATOM     31  H   UNL     1       7.231   2.984  14.201  0.00  0.00    +0.000 HD
ENDBRANCH  26  29
ENDBRANCH  19  26
ENDBRANCH   1  24
TORSDOF 4
ENDMDL
MODEL 4
REMARK VINA RESULT:      -7.5      4.908      7.851
REMARK  Name = 
REMARK  4 active torsions:
REMARK  status: ('A' for Active; 'I' for Inactive)
REMARK    1  A    between atoms: N_1  and  S_2
REMARK    2  A    between atoms: S_2  and  C_5
REMARK    3  A    between atoms: C_10  and  C_11
REMARK    4  A    between atoms: C_17  and  C_18
REMARK                            x       y       z     vdW  Elec       q    Type
REMARK                         _______ _______ _______ _____ _____    ______ ____
ROOT
ATOM      1  C   UNL     1       9.703  13.573  21.265  0.00  0.00    +0.000 C 
ATOM      2  O   UNL     1      10.383  14.584  21.432  0.00  0.00    +0.000 OA
ATOM      3  N   UNL     1      10.164  12.445  20.597  0.00  0.00    +0.000 N 
ATOM      4  C   UNL     1      11.576  12.394  20.190  0.00  0.00    +0.000 C 
ATOM      5  C   UNL     1      11.717  12.061  18.703  0.00  0.00    +0.000 C 
ATOM      6  C   UNL     1      10.945  10.796  18.334  0.00  0.00    +0.000 C 
ATOM      7  C   UNL     1       9.478  10.882  18.786  0.00  0.00    +0.000 C 
ATOM      8  C   UNL     1       9.432  11.205  20.293  0.00  0.00    +0.000 C 
ENDROOT
BRANCH   7   9
ATOM      9  C   UNL     1       8.731   9.614  18.481  0.00  0.00    +0.000 A 
ATOM     10  C   UNL     1       7.777   9.356  17.519  0.00  0.00    +0.000 A 
ATOM     11  C   UNL     1       7.398   7.996  17.616  0.00  0.00    +0.000 A 
ATOM     12  C   UNL     1       6.496   7.186  16.903  0.00  0.00    +0.000 A 
ATOM     13  C   UNL     1       6.372   5.837  17.248  0.00  0.00    +0.000 A 
ATOM     14  C   UNL     1       7.121   5.301  18.292  0.00  0.00    +0.000 A 
ATOM     15  C   UNL     1       8.015   6.092  19.023  0.00  0.00    +0.000 A 
ATOM     16  C   UNL     1       8.136   7.439  18.659  0.00  0.00    +0.000 A 
ATOM     17  N   UNL     1       8.932   8.440  19.177  0.00  0.00    +0.000 N 
ATOM     18  H   UNL     1       9.577   8.304  19.948  0.00  0.00    +0.000 HD
ENDBRANCH   7   9
BRANCH   1  24
ATOM     19  C   UNL     1       6.614  12.968  23.443  0.00  0.00    +0.000 A 
ATOM     20  C   UNL     1       5.641  13.652  22.734  0.00  0.00    +0.000 A 
ATOM     21  C   UNL     1       5.973  14.299  21.554  0.00  0.00    +0.000 A 
ATOM     22  C   UNL     1       7.295  14.270  21.077  0.00  0.00    +0.000 A 
ATOM     23  F   UNL     1       7.541  14.848  19.892  0.00  0.00    +0.000 F 
ATOM     24  C   UNL     1       8.289  13.622  21.797  0.00  0.00    +0.000 A 
ATOM     25  C   UNL     1       7.928  12.931  22.960  0.00  0.00    +0.000 A 
BRANCH  19  26
ATOM     26  S   UNL     1       6.194  12.037  24.881  0.00  0.00    +0.000 S 
ATOM     27  O   UNL     1       7.384  11.883  25.692  0.00  0.00    +0.000 OA
ATOM     28  O   UNL     1       5.364  10.925  24.492  0.00  0.00    +0.000 OA
BRANCH  26  29
ATOM     29  N   UNL     1       5.181  13.113  25.676  0.00  0.00    +0.000 NA
ATOM     30  H   UNL     1       4.467  13.450  25.030  0.00  0.00    +0.000 HD
ATOM     31  H   UNL     1       5.707  13.865  26.120  0.00  0.00    +0.000 HD
ENDBRANCH  26  29
ENDBRANCH  19  26
ENDBRANCH   1  24
TORSDOF 4
ENDMDL
MODEL 5
REMARK VINA RESULT:      -7.5      4.305      6.874
REMARK  Name = 
REMARK  4 active torsions:
REMARK  status: ('A' for Active; 'I' for Inactive)
REMARK    1  A    between atoms: N_1  and  S_2
REMARK    2  A    between atoms: S_2  and  C_5
REMARK    3  A    between atoms: C_10  and  C_11
REMARK    4  A    between atoms: C_17  and  C_18
REMARK                            x       y       z     vdW  Elec       q    Type
REMARK                         _______ _______ _______ _____ _____    ______ ____
ROOT
ATOM      1  C   UNL     1       4.796   3.728  19.216  0.00  0.00    +0.000 C 
ATOM      2  O   UNL     1       4.962   2.510  19.180  0.00  0.00    +0.000 OA
ATOM      3  N   UNL     1       3.774   4.338  19.934  0.00  0.00    +0.000 N 
ATOM      4  C   UNL     1       2.933   3.508  20.808  0.00  0.00    +0.000 C 
ATOM      5  C   UNL     1       1.446   3.715  20.514  0.00  0.00    +0.000 C 
ATOM      6  C   UNL     1       1.065   5.194  20.552  0.00  0.00    +0.000 C 
ATOM      7  C   UNL     1       1.974   6.030  19.635  0.00  0.00    +0.000 C 
ATOM      8  C   UNL     1       3.447   5.771  20.012  0.00  0.00    +0.000 C 
ENDROOT
BRANCH   7   9
ATOM      9  C   UNL     1       1.644   7.494  19.718  0.00  0.00    +0.000 A 
ATOM     10  C   UNL     1       1.725   8.477  18.754  0.00  0.00    +0.000 A 
ATOM     11  C   UNL     1       1.270   9.695  19.316  0.00  0.00    +0.000 A 
ATOM     12  C   UNL     1       1.119  10.999  18.812  0.00  0.00    +0.000 A 
ATOM     13  C   UNL     1       0.607  11.996  19.647  0.00  0.00    +0.000 A 
ATOM     14  C   UNL     1       0.261  11.709  20.965  0.00  0.00    +0.000 A 
ATOM     15  C   UNL     1       0.416  10.421  21.490  0.00  0.00    +0.000 A 
ATOM     16  C   UNL     1       0.921   9.429  20.638  0.00  0.00    +0.000 A 
ATOM     17  N   UNL     1       1.164   8.090  20.866  0.00  0.00    +0.000 N 
ATOM     18  H   UNL     1       0.990   7.630  21.752  0.00  0.00    +0.000 HD
ENDBRANCH   7   9
BRANCH   1  24
ATOM     19  C   UNL     1       6.640   5.257  16.232  0.00  0.00    +0.000 A 
ATOM     20  C   UNL     1       7.585   6.044  16.867  0.00  0.00    +0.000 A 
ATOM     21  C   UNL     1       7.638   6.077  18.252  0.00  0.00    +0.000 A 
ATOM     22  C   UNL     1       6.730   5.321  19.015  0.00  0.00    +0.000 A 
ATOM     23  F   UNL     1       6.876   5.332  20.347  0.00  0.00    +0.000 F 
ATOM     24  C   UNL     1       5.752   4.558  18.391  0.00  0.00    +0.000 A 
ATOM     25  C   UNL     1       5.744   4.496  16.993  0.00  0.00    +0.000 A 
BRANCH  19  26
ATOM     26  S   UNL     1       6.630   5.104  14.474  0.00  0.00    +0.000 S 
ATOM     27  O   UNL     1       7.965   5.378  13.983  0.00  0.00    +0.000 OA
ATOM     28  O   UNL     1       5.457   5.760  13.954  0.00  0.00    +0.000 OA
BRANCH  26  29
ATOM     29  N   UNL     1       6.357   3.458  14.295  0.00  0.00    +0.000 NA
ATOM     30  H   UNL     1       5.652   3.154  14.967  0.00  0.00    +0.000 HD
ATOM     31  H   UNL     1       7.224   2.925  14.357  0.00  0.00    +0.000 HD
ENDBRANCH  26  29
ENDBRANCH  19  26
ENDBRANCH   1  24
TORSDOF 4
ENDMDL
MODEL 6
REMARK VINA RESULT:      -7.3      5.349      8.285
REMARK  Name = 
REMARK  4 active torsions:
REMARK  status: ('A' for Active; 'I' for Inactive)
REMARK    1  A    between atoms: N_1  and  S_2
REMARK    2  A    between atoms: S_2  and  C_5
REMARK    3  A    between atoms: C_10  and  C_11
REMARK    4  A    between atoms: C_17  and  C_18
REMARK                            x       y       z     vdW  Elec       q    Type
REMARK                         _______ _______ _______ _____ _____    ______ ____
ROOT
ATOM      1  C   UNL     1       0.436  12.909  21.239  0.00  0.00    +0.000 C 
ATOM      2  O   UNL     1      -0.025  13.777  21.979  0.00  0.00    +0.000 OA
ATOM      3  N   UNL     1       0.047  11.576  21.292  0.00  0.00    +0.000 N 
ATOM      4  C   UNL     1      -1.067  11.200  22.173  0.00  0.00    +0.000 C 
ATOM      5  C   UNL     1      -0.680  10.048  23.103  0.00  0.00    +0.000 C 
ATOM      6  C   UNL     1      -0.112   8.864  22.326  0.00  0.00    +0.000 C 
ATOM      7  C   UNL     1       1.043   9.298  21.408  0.00  0.00    +0.000 C 
ATOM      8  C   UNL     1       0.561  10.447  20.499  0.00  0.00    +0.000 C 
ENDROOT
BRANCH   7   9
ATOM      9  C   UNL     1       1.564   8.147  20.593  0.00  0.00    +0.000 A 
ATOM     10  C   UNL     1       2.057   8.123  19.305  0.00  0.00    +0.000 A 
ATOM     11  C   UNL     1       2.451   6.798  19.000  0.00  0.00    +0.000 A 
ATOM     12  C   UNL     1       3.021   6.192  17.867  0.00  0.00    +0.000 A 
ATOM     13  C   UNL     1       3.317   4.826  17.901  0.00  0.00    +0.000 A 
ATOM     14  C   UNL     1       3.040   4.069  19.037  0.00  0.00    +0.000 A 
ATOM     15  C   UNL     1       2.461   4.650  20.171  0.00  0.00    +0.000 A 
ATOM     16  C   UNL     1       2.180   6.022  20.125  0.00  0.00    +0.000 A 
ATOM     17  N   UNL     1       1.633   6.857  21.078  0.00  0.00    +0.000 N 
ATOM     18  H   UNL     1       1.347   6.548  22.000  0.00  0.00    +0.000 HD
ENDBRANCH   7   9
BRANCH   1  24
ATOM     19  C   UNL     1       3.687  14.340  19.814  0.00  0.00    +0.000 A 
ATOM     20  C   UNL     1       3.449  14.260  18.453  0.00  0.00    +0.000 A 
ATOM     21  C   UNL     1       2.242  13.756  17.992  0.00  0.00    +0.000 A 
ATOM     22  C   UNL     1       1.262  13.319  18.900  0.00  0.00    +0.000 A 
ATOM     23  F   UNL     1       0.087  12.913  18.400  0.00  0.00    +0.000 F 
ATOM     24  C   UNL     1       1.503  13.357  20.267  0.00  0.00    +0.000 A 
ATOM     25  C   UNL     1       2.705  13.915  20.717  0.00  0.00    +0.000 A 
BRANCH  19  26
ATOM     26  S   UNL     1       5.162  15.088  20.427  0.00  0.00    +0.000 S 
ATOM     27  O   UNL     1       6.201  14.940  19.428  0.00  0.00    +0.000 OA
ATOM     28  O   UNL     1       5.343  14.705  21.805  0.00  0.00    +0.000 OA
BRANCH  26  29
ATOM     29  N   UNL     1       4.718  16.705  20.452  0.00  0.00    +0.000 NA
ATOM     30  H   UNL     1       4.046  16.887  19.705  0.00  0.00    +0.000 HD
ATOM     31  H   UNL     1       5.531  17.319  20.417  0.00  0.00    +0.000 HD
ENDBRANCH  26  29
ENDBRANCH  19  26
ENDBRANCH   1  24
TORSDOF 4
ENDMDL
MODEL 7
REMARK VINA RESULT:      -7.3      4.634      7.482
REMARK  Name = 
REMARK  4 active torsions:
REMARK  status: ('A' for Active; 'I' for Inactive)
REMARK    1  A    between atoms: N_1  and  S_2
REMARK    2  A    between atoms: S_2  and  C_5
REMARK    3  A    between atoms: C_10  and  C_11
REMARK    4  A    between atoms: C_17  and  C_18
REMARK                            x       y       z     vdW  Elec       q    Type
REMARK                         _______ _______ _______ _____ _____    ______ ____
ROOT
ATOM      1  C   UNL     1       9.561  13.570  21.147  0.00  0.00    +0.000 C 
ATOM      2  O   UNL     1      10.151  14.643  21.259  0.00  0.00    +0.000 OA
ATOM      3  N   UNL     1      10.049  12.506  20.397  0.00  0.00    +0.000 N 
ATOM      4  C   UNL     1      11.398  12.608  19.823  0.00  0.00    +0.000 C 
ATOM      5  C   UNL     1      11.390  12.314  18.321  0.00  0.00    +0.000 C 
ATOM      6  C   UNL     1      10.710  10.982  18.012  0.00  0.00    +0.000 C 
ATOM      7  C   UNL     1       9.308  10.909  18.638  0.00  0.00    +0.000 C 
ATOM      8  C   UNL     1       9.413  11.202  20.149  0.00  0.00    +0.000 C 
ENDROOT
BRANCH   7   9
ATOM      9  C   UNL     1       8.661   9.575  18.389  0.00  0.00    +0.000 A 
ATOM     10  C   UNL     1       7.786   9.186  17.397  0.00  0.00    +0.000 A 
ATOM     11  C   UNL     1       7.486   7.814  17.577  0.00  0.00    +0.000 A 
ATOM     12  C   UNL     1       6.682   6.896  16.877  0.00  0.00    +0.000 A 
ATOM     13  C   UNL     1       6.620   5.571  17.317  0.00  0.00    +0.000 A 
ATOM     14  C   UNL     1       7.335   5.163  18.441  0.00  0.00    +0.000 A 
ATOM     15  C   UNL     1       8.132   6.062  19.158  0.00  0.00    +0.000 A 
ATOM     16  C   UNL     1       8.191   7.385  18.699  0.00  0.00    +0.000 A 
ATOM     17  N   UNL     1       8.890   8.471  19.184  0.00  0.00    +0.000 N 
ATOM     18  H   UNL     1       9.493   8.435  19.998  0.00  0.00    +0.000 HD
ENDBRANCH   7   9
BRANCH   1  24
ATOM     19  C   UNL     1       5.899  14.147  22.095  0.00  0.00    +0.000 A 
ATOM     20  C   UNL     1       5.767  13.321  23.199  0.00  0.00    +0.000 A 
ATOM     21  C   UNL     1       6.856  12.587  23.645  0.00  0.00    +0.000 A 
ATOM     22  C   UNL     1       8.090  12.671  22.976  0.00  0.00    +0.000 A 
ATOM     23  F   UNL     1       9.126  11.998  23.497  0.00  0.00    +0.000 F 
ATOM     24  C   UNL     1       8.225  13.464  21.845  0.00  0.00    +0.000 A 
ATOM     25  C   UNL     1       7.131  14.238  21.438  0.00  0.00    +0.000 A 
BRANCH  19  26
ATOM     26  S   UNL     1       4.565  15.181  21.582  0.00  0.00    +0.000 S 
ATOM     27  O   UNL     1       3.981  14.617  20.382  0.00  0.00    +0.000 OA
ATOM     28  O   UNL     1       4.980  16.559  21.675  0.00  0.00    +0.000 OA
BRANCH  26  29
ATOM     29  N   UNL     1       3.472  14.943  22.832  0.00  0.00    +0.000 NA
ATOM     30  H   UNL     1       3.073  14.006  22.763  0.00  0.00    +0.000 HD
ATOM     31  H   UNL     1       2.766  15.678  22.859  0.00  0.00    +0.000 HD
ENDBRANCH  26  29
ENDBRANCH  19  26
ENDBRANCH   1  24
TORSDOF 4
ENDMDL
MODEL 8
REMARK VINA RESULT:      -7.1      5.058      8.306
REMARK  Name = 
REMARK  4 active torsions:
REMARK  status: ('A' for Active; 'I' for Inactive)
REMARK    1  A    between atoms: N_1  and  S_2
REMARK    2  A    between atoms: S_2  and  C_5
REMARK    3  A    between atoms: C_10  and  C_11
REMARK    4  A    between atoms: C_17  and  C_18
REMARK                            x       y       z     vdW  Elec       q    Type
REMARK                         _______ _______ _______ _____ _____    ______ ____
ROOT
ATOM      1  C   UNL     1       1.011  14.216  19.158  0.00  0.00    +0.000 C 
ATOM      2  O   UNL     1       0.273  15.177  19.370  0.00  0.00    +0.000 OA
ATOM      3  N   UNL     1       0.551  12.989  18.692  0.00  0.00    +0.000 N 
ATOM      4  C   UNL     1      -0.860  12.868  18.298  0.00  0.00    +0.000 C 
ATOM      5  C   UNL     1      -1.536  11.686  18.996  0.00  0.00    +0.000 C 
ATOM      6  C   UNL     1      -0.750  10.392  18.800  0.00  0.00    +0.000 C 
ATOM      7  C   UNL     1       0.722  10.562  19.212  0.00  0.00    +0.000 C 
ATOM      8  C   UNL     1       1.324  11.761  18.451  0.00  0.00    +0.000 C 
ENDROOT
BRANCH   7   9
ATOM      9  C   UNL     1       1.513   9.309  18.960  0.00  0.00    +0.000 A 
ATOM     10  C   UNL     1       2.310   8.964  17.888  0.00  0.00    +0.000 A 
ATOM     11  C   UNL     1       2.866   7.685  18.136  0.00  0.00    +0.000 A 
ATOM     12  C   UNL     1       3.743   6.853  17.419  0.00  0.00    +0.000 A 
ATOM     13  C   UNL     1       4.123   5.626  17.971  0.00  0.00    +0.000 A 
ATOM     14  C   UNL     1       3.632   5.224  19.210  0.00  0.00    +0.000 A 
ATOM     15  C   UNL     1       2.747   6.032  19.935  0.00  0.00    +0.000 A 
ATOM     16  C   UNL     1       2.384   7.263  19.373  0.00  0.00    +0.000 A 
ATOM     17  N   UNL     1       1.556   8.258  19.853  0.00  0.00    +0.000 N 
ATOM     18  H   UNL     1       1.075   8.208  20.743  0.00  0.00    +0.000 HD
ENDBRANCH   7   9
BRANCH   1  24
ATOM     19  C   UNL     1       4.309  14.535  21.072  0.00  0.00    +0.000 A 
ATOM     20  C   UNL     1       5.187  14.864  20.053  0.00  0.00    +0.000 A 
ATOM     21  C   UNL     1       4.719  14.993  18.754  0.00  0.00    +0.000 A 
ATOM     22  C   UNL     1       3.359  14.783  18.465  0.00  0.00    +0.000 A 
ATOM     23  F   UNL     1       2.951  14.996  17.206  0.00  0.00    +0.000 F 
ATOM     24  C   UNL     1       2.476  14.414  19.470  0.00  0.00    +0.000 A 
ATOM     25  C   UNL     1       2.953  14.338  20.784  0.00  0.00    +0.000 A 
BRANCH  19  26
ATOM     26  S   UNL     1       4.855  14.484  22.749  0.00  0.00    +0.000 S 
ATOM     27  O   UNL     1       5.198  13.115  23.078  0.00  0.00    +0.000 OA
ATOM     28  O   UNL     1       3.965  15.281  23.554  0.00  0.00    +0.000 OA
BRANCH  26  29
ATOM     29  N   UNL     1       6.287  15.350  22.648  0.00  0.00    +0.000 NA
ATOM     30  H   UNL     1       6.671  15.268  21.706  0.00  0.00    +0.000 HD
ATOM     31  H   UNL     1       6.947  15.071  23.374  0.00  0.00    +0.000 HD
ENDBRANCH  26  29
ENDBRANCH  19  26
ENDBRANCH   1  24
TORSDOF 4
ENDMDL
MODEL 9
REMARK VINA RESULT:      -7.0      6.378      9.346
REMARK  Name = 
REMARK  4 active torsions:
REMARK  status: ('A' for Active; 'I' for Inactive)
REMARK    1  A    between atoms: N_1  and  S_2
REMARK    2  A    between atoms: S_2  and  C_5
REMARK    3  A    between atoms: C_10  and  C_11
REMARK    4  A    between atoms: C_17  and  C_18
REMARK                            x       y       z     vdW  Elec       q    Type
REMARK                         _______ _______ _______ _____ _____    ______ ____
ROOT
ATOM      1  C   UNL     1      -1.574  11.575  22.828  0.00  0.00    +0.000 C 
ATOM      2  O   UNL     1      -2.368  11.007  23.576  0.00  0.00    +0.000 OA
ATOM      3  N   UNL     1      -1.576  12.949  22.616  0.00  0.00    +0.000 N 
ATOM      4  C   UNL     1      -2.471  13.787  23.427  0.00  0.00    +0.000 C 
ATOM      5  C   UNL     1      -3.333  14.696  22.547  0.00  0.00    +0.000 C 
ATOM      6  C   UNL     1      -2.484  15.505  21.570  0.00  0.00    +0.000 C 
ATOM      7  C   UNL     1      -1.553  14.595  20.750  0.00  0.00    +0.000 C 
ATOM      8  C   UNL     1      -0.715  13.730  21.714  0.00  0.00    +0.000 C 
ENDROOT
BRANCH   7   9
ATOM      9  C   UNL     1      -0.670  15.393  19.832  0.00  0.00    +0.000 A 
ATOM     10  C   UNL     1       0.686  15.295  19.600  0.00  0.00    +0.000 A 
ATOM     11  C   UNL     1       1.043  16.253  18.621  0.00  0.00    +0.000 A 
ATOM     12  C   UNL     1       2.256  16.595  17.995  0.00  0.00    +0.000 A 
ATOM     13  C   UNL     1       2.261  17.602  17.026  0.00  0.00    +0.000 A 
ATOM     14  C   UNL     1       1.086  18.269  16.689  0.00  0.00    +0.000 A 
ATOM     15  C   UNL     1      -0.129  17.953  17.309  0.00  0.00    +0.000 A 
ATOM     16  C   UNL     1      -0.120  16.935  18.271  0.00  0.00    +0.000 A 
ATOM     17  N   UNL     1      -1.148  16.405  19.025  0.00  0.00    +0.000 N 
ATOM     18  H   UNL     1      -2.110  16.718  18.963  0.00  0.00    +0.000 HD
ENDBRANCH   7   9
BRANCH   1  24
ATOM     19  C   UNL     1       0.431   9.912  20.026  0.00  0.00    +0.000 A 
ATOM     20  C   UNL     1       1.174   8.983  20.733  0.00  0.00    +0.000 A 
ATOM     21  C   UNL     1       1.025   8.883  22.109  0.00  0.00    +0.000 A 
ATOM     22  C   UNL     1       0.129   9.727  22.788  0.00  0.00    +0.000 A 
ATOM     23  F   UNL     1      -0.030   9.534  24.105  0.00  0.00    +0.000 F 
ATOM     24  C   UNL     1      -0.594  10.689  22.096  0.00  0.00    +0.000 A 
ATOM     25  C   UNL     1      -0.470  10.743  20.703  0.00  0.00    +0.000 A 
BRANCH  19  26
ATOM     26  S   UNL     1       0.513   9.976  18.264  0.00  0.00    +0.000 S 
ATOM     27  O   UNL     1      -0.834  10.112  17.747  0.00  0.00    +0.000 OA
ATOM     28  O   UNL     1       1.428   8.964  17.802  0.00  0.00    +0.000 OA
BRANCH  26  29
ATOM     29  N   UNL     1       1.290  11.444  18.031  0.00  0.00    +0.000 NA
ATOM     30  H   UNL     1       1.883  11.648  18.836  0.00  0.00    +0.000 HD
ATOM     31  H   UNL     1       0.628  12.191  17.822  0.00  0.00    +0.000 HD
ENDBRANCH  26  29
ENDBRANCH  19  26
ENDBRANCH   1  24
TORSDOF 4
ENDMDL
