MODEL 1
REMARK VINA RESULT:      -8.1      0.000      0.000
REMARK  Name = 
REMARK  8 active torsions:
REMARK  status: ('A' for Active; 'I' for Inactive)
REMARK    1  A    between atoms: C_1  and  C_2
REMARK    2  A    between atoms: C_2  and  C_3
REMARK    3  A    between atoms: C_2  and  C_4
REMARK    4  A    between atoms: C_4  and  C_5
REMARK    5  A    between atoms: C_7  and  N_8
REMARK    6  A    between atoms: C_15  and  C_16
REMARK    7  A    between atoms: C_16  and  C_17
REMARK    8  A    between atoms: C_16  and  C_18
REMARK                            x       y       z     vdW  Elec       q    Type
REMARK                         _______ _______ _______ _____ _____    ______ ____
ROOT
ATOM      1  N   UNL     1       2.324   6.838  19.243  0.00  0.00    +0.000 N 
ATOM      2  C   UNL     1       3.330   6.967  18.198  0.00  0.00    +0.000 C 
ATOM      3  C   UNL     1       3.687   5.546  17.894  0.00  0.00    +0.000 A 
ATOM      4  C   UNL     1       2.930   4.700  18.705  0.00  0.00    +0.000 A 
ATOM      5  C   UNL     1       3.011   3.323  18.657  0.00  0.00    +0.000 A 
ATOM      6  C   UNL     1       3.904   2.774  17.746  0.00  0.00    +0.000 A 
ATOM      7  C   UNL     1       4.686   3.606  16.925  0.00  0.00    +0.000 A 
ATOM      8  C   UNL     1       4.598   5.015  16.984  0.00  0.00    +0.000 A 
ATOM      9  C   UNL     1       2.079   5.511  19.567  0.00  0.00    +0.000 C 
ATOM     10  O   UNL     1       1.307   5.019  20.380  0.00  0.00    +0.000 OA
ENDROOT
BRANCH   1  13
ATOM     11  C   UNL     1       0.518  10.055  19.767  0.00  0.00    +0.000 A 
ATOM     12  C   UNL     1       1.164   8.981  19.141  0.00  0.00    +0.000 A 
ATOM     13  C   UNL     1       1.750   7.953  19.889  0.00  0.00    +0.000 A 
ATOM     14  C   UNL     1       1.721   8.026  21.285  0.00  0.00    +0.000 A 
ATOM     15  C   UNL     1       1.140   9.122  21.919  0.00  0.00    +0.000 A 
ATOM     16  C   UNL     1       0.539  10.117  21.159  0.00  0.00    +0.000 A 
ATOM     17  F   UNL     1      -0.059  11.134  21.792  0.00  0.00    +0.000 F 
BRANCH  11  18
ATOM     18  C   UNL     1      -0.226  11.082  18.947  0.00  0.00    +0.000 C 
BRANCH  18  20
ATOM     19  C   UNL     1      -2.606  11.896  18.870  0.00  0.00    +0.000 C 
ATOM     20  C   UNL     1      -1.686  10.696  18.652  0.00  0.00    +0.000 C 
ATOM     21  C   UNL     1      -1.855  10.172  17.222  0.00  0.00    +0.000 C 
ENDBRANCH  18  20
ENDBRANCH  11  18
ENDBRANCH   1  13
BRANCH   8  22
ATOM     22  C   UNL     1       5.463   5.891  16.095  0.00  0.00    +0.000 C 
ATOM     23  C   UNL     1       6.622   6.502  16.889  0.00  0.00    +0.000 C 
ATOM     24  C   UNL     1       5.990   5.099  14.897  0.00  0.00    +0.000 C 
ATOM     25  F   UNL     1       4.759   6.948  15.575  0.00  0.00    +0.000 F 
ENDBRANCH   8  22
TORSDOF 4
ENDMDL
MODEL 2
REMARK VINA RESULT:      -8.0      3.769      8.012
REMARK  Name = 
REMARK  8 active torsions:
REMARK  status: ('A' for Active; 'I' for Inactive)
REMARK    1  A    between atoms: C_1  and  C_2
REMARK    2  A    between atoms: C_2  and  C_3
REMARK    3  A    between atoms: C_2  and  C_4
REMARK    4  A    between atoms: C_4  and  C_5
REMARK    5  A    between atoms: C_7  and  N_8
REMARK    6  A    between atoms: C_15  and  C_16
REMARK    7  A    between atoms: C_16  and  C_17
REMARK    8  A    between atoms: C_16  and  C_18
REMARK                            x       y       z     vdW  Elec       q    Type
REMARK                         _______ _______ _______ _____ _____    ______ ____
ROOT
ATOM      1  N   UNL     1       4.357   5.160  17.030  0.00  0.00    +0.000 N 
ATOM      2  C   UNL     1       3.745   4.062  17.765  0.00  0.00    +0.000 C 
ATOM      3  C   UNL     1       2.946   4.763  18.818  0.00  0.00    +0.000 A 
ATOM      4  C   UNL     1       3.103   6.142  18.669  0.00  0.00    +0.000 A 
ATOM      5  C   UNL     1       2.480   7.072  19.477  0.00  0.00    +0.000 A 
ATOM      6  C   UNL     1       1.661   6.585  20.487  0.00  0.00    +0.000 A 
ATOM      7  C   UNL     1       1.496   5.199  20.664  0.00  0.00    +0.000 A 
ATOM      8  C   UNL     1       2.140   4.255  19.834  0.00  0.00    +0.000 A 
ATOM      9  C   UNL     1       4.002   6.396  17.551  0.00  0.00    +0.000 C 
ATOM     10  O   UNL     1       4.312   7.528  17.199  0.00  0.00    +0.000 OA
ENDROOT
BRANCH   1  13
ATOM     11  C   UNL     1       5.690   4.534  13.607  0.00  0.00    +0.000 A 
ATOM     12  C   UNL     1       4.804   4.661  14.684  0.00  0.00    +0.000 A 
ATOM     13  C   UNL     1       5.268   4.954  15.973  0.00  0.00    +0.000 A 
ATOM     14  C   UNL     1       6.644   5.080  16.187  0.00  0.00    +0.000 A 
ATOM     15  C   UNL     1       7.539   4.890  15.136  0.00  0.00    +0.000 A 
ATOM     16  C   UNL     1       7.056   4.629  13.861  0.00  0.00    +0.000 A 
ATOM     17  F   UNL     1       7.934   4.502  12.857  0.00  0.00    +0.000 F 
BRANCH  11  18
ATOM     18  C   UNL     1       5.163   4.354  12.202  0.00  0.00    +0.000 C 
BRANCH  18  20
ATOM     19  C   UNL     1       3.544   2.988  10.843  0.00  0.00    +0.000 C 
ATOM     20  C   UNL     1       4.624   2.939  11.923  0.00  0.00    +0.000 C 
ATOM     21  C   UNL     1       5.740   1.983  11.491  0.00  0.00    +0.000 C 
ENDBRANCH  18  20
ENDBRANCH  11  18
ENDBRANCH   1  13
BRANCH   8  22
ATOM     22  C   UNL     1       1.956   2.764  20.054  0.00  0.00    +0.000 C 
ATOM     23  C   UNL     1       1.508   2.473  21.489  0.00  0.00    +0.000 C 
ATOM     24  C   UNL     1       0.956   2.185  19.050  0.00  0.00    +0.000 C 
ATOM     25  F   UNL     1       3.125   2.069  19.872  0.00  0.00    +0.000 F 
ENDBRANCH   8  22
TORSDOF 4
ENDMDL
MODEL 3
REMARK VINA RESULT:      -8.0      2.224      3.523
REMARK  Name = 
REMARK  8 active torsions:
REMARK  status: ('A' for Active; 'I' for Inactive)
REMARK    1  A    between atoms: C_1  and  C_2
REMARK    2  A    between atoms: C_2  and  C_3
REMARK    3  A    between atoms: C_2  and  C_4
REMARK    4  A    between atoms: C_4  and  C_5
REMARK    5  A    between atoms: C_7  and  N_8
REMARK    6  A    between atoms: C_15  and  C_16
REMARK    7  A    between atoms: C_16  and  C_17
REMARK    8  A    between atoms: C_16  and  C_18
REMARK                            x       y       z     vdW  Elec       q    Type
REMARK                         _______ _______ _______ _____ _____    ______ ____
ROOT
ATOM      1  N   UNL     1       1.759   8.205  19.244  0.00  0.00    +0.000 N 
ATOM      2  C   UNL     1       1.701   6.957  19.991  0.00  0.00    +0.000 C 
ATOM      3  C   UNL     1       2.653   6.073  19.248  0.00  0.00    +0.000 A 
ATOM      4  C   UNL     1       3.196   6.783  18.177  0.00  0.00    +0.000 A 
ATOM      5  C   UNL     1       4.124   6.254  17.303  0.00  0.00    +0.000 A 
ATOM      6  C   UNL     1       4.521   4.941  17.520  0.00  0.00    +0.000 A 
ATOM      7  C   UNL     1       3.979   4.201  18.587  0.00  0.00    +0.000 A 
ATOM      8  C   UNL     1       3.027   4.750  19.474  0.00  0.00    +0.000 A 
ATOM      9  C   UNL     1       2.625   8.124  18.163  0.00  0.00    +0.000 C 
ATOM     10  O   UNL     1       2.932   8.962  17.323  0.00  0.00    +0.000 OA
ENDROOT
BRANCH   1  13
ATOM     11  C   UNL     1      -0.724  10.960  18.886  0.00  0.00    +0.000 A 
ATOM     12  C   UNL     1       0.145   9.907  18.574  0.00  0.00    +0.000 A 
ATOM     13  C   UNL     1       0.950   9.318  19.557  0.00  0.00    +0.000 A 
ATOM     14  C   UNL     1       0.909   9.820  20.861  0.00  0.00    +0.000 A 
ATOM     15  C   UNL     1       0.097  10.911  21.168  0.00  0.00    +0.000 A 
ATOM     16  C   UNL     1      -0.714  11.462  20.185  0.00  0.00    +0.000 A 
ATOM     17  F   UNL     1      -1.525  12.475  20.517  0.00  0.00    +0.000 F 
BRANCH  11  18
ATOM     18  C   UNL     1      -1.683  11.492  17.846  0.00  0.00    +0.000 C 
BRANCH  18  20
ATOM     19  C   UNL     1      -3.390   9.649  17.688  0.00  0.00    +0.000 C 
ATOM     20  C   UNL     1      -2.284  10.398  16.945  0.00  0.00    +0.000 C 
ATOM     21  C   UNL     1      -2.843  10.981  15.643  0.00  0.00    +0.000 C 
ENDBRANCH  18  20
ENDBRANCH  11  18
ENDBRANCH   1  13
BRANCH   8  22
ATOM     22  C   UNL     1       2.447   3.926  20.610  0.00  0.00    +0.000 C 
ATOM     23  C   UNL     1       0.980   3.578  20.342  0.00  0.00    +0.000 C 
ATOM     24  C   UNL     1       3.271   2.655  20.834  0.00  0.00    +0.000 C 
ATOM     25  F   UNL     1       2.466   4.608  21.801  0.00  0.00    +0.000 F 
ENDBRANCH   8  22
TORSDOF 4
ENDMDL
MODEL 4
REMARK VINA RESULT:      -7.8      0.958      1.527
REMARK  Name = 
REMARK  8 active torsions:
REMARK  status: ('A' for Active; 'I' for Inactive)
REMARK    1  A    between atoms: C_1  and  C_2
REMARK    2  A    between atoms: C_2  and  C_3
REMARK    3  A    between atoms: C_2  and  C_4
REMARK    4  A    between atoms: C_4  and  C_5
REMARK    5  A    between atoms: C_7  and  N_8
REMARK    6  A    between atoms: C_15  and  C_16
REMARK    7  A    between atoms: C_16  and  C_17
REMARK    8  A    between atoms: C_16  and  C_18
REMARK                            x       y       z     vdW  Elec       q    Type
REMARK                         _______ _______ _______ _____ _____    ______ ____
ROOT
ATOM      1  N   UNL     1       2.323   6.909  19.215  0.00  0.00    +0.000 N 
ATOM      2  C   UNL     1       3.330   7.015  18.169  0.00  0.00    +0.000 C 
ATOM      3  C   UNL     1       3.663   5.587  17.873  0.00  0.00    +0.000 A 
ATOM      4  C   UNL     1       2.894   4.758  18.691  0.00  0.00    +0.000 A 
ATOM      5  C   UNL     1       2.953   3.380  18.652  0.00  0.00    +0.000 A 
ATOM      6  C   UNL     1       3.835   2.810  17.743  0.00  0.00    +0.000 A 
ATOM      7  C   UNL     1       4.629   3.624  16.916  0.00  0.00    +0.000 A 
ATOM      8  C   UNL     1       4.564   5.035  16.965  0.00  0.00    +0.000 A 
ATOM      9  C   UNL     1       2.057   5.588  19.548  0.00  0.00    +0.000 C 
ATOM     10  O   UNL     1       1.278   5.114  20.366  0.00  0.00    +0.000 OA
ENDROOT
BRANCH   1  13
ATOM     11  C   UNL     1       0.770  10.258  19.716  0.00  0.00    +0.000 A 
ATOM     12  C   UNL     1       1.396   9.163  19.109  0.00  0.00    +0.000 A 
ATOM     13  C   UNL     1       1.768   8.037  19.855  0.00  0.00    +0.000 A 
ATOM     14  C   UNL     1       1.543   8.030  21.234  0.00  0.00    +0.000 A 
ATOM     15  C   UNL     1       0.981   9.142  21.860  0.00  0.00    +0.000 A 
ATOM     16  C   UNL     1       0.593  10.236  21.098  0.00  0.00    +0.000 A 
ATOM     17  F   UNL     1       0.007  11.271  21.714  0.00  0.00    +0.000 F 
BRANCH  11  18
ATOM     18  C   UNL     1       0.253  11.404  18.877  0.00  0.00    +0.000 C 
BRANCH  18  20
ATOM     19  C   UNL     1       2.316  12.690  18.226  0.00  0.00    +0.000 C 
ATOM     20  C   UNL     1       1.041  12.712  19.068  0.00  0.00    +0.000 C 
ATOM     21  C   UNL     1       0.201  13.938  18.697  0.00  0.00    +0.000 C 
ENDBRANCH  18  20
ENDBRANCH  11  18
ENDBRANCH   1  13
BRANCH   8  22
ATOM     22  C   UNL     1       5.442   5.891  16.070  0.00  0.00    +0.000 C 
ATOM     23  C   UNL     1       6.617   6.480  16.856  0.00  0.00    +0.000 C 
ATOM     24  C   UNL     1       5.946   5.085  14.871  0.00  0.00    +0.000 C 
ATOM     25  F   UNL     1       4.757   6.961  15.551  0.00  0.00    +0.000 F 
ENDBRANCH   8  22
TORSDOF 4
ENDMDL
MODEL 5
REMARK VINA RESULT:      -7.8      1.856      3.042
REMARK  Name = 
REMARK  8 active torsions:
REMARK  status: ('A' for Active; 'I' for Inactive)
REMARK    1  A    between atoms: C_1  and  C_2
REMARK    2  A    between atoms: C_2  and  C_3
REMARK    3  A    between atoms: C_2  and  C_4
REMARK    4  A    between atoms: C_4  and  C_5
REMARK    5  A    between atoms: C_7  and  N_8
REMARK    6  A    between atoms: C_15  and  C_16
REMARK    7  A    between atoms: C_16  and  C_17
REMARK    8  A    between atoms: C_16  and  C_18
REMARK                            x       y       z     vdW  Elec       q    Type
REMARK                         _______ _______ _______ _____ _____    ______ ____
ROOT
ATOM      1  N   UNL     1       2.296   7.108  19.213  0.00  0.00    +0.000 N 
ATOM      2  C   UNL     1       2.077   5.712  19.561  0.00  0.00    +0.000 C 
ATOM      3  C   UNL     1       2.962   4.980  18.601  0.00  0.00    +0.000 A 
ATOM      4  C   UNL     1       3.619   5.906  17.789  0.00  0.00    +0.000 A 
ATOM      5  C   UNL     1       4.523   5.553  16.807  0.00  0.00    +0.000 A 
ATOM      6  C   UNL     1       4.771   4.197  16.634  0.00  0.00    +0.000 A 
ATOM      7  C   UNL     1       4.112   3.245  17.433  0.00  0.00    +0.000 A 
ATOM      8  C   UNL     1       3.186   3.616  18.433  0.00  0.00    +0.000 A 
ATOM      9  C   UNL     1       3.192   7.248  18.163  0.00  0.00    +0.000 C 
ATOM     10  O   UNL     1       3.620   8.253  17.608  0.00  0.00    +0.000 OA
ENDROOT
BRANCH   1  13
ATOM     11  C   UNL     1       0.190  10.151  19.647  0.00  0.00    +0.000 A 
ATOM     12  C   UNL     1       0.957   9.142  19.053  0.00  0.00    +0.000 A 
ATOM     13  C   UNL     1       1.595   8.166  19.830  0.00  0.00    +0.000 A 
ATOM     14  C   UNL     1       1.491   8.230  21.222  0.00  0.00    +0.000 A 
ATOM     15  C   UNL     1       0.786   9.269  21.827  0.00  0.00    +0.000 A 
ATOM     16  C   UNL     1       0.137  10.210  21.038  0.00  0.00    +0.000 A 
ATOM     17  F   UNL     1      -0.578  11.168  21.641  0.00  0.00    +0.000 F 
BRANCH  11  18
ATOM     18  C   UNL     1      -0.601  11.113  18.791  0.00  0.00    +0.000 C 
BRANCH  18  20
ATOM     19  C   UNL     1      -3.047  11.669  18.588  0.00  0.00    +0.000 C 
ATOM     20  C   UNL     1      -1.990  10.584  18.392  0.00  0.00    +0.000 C 
ATOM     21  C   UNL     1      -2.015  10.099  16.939  0.00  0.00    +0.000 C 
ENDBRANCH  18  20
ENDBRANCH  11  18
ENDBRANCH   1  13
BRANCH   8  22
ATOM     22  C   UNL     1       2.478   2.568  19.273  0.00  0.00    +0.000 C 
ATOM     23  C   UNL     1       2.767   2.771  20.763  0.00  0.00    +0.000 C 
ATOM     24  C   UNL     1       0.971   2.587  19.009  0.00  0.00    +0.000 C 
ATOM     25  F   UNL     1       2.902   1.298  18.972  0.00  0.00    +0.000 F 
ENDBRANCH   8  22
TORSDOF 4
ENDMDL
MODEL 6
REMARK VINA RESULT:      -7.7      1.949      3.025
REMARK  Name = 
REMARK  8 active torsions:
REMARK  status: ('A' for Active; 'I' for Inactive)
REMARK    1  A    between atoms: C_1  and  C_2
REMARK    2  A    between atoms: C_2  and  C_3
REMARK    3  A    between atoms: C_2  and  C_4
REMARK    4  A    between atoms: C_4  and  C_5
REMARK    5  A    between atoms: C_7  and  N_8
REMARK    6  A    between atoms: C_15  and  C_16
REMARK    7  A    between atoms: C_16  and  C_17
REMARK    8  A    between atoms: C_16  and  C_18
REMARK                            x       y       z     vdW  Elec       q    Type
REMARK                         _______ _______ _______ _____ _____    ______ ____
ROOT
ATOM      1  N   UNL     1       2.217   7.520  19.207  0.00  0.00    +0.000 N 
ATOM      2  C   UNL     1       2.299   6.170  19.745  0.00  0.00    +0.000 C 
ATOM      3  C   UNL     1       3.221   5.479  18.790  0.00  0.00    +0.000 A 
ATOM      4  C   UNL     1       3.621   6.384  17.805  0.00  0.00    +0.000 A 
ATOM      5  C   UNL     1       4.489   6.062  16.781  0.00  0.00    +0.000 A 
ATOM      6  C   UNL     1       4.975   4.761  16.749  0.00  0.00    +0.000 A 
ATOM      7  C   UNL     1       4.578   3.829  17.724  0.00  0.00    +0.000 A 
ATOM      8  C   UNL     1       3.686   4.167  18.767  0.00  0.00    +0.000 A 
ATOM      9  C   UNL     1       2.980   7.668  18.056  0.00  0.00    +0.000 C 
ATOM     10  O   UNL     1       3.160   8.645  17.340  0.00  0.00    +0.000 OA
ENDROOT
BRANCH   1  13
ATOM     11  C   UNL     1      -0.207  10.337  19.464  0.00  0.00    +0.000 A 
ATOM     12  C   UNL     1       0.687   9.400  18.933  0.00  0.00    +0.000 A 
ATOM     13  C   UNL     1       1.383   8.512  19.763  0.00  0.00    +0.000 A 
ATOM     14  C   UNL     1       1.207   8.596  21.147  0.00  0.00    +0.000 A 
ATOM     15  C   UNL     1       0.370   9.569  21.691  0.00  0.00    +0.000 A 
ATOM     16  C   UNL     1      -0.333  10.420  20.848  0.00  0.00    +0.000 A 
ATOM     17  F   UNL     1      -1.171  11.312  21.393  0.00  0.00    +0.000 F 
BRANCH  11  18
ATOM     18  C   UNL     1      -1.050  11.193  18.547  0.00  0.00    +0.000 C 
BRANCH  18  20
ATOM     19  C   UNL     1      -3.526  11.500  18.216  0.00  0.00    +0.000 C 
ATOM     20  C   UNL     1      -2.361  10.518  18.106  0.00  0.00    +0.000 C 
ATOM     21  C   UNL     1      -2.270   9.987  16.672  0.00  0.00    +0.000 C 
ENDBRANCH  18  20
ENDBRANCH  11  18
ENDBRANCH   1  13
BRANCH   8  22
ATOM     22  C   UNL     1       3.263   3.137  19.800  0.00  0.00    +0.000 C 
ATOM     23  C   UNL     1       2.007   2.388  19.345  0.00  0.00    +0.000 C 
ATOM     24  C   UNL     1       4.402   2.156  20.087  0.00  0.00    +0.000 C 
ATOM     25  F   UNL     1       2.946   3.717  21.002  0.00  0.00    +0.000 F 
ENDBRANCH   8  22
TORSDOF 4
ENDMDL
MODEL 7
REMARK VINA RESULT:      -7.7      2.120      7.701
REMARK  Name = 
REMARK  8 active torsions:
REMARK  status: ('A' for Active; 'I' for Inactive)
REMARK    1  A    between atoms: C_1  and  C_2
REMARK    2  A    between atoms: C_2  and  C_3
REMARK    3  A    between atoms: C_2  and  C_4
REMARK    4  A    between atoms: C_4  and  C_5
REMARK    5  A    between atoms: C_7  and  N_8
REMARK    6  A    between atoms: C_15  and  C_16
REMARK    7  A    between atoms: C_16  and  C_17
REMARK    8  A    between atoms: C_16  and  C_18
REMARK                            x       y       z     vdW  Elec       q    Type
REMARK                         _______ _______ _______ _____ _____    ______ ____
ROOT
ATOM      1  N   UNL     1       2.038   8.151  18.994  0.00  0.00    +0.000 N 
ATOM      2  C   UNL     1       1.354   8.256  20.275  0.00  0.00    +0.000 C 
ATOM      3  C   UNL     1       0.763   9.630  20.231  0.00  0.00    +0.000 A 
ATOM      4  C   UNL     1       1.094  10.232  19.016  0.00  0.00    +0.000 A 
ATOM      5  C   UNL     1       0.685  11.501  18.657  0.00  0.00    +0.000 A 
ATOM      6  C   UNL     1      -0.094  12.197  19.573  0.00  0.00    +0.000 A 
ATOM      7  C   UNL     1      -0.430  11.616  20.809  0.00  0.00    +0.000 A 
ATOM      8  C   UNL     1      -0.005  10.318  21.168  0.00  0.00    +0.000 A 
ATOM      9  C   UNL     1       1.909   9.308  18.239  0.00  0.00    +0.000 C 
ATOM     10  O   UNL     1       2.336   9.584  17.124  0.00  0.00    +0.000 OA
ENDROOT
BRANCH   1  13
ATOM     11  C   UNL     1       3.301   4.648  18.867  0.00  0.00    +0.000 A 
ATOM     12  C   UNL     1       2.604   5.794  19.269  0.00  0.00    +0.000 A 
ATOM     13  C   UNL     1       2.808   7.025  18.633  0.00  0.00    +0.000 A 
ATOM     14  C   UNL     1       3.753   7.112  17.606  0.00  0.00    +0.000 A 
ATOM     15  C   UNL     1       4.500   5.993  17.243  0.00  0.00    +0.000 A 
ATOM     16  C   UNL     1       4.262   4.775  17.867  0.00  0.00    +0.000 A 
ATOM     17  F   UNL     1       4.956   3.703  17.464  0.00  0.00    +0.000 F 
BRANCH  11  18
ATOM     18  C   UNL     1       2.971   3.302  19.471  0.00  0.00    +0.000 C 
BRANCH  18  20
ATOM     19  C   UNL     1       0.703   2.310  19.015  0.00  0.00    +0.000 C 
ATOM     20  C   UNL     1       1.517   3.189  19.964  0.00  0.00    +0.000 C 
ATOM     21  C   UNL     1       1.444   2.616  21.384  0.00  0.00    +0.000 C 
ENDBRANCH  18  20
ENDBRANCH  11  18
ENDBRANCH   1  13
BRANCH   8  22
ATOM     22  C   UNL     1      -0.371   9.718  22.515  0.00  0.00    +0.000 C 
ATOM     23  C   UNL     1       0.884   9.405  23.335  0.00  0.00    +0.000 C 
ATOM     24  C   UNL     1      -1.303  10.652  23.290  0.00  0.00    +0.000 C 
ATOM     25  F   UNL     1      -1.045   8.530  22.381  0.00  0.00    +0.000 F 
ENDBRANCH   8  22
TORSDOF 4
ENDMDL
MODEL 8
REMARK VINA RESULT:      -7.7      2.659      7.876
REMARK  Name = 
REMARK  8 active torsions:
REMARK  status: ('A' for Active; 'I' for Inactive)
REMARK    1  A    between atoms: C_1  and  C_2
REMARK    2  A    between atoms: C_2  and  C_3
REMARK    3  A    between atoms: C_2  and  C_4
REMARK    4  A    between atoms: C_4  and  C_5
REMARK    5  A    between atoms: C_7  and  N_8
REMARK    6  A    between atoms: C_15  and  C_16
REMARK    7  A    between atoms: C_16  and  C_17
REMARK    8  A    between atoms: C_16  and  C_18
REMARK                            x       y       z     vdW  Elec       q    Type
REMARK                         _______ _______ _______ _____ _____    ______ ____
ROOT
ATOM      1  N   UNL     1       0.613   9.538  19.214  0.00  0.00    +0.000 N 
ATOM      2  C   UNL     1      -0.563   9.688  18.369  0.00  0.00    +0.000 C 
ATOM      3  C   UNL     1      -1.334  10.773  19.052  0.00  0.00    +0.000 A 
ATOM      4  C   UNL     1      -0.633  11.191  20.184  0.00  0.00    +0.000 A 
ATOM      5  C   UNL     1      -1.070  12.194  21.025  0.00  0.00    +0.000 A 
ATOM      6  C   UNL     1      -2.278  12.803  20.709  0.00  0.00    +0.000 A 
ATOM      7  C   UNL     1      -3.008  12.392  19.580  0.00  0.00    +0.000 A 
ATOM      8  C   UNL     1      -2.554  11.361  18.726  0.00  0.00    +0.000 A 
ATOM      9  C   UNL     1       0.590  10.406  20.297  0.00  0.00    +0.000 C 
ATOM     10  O   UNL     1       1.396  10.570  21.205  0.00  0.00    +0.000 OA
ENDROOT
BRANCH   1  13
ATOM     11  C   UNL     1       2.626   6.422  19.565  0.00  0.00    +0.000 A 
ATOM     12  C   UNL     1       1.708   7.446  19.828  0.00  0.00    +0.000 A 
ATOM     13  C   UNL     1       1.598   8.556  18.980  0.00  0.00    +0.000 A 
ATOM     14  C   UNL     1       2.450   8.654  17.876  0.00  0.00    +0.000 A 
ATOM     15  C   UNL     1       3.412   7.674  17.641  0.00  0.00    +0.000 A 
ATOM     16  C   UNL     1       3.485   6.568  18.478  0.00  0.00    +0.000 A 
ATOM     17  F   UNL     1       4.382   5.612  18.201  0.00  0.00    +0.000 F 
BRANCH  11  18
ATOM     18  C   UNL     1       2.636   5.170  20.411  0.00  0.00    +0.000 C 
BRANCH  18  20
ATOM     19  C   UNL     1       1.299   3.754  18.816  0.00  0.00    +0.000 C 
ATOM     20  C   UNL     1       1.377   4.300  20.241  0.00  0.00    +0.000 C 
ATOM     21  C   UNL     1       1.352   3.138  21.239  0.00  0.00    +0.000 C 
ENDBRANCH  18  20
ENDBRANCH  11  18
ENDBRANCH   1  13
BRANCH   8  22
ATOM     22  C   UNL     1      -3.369  10.927  17.521  0.00  0.00    +0.000 C 
ATOM     23  C   UNL     1      -4.749  11.591  17.523  0.00  0.00    +0.000 C 
ATOM     24  C   UNL     1      -2.623  11.238  16.221  0.00  0.00    +0.000 C 
ATOM     25  F   UNL     1      -3.597   9.574  17.516  0.00  0.00    +0.000 F 
ENDBRANCH   8  22
TORSDOF 4
ENDMDL
MODEL 9
REMARK VINA RESULT:      -7.6      2.308      3.584
REMARK  Name = 
REMARK  8 active torsions:
REMARK  status: ('A' for Active; 'I' for Inactive)
REMARK    1  A    between atoms: C_1  and  C_2
REMARK    2  A    between atoms: C_2  and  C_3
REMARK    3  A    between atoms: C_2  and  C_4
REMARK    4  A    between atoms: C_4  and  C_5
REMARK    5  A    between atoms: C_7  and  N_8
REMARK    6  A    between atoms: C_15  and  C_16
REMARK    7  A    between atoms: C_16  and  C_17
REMARK    8  A    between atoms: C_16  and  C_18
REMARK                            x       y       z     vdW  Elec       q    Type
REMARK                         _______ _______ _______ _____ _____    ______ ____
ROOT
ATOM      1  N   UNL     1       1.466   8.027  20.336  0.00  0.00    +0.000 N 
ATOM      2  C   UNL     1       1.569   6.648  20.793  0.00  0.00    +0.000 C 
ATOM      3  C   UNL     1       2.362   5.990  19.709  0.00  0.00    +0.000 A 
ATOM      4  C   UNL     1       2.675   6.936  18.732  0.00  0.00    +0.000 A 
ATOM      5  C   UNL     1       3.416   6.651  17.603  0.00  0.00    +0.000 A 
ATOM      6  C   UNL     1       3.860   5.343  17.452  0.00  0.00    +0.000 A 
ATOM      7  C   UNL     1       3.547   4.369  18.417  0.00  0.00    +0.000 A 
ATOM      8  C   UNL     1       2.785   4.670  19.568  0.00  0.00    +0.000 A 
ATOM      9  C   UNL     1       2.101   8.219  19.117  0.00  0.00    +0.000 C 
ATOM     10  O   UNL     1       2.229   9.229  18.435  0.00  0.00    +0.000 OA
ENDROOT
BRANCH   1  13
ATOM     11  C   UNL     1      -0.648  11.022  21.003  0.00  0.00    +0.000 A 
ATOM     12  C   UNL     1       0.157  10.085  20.342  0.00  0.00    +0.000 A 
ATOM     13  C   UNL     1       0.726   9.006  21.031  0.00  0.00    +0.000 A 
ATOM     14  C   UNL     1       0.513   8.891  22.408  0.00  0.00    +0.000 A 
ATOM     15  C   UNL     1      -0.231   9.853  23.087  0.00  0.00    +0.000 A 
ATOM     16  C   UNL     1      -0.810  10.899  22.381  0.00  0.00    +0.000 A 
ATOM     17  F   UNL     1      -1.565  11.783  23.047  0.00  0.00    +0.000 F 
BRANCH  11  18
ATOM     18  C   UNL     1      -1.363  12.100  20.221  0.00  0.00    +0.000 C 
BRANCH  18  20
ATOM     19  C   UNL     1      -2.374  11.690  17.953  0.00  0.00    +0.000 C 
ATOM     20  C   UNL     1      -1.093  12.044  18.707  0.00  0.00    +0.000 C 
ATOM     21  C   UNL     1      -0.539  13.373  18.182  0.00  0.00    +0.000 C 
ENDBRANCH  18  20
ENDBRANCH  11  18
ENDBRANCH   1  13
BRANCH   8  22
ATOM     22  C   UNL     1       2.449   3.597  20.588  0.00  0.00    +0.000 C 
ATOM     23  C   UNL     1       1.043   3.038  20.354  0.00  0.00    +0.000 C 
ATOM     24  C   UNL     1       3.488   2.474  20.557  0.00  0.00    +0.000 C 
ATOM     25  F   UNL     1       2.455   4.088  21.870  0.00  0.00    +0.000 F 
ENDBRANCH   8  22
TORSDOF 4
ENDMDL
