MODEL 1
REMARK VINA RESULT:      -8.2      0.000      0.000
REMARK  Name = 
REMARK  5 active torsions:
REMARK  status: ('A' for Active; 'I' for Inactive)
REMARK    1  A    between atoms: N_1  and  C_2
REMARK    2  A    between atoms: C_4  and  C_5
REMARK    3  A    between atoms: C_5  and  N_6
REMARK    4  A    between atoms: C_10  and  C_12
REMARK    5  A    between atoms: C_15  and  C_16
REMARK                            x       y       z     vdW  Elec       q    Type
REMARK                         _______ _______ _______ _____ _____    ______ ____
ROOT
ATOM      1  N   UNL     1       0.755  10.454  18.998  0.00  0.00    +0.000 NA
ATOM      2  C   UNL     1       2.042  10.276  18.306  0.00  0.00    +0.000 C 
ATOM      3  C   UNL     1       2.389   8.811  18.005  0.00  0.00    +0.000 C 
ATOM      4  N   UNL     1       2.307   7.909  19.163  0.00  0.00    +0.000 N 
ATOM      5  C   UNL     1       2.893   6.628  19.226  0.00  0.00    +0.000 C 
ATOM      6  O   UNL     1       2.830   5.924  20.232  0.00  0.00    +0.000 OA
ATOM      7  C   UNL     1       1.247   8.188  20.138  0.00  0.00    +0.000 C 
ATOM      8  C   UNL     1       0.811   9.668  20.253  0.00  0.00    +0.000 C 
ENDROOT
BRANCH   5   9
ATOM      9  C   UNL     1       3.607   6.062  18.042  0.00  0.00    +0.000 A 
ATOM     10  C   UNL     1       4.505   6.855  17.319  0.00  0.00    +0.000 A 
ATOM     11  C   UNL     1       5.179   6.329  16.206  0.00  0.00    +0.000 A 
ATOM     12  C   UNL     1       4.951   5.006  15.793  0.00  0.00    +0.000 A 
ATOM     13  C   UNL     1       4.083   4.208  16.546  0.00  0.00    +0.000 A 
ATOM     14  C   UNL     1       3.464   4.717  17.686  0.00  0.00    +0.000 A 
BRANCH  12  15
ATOM     15  C   UNL     1       5.626   4.406  14.585  0.00  0.00    +0.000 C 
ATOM     16  F   UNL     1       4.784   4.165  13.544  0.00  0.00    +0.000 F 
ATOM     17  F   UNL     1       6.611   5.210  14.093  0.00  0.00    +0.000 F 
ATOM     18  F   UNL     1       6.227   3.217  14.868  0.00  0.00    +0.000 F 
ENDBRANCH  12  15
ENDBRANCH   5   9
BRANCH   1  19
ATOM     19  C   UNL     1      -0.418  10.078  18.169  0.00  0.00    +0.000 C 
BRANCH  19  22
ATOM     20  C   UNL     1      -2.789  12.574  19.470  0.00  0.00    +0.000 A 
ATOM     21  N   UNL     1      -1.634  11.993  19.118  0.00  0.00    +0.000 NA
ATOM     22  C   UNL     1      -1.712  10.885  18.356  0.00  0.00    +0.000 A 
ATOM     23  N   UNL     1      -2.871  10.362  17.892  0.00  0.00    +0.000 NA
ATOM     24  C   UNL     1      -4.020  10.973  18.251  0.00  0.00    +0.000 A 
ATOM     25  C   UNL     1      -5.245  10.476  17.809  0.00  0.00    +0.000 A 
ATOM     26  C   UNL     1      -6.471  11.043  18.193  0.00  0.00    +0.000 A 
ATOM     27  C   UNL     1      -6.488  12.139  19.042  0.00  0.00    +0.000 A 
ATOM     28  C   UNL     1      -5.281  12.672  19.483  0.00  0.00    +0.000 A 
ATOM     29  C   UNL     1      -4.045  12.097  19.086  0.00  0.00    +0.000 A 
BRANCH  20  30
ATOM     30  N   UNL     1      -2.652  13.716  20.270  0.00  0.00    +0.000 N 
ATOM     31  H   UNL     1      -1.670  13.776  20.526  0.00  0.00    +0.000 HD
ATOM     32  H   UNL     1      -3.244  13.662  21.090  0.00  0.00    +0.000 HD
ENDBRANCH  20  30
ENDBRANCH  19  22
ENDBRANCH   1  19
TORSDOF 5
ENDMDL
MODEL 2
REMARK VINA RESULT:      -8.2      5.317      9.119
REMARK  Name = 
REMARK  5 active torsions:
REMARK  status: ('A' for Active; 'I' for Inactive)
REMARK    1  A    between atoms: N_1  and  C_2
REMARK    2  A    between atoms: C_4  and  C_5
REMARK    3  A    between atoms: C_5  and  N_6
REMARK    4  A    between atoms: C_10  and  C_12
REMARK    5  A    between atoms: C_15  and  C_16
REMARK                            x       y       z     vdW  Elec       q    Type
REMARK                         _______ _______ _______ _____ _____    ______ ____
ROOT
ATOM      1  N   UNL     1      -0.043   8.823  20.974  0.00  0.00    +0.000 NA
ATOM      2  C   UNL     1      -0.182   9.747  19.836  0.00  0.00    +0.000 C 
ATOM      3  C   UNL     1       0.513  11.100  20.046  0.00  0.00    +0.000 C 
ATOM      4  N   UNL     1       0.166  11.783  21.300  0.00  0.00    +0.000 N 
ATOM      5  C   UNL     1       0.392  13.151  21.559  0.00  0.00    +0.000 C 
ATOM      6  O   UNL     1       0.048  13.688  22.611  0.00  0.00    +0.000 OA
ATOM      7  C   UNL     1      -0.064  10.929  22.471  0.00  0.00    +0.000 C 
ATOM      8  C   UNL     1      -0.588   9.504  22.171  0.00  0.00    +0.000 C 
ENDROOT
BRANCH   5   9
ATOM      9  C   UNL     1       1.089  14.008  20.553  0.00  0.00    +0.000 A 
ATOM     10  C   UNL     1       0.345  14.776  19.651  0.00  0.00    +0.000 A 
ATOM     11  C   UNL     1       0.994  15.584  18.704  0.00  0.00    +0.000 A 
ATOM     12  C   UNL     1       2.397  15.620  18.639  0.00  0.00    +0.000 A 
ATOM     13  C   UNL     1       3.132  14.881  19.571  0.00  0.00    +0.000 A 
ATOM     14  C   UNL     1       2.482  14.130  20.548  0.00  0.00    +0.000 A 
BRANCH  12  15
ATOM     15  C   UNL     1       3.139  16.447  17.618  0.00  0.00    +0.000 C 
ATOM     16  F   UNL     1       2.448  17.535  17.179  0.00  0.00    +0.000 F 
ATOM     17  F   UNL     1       4.321  16.923  18.101  0.00  0.00    +0.000 F 
ATOM     18  F   UNL     1       3.457  15.728  16.506  0.00  0.00    +0.000 F 
ENDBRANCH  12  15
ENDBRANCH   5   9
BRANCH   1  19
ATOM     19  C   UNL     1       1.352   8.363  21.194  0.00  0.00    +0.000 C 
BRANCH  19  22
ATOM     20  C   UNL     1       2.862   6.264  18.574  0.00  0.00    +0.000 A 
ATOM     21  N   UNL     1       2.632   7.314  19.375  0.00  0.00    +0.000 NA
ATOM     22  C   UNL     1       1.819   7.114  20.431  0.00  0.00    +0.000 A 
ATOM     23  N   UNL     1       1.270   5.919  20.751  0.00  0.00    +0.000 NA
ATOM     24  C   UNL     1       1.526   4.875  19.935  0.00  0.00    +0.000 A 
ATOM     25  C   UNL     1       0.983   3.621  20.210  0.00  0.00    +0.000 A 
ATOM     26  C   UNL     1       1.177   2.515  19.368  0.00  0.00    +0.000 A 
ATOM     27  C   UNL     1       1.935   2.649  18.215  0.00  0.00    +0.000 A 
ATOM     28  C   UNL     1       2.509   3.883  17.924  0.00  0.00    +0.000 A 
ATOM     29  C   UNL     1       2.313   4.996  18.783  0.00  0.00    +0.000 A 
BRANCH  20  30
ATOM     30  N   UNL     1       3.705   6.529  17.486  0.00  0.00    +0.000 N 
ATOM     31  H   UNL     1       3.103   6.761  16.701  0.00  0.00    +0.000 HD
ATOM     32  H   UNL     1       4.294   5.732  17.278  0.00  0.00    +0.000 HD
ENDBRANCH  20  30
ENDBRANCH  19  22
ENDBRANCH   1  19
TORSDOF 5
ENDMDL
MODEL 3
REMARK VINA RESULT:      -8.2      5.333      9.121
REMARK  Name = 
REMARK  5 active torsions:
REMARK  status: ('A' for Active; 'I' for Inactive)
REMARK    1  A    between atoms: N_1  and  C_2
REMARK    2  A    between atoms: C_4  and  C_5
REMARK    3  A    between atoms: C_5  and  N_6
REMARK    4  A    between atoms: C_10  and  C_12
REMARK    5  A    between atoms: C_15  and  C_16
REMARK                            x       y       z     vdW  Elec       q    Type
REMARK                         _______ _______ _______ _____ _____    ______ ____
ROOT
ATOM      1  N   UNL     1      -0.025   8.731  20.983  0.00  0.00    +0.000 NA
ATOM      2  C   UNL     1      -0.155   9.654  19.843  0.00  0.00    +0.000 C 
ATOM      3  C   UNL     1       0.547  11.003  20.053  0.00  0.00    +0.000 C 
ATOM      4  N   UNL     1       0.198  11.691  21.304  0.00  0.00    +0.000 N 
ATOM      5  C   UNL     1       0.430  13.058  21.560  0.00  0.00    +0.000 C 
ATOM      6  O   UNL     1       0.085  13.599  22.609  0.00  0.00    +0.000 OA
ATOM      7  C   UNL     1      -0.041  10.841  22.476  0.00  0.00    +0.000 C 
ATOM      8  C   UNL     1      -0.571   9.418  22.177  0.00  0.00    +0.000 C 
ENDROOT
BRANCH   5   9
ATOM      9  C   UNL     1       1.136  13.909  20.555  0.00  0.00    +0.000 A 
ATOM     10  C   UNL     1       2.533  13.905  20.491  0.00  0.00    +0.000 A 
ATOM     11  C   UNL     1       3.203  14.702  19.549  0.00  0.00    +0.000 A 
ATOM     12  C   UNL     1       2.481  15.526  18.670  0.00  0.00    +0.000 A 
ATOM     13  C   UNL     1       1.083  15.493  18.715  0.00  0.00    +0.000 A 
ATOM     14  C   UNL     1       0.424  14.653  19.609  0.00  0.00    +0.000 A 
BRANCH  12  15
ATOM     15  C   UNL     1       3.156  16.425  17.664  0.00  0.00    +0.000 C 
ATOM     16  F   UNL     1       4.331  16.955  18.097  0.00  0.00    +0.000 F 
ATOM     17  F   UNL     1       3.444  15.772  16.502  0.00  0.00    +0.000 F 
ATOM     18  F   UNL     1       2.373  17.481  17.310  0.00  0.00    +0.000 F 
ENDBRANCH  12  15
ENDBRANCH   5   9
BRANCH   1  19
ATOM     19  C   UNL     1       1.366   8.264  21.210  0.00  0.00    +0.000 C 
BRANCH  19  22
ATOM     20  C   UNL     1       2.901   6.236  18.550  0.00  0.00    +0.000 A 
ATOM     21  N   UNL     1       2.662   7.264  19.374  0.00  0.00    +0.000 NA
ATOM     22  C   UNL     1       1.844   7.036  20.420  0.00  0.00    +0.000 A 
ATOM     23  N   UNL     1       1.299   5.831  20.708  0.00  0.00    +0.000 NA
ATOM     24  C   UNL     1       1.564   4.808  19.869  0.00  0.00    +0.000 A 
ATOM     25  C   UNL     1       1.024   3.546  20.111  0.00  0.00    +0.000 A 
ATOM     26  C   UNL     1       1.228   2.461  19.244  0.00  0.00    +0.000 A 
ATOM     27  C   UNL     1       1.992   2.626  18.099  0.00  0.00    +0.000 A 
ATOM     28  C   UNL     1       2.563   3.869  17.841  0.00  0.00    +0.000 A 
ATOM     29  C   UNL     1       2.357   4.961  18.725  0.00  0.00    +0.000 A 
BRANCH  20  30
ATOM     30  N   UNL     1       3.750   6.530  17.474  0.00  0.00    +0.000 N 
ATOM     31  H   UNL     1       4.129   5.644  17.152  0.00  0.00    +0.000 HD
ATOM     32  H   UNL     1       4.485   7.168  17.753  0.00  0.00    +0.000 HD
ENDBRANCH  20  30
ENDBRANCH  19  22
ENDBRANCH   1  19
TORSDOF 5
ENDMDL
MODEL 4
REMARK VINA RESULT:      -8.2      0.784      1.860
REMARK  Name = 
REMARK  5 active torsions:
REMARK  status: ('A' for Active; 'I' for Inactive)
REMARK    1  A    between atoms: N_1  and  C_2
REMARK    2  A    between atoms: C_4  and  C_5
REMARK    3  A    between atoms: C_5  and  N_6
REMARK    4  A    between atoms: C_10  and  C_12
REMARK    5  A    between atoms: C_15  and  C_16
REMARK                            x       y       z     vdW  Elec       q    Type
REMARK                         _______ _______ _______ _____ _____    ______ ____
ROOT
ATOM      1  N   UNL     1       0.699  10.426  18.757  0.00  0.00    +0.000 NA
ATOM      2  C   UNL     1       1.997  10.264  18.081  0.00  0.00    +0.000 C 
ATOM      3  C   UNL     1       2.384   8.800  17.821  0.00  0.00    +0.000 C 
ATOM      4  N   UNL     1       2.314   7.926  19.001  0.00  0.00    +0.000 N 
ATOM      5  C   UNL     1       2.932   6.664  19.102  0.00  0.00    +0.000 C 
ATOM      6  O   UNL     1       2.878   5.983  20.126  0.00  0.00    +0.000 OA
ATOM      7  C   UNL     1       1.238   8.202  19.959  0.00  0.00    +0.000 C 
ATOM      8  C   UNL     1       0.763   9.674  20.031  0.00  0.00    +0.000 C 
ENDROOT
BRANCH   5   9
ATOM      9  C   UNL     1       3.672   6.086  17.940  0.00  0.00    +0.000 A 
ATOM     10  C   UNL     1       4.494   6.902  17.156  0.00  0.00    +0.000 A 
ATOM     11  C   UNL     1       5.192   6.366  16.063  0.00  0.00    +0.000 A 
ATOM     12  C   UNL     1       5.063   5.007  15.731  0.00  0.00    +0.000 A 
ATOM     13  C   UNL     1       4.271   4.189  16.545  0.00  0.00    +0.000 A 
ATOM     14  C   UNL     1       3.631   4.715  17.665  0.00  0.00    +0.000 A 
BRANCH  12  15
ATOM     15  C   UNL     1       5.767   4.391  14.547  0.00  0.00    +0.000 C 
ATOM     16  F   UNL     1       6.372   3.203  14.820  0.00  0.00    +0.000 F 
ATOM     17  F   UNL     1       4.915   4.149  13.511  0.00  0.00    +0.000 F 
ATOM     18  F   UNL     1       6.738   5.204  14.046  0.00  0.00    +0.000 F 
ENDBRANCH  12  15
ENDBRANCH   5   9
BRANCH   1  19
ATOM     19  C   UNL     1      -0.457   9.998  17.927  0.00  0.00    +0.000 C 
BRANCH  19  22
ATOM     20  C   UNL     1      -3.949  11.096  17.545  0.00  0.00    +0.000 A 
ATOM     21  N   UNL     1      -2.815  10.405  17.362  0.00  0.00    +0.000 NA
ATOM     22  C   UNL     1      -1.836  10.580  18.271  0.00  0.00    +0.000 A 
ATOM     23  N   UNL     1      -1.950  11.364  19.368  0.00  0.00    +0.000 NA
ATOM     24  C   UNL     1      -3.106  12.040  19.536  0.00  0.00    +0.000 A 
ATOM     25  C   UNL     1      -3.279  12.868  20.643  0.00  0.00    +0.000 A 
ATOM     26  C   UNL     1      -4.441  13.631  20.840  0.00  0.00    +0.000 A 
ATOM     27  C   UNL     1      -5.469  13.574  19.912  0.00  0.00    +0.000 A 
ATOM     28  C   UNL     1      -5.336  12.739  18.806  0.00  0.00    +0.000 A 
ATOM     29  C   UNL     1      -4.160  11.966  18.617  0.00  0.00    +0.000 A 
BRANCH  20  30
ATOM     30  N   UNL     1      -4.929  10.884  16.566  0.00  0.00    +0.000 N 
ATOM     31  H   UNL     1      -5.243   9.924  16.671  0.00  0.00    +0.000 HD
ATOM     32  H   UNL     1      -4.561  11.054  15.638  0.00  0.00    +0.000 HD
ENDBRANCH  20  30
ENDBRANCH  19  22
ENDBRANCH   1  19
TORSDOF 5
ENDMDL
MODEL 5
REMARK VINA RESULT:      -8.1      0.754      2.068
REMARK  Name = 
REMARK  5 active torsions:
REMARK  status: ('A' for Active; 'I' for Inactive)
REMARK    1  A    between atoms: N_1  and  C_2
REMARK    2  A    between atoms: C_4  and  C_5
REMARK    3  A    between atoms: C_5  and  N_6
REMARK    4  A    between atoms: C_10  and  C_12
REMARK    5  A    between atoms: C_15  and  C_16
REMARK                            x       y       z     vdW  Elec       q    Type
REMARK                         _______ _______ _______ _____ _____    ______ ____
ROOT
ATOM      1  N   UNL     1       0.639  10.452  18.899  0.00  0.00    +0.000 NA
ATOM      2  C   UNL     1       1.926  10.284  18.204  0.00  0.00    +0.000 C 
ATOM      3  C   UNL     1       2.303   8.819  17.939  0.00  0.00    +0.000 C 
ATOM      4  N   UNL     1       2.247   7.946  19.119  0.00  0.00    +0.000 N 
ATOM      5  C   UNL     1       2.861   6.680  19.212  0.00  0.00    +0.000 C 
ATOM      6  O   UNL     1       2.819   6.000  20.236  0.00  0.00    +0.000 OA
ATOM      7  C   UNL     1       1.186   8.226  20.093  0.00  0.00    +0.000 C 
ATOM      8  C   UNL     1       0.718   9.699  20.173  0.00  0.00    +0.000 C 
ENDROOT
BRANCH   5   9
ATOM      9  C   UNL     1       3.581   6.099  18.039  0.00  0.00    +0.000 A 
ATOM     10  C   UNL     1       3.333   4.779  17.647  0.00  0.00    +0.000 A 
ATOM     11  C   UNL     1       4.005   4.227  16.546  0.00  0.00    +0.000 A 
ATOM     12  C   UNL     1       4.948   4.986  15.832  0.00  0.00    +0.000 A 
ATOM     13  C   UNL     1       5.160   6.317  16.205  0.00  0.00    +0.000 A 
ATOM     14  C   UNL     1       4.443   6.878  17.260  0.00  0.00    +0.000 A 
BRANCH  12  15
ATOM     15  C   UNL     1       5.720   4.426  14.663  0.00  0.00    +0.000 C 
ATOM     16  F   UNL     1       6.673   5.266  14.177  0.00  0.00    +0.000 F 
ATOM     17  F   UNL     1       6.366   3.268  14.979  0.00  0.00    +0.000 F 
ATOM     18  F   UNL     1       4.912   4.123  13.610  0.00  0.00    +0.000 F 
ENDBRANCH  12  15
ENDBRANCH   5   9
BRANCH   1  19
ATOM     19  C   UNL     1      -0.531  10.028  18.086  0.00  0.00    +0.000 C 
BRANCH  19  22
ATOM     20  C   UNL     1      -4.016  11.152  17.721  0.00  0.00    +0.000 A 
ATOM     21  N   UNL     1      -2.894  10.441  17.546  0.00  0.00    +0.000 NA
ATOM     22  C   UNL     1      -1.897  10.641  18.430  0.00  0.00    +0.000 A 
ATOM     23  N   UNL     1      -1.983  11.468  19.498  0.00  0.00    +0.000 NA
ATOM     24  C   UNL     1      -3.128  12.165  19.658  0.00  0.00    +0.000 A 
ATOM     25  C   UNL     1      -3.272  13.037  20.735  0.00  0.00    +0.000 A 
ATOM     26  C   UNL     1      -4.422  13.821  20.921  0.00  0.00    +0.000 A 
ATOM     27  C   UNL     1      -5.467  13.740  20.013  0.00  0.00    +0.000 A 
ATOM     28  C   UNL     1      -5.363  12.861  18.939  0.00  0.00    +0.000 A 
ATOM     29  C   UNL     1      -4.199  12.067  18.761  0.00  0.00    +0.000 A 
BRANCH  20  30
ATOM     30  N   UNL     1      -5.016  10.914  16.768  0.00  0.00    +0.000 N 
ATOM     31  H   UNL     1      -4.810  10.012  16.349  0.00  0.00    +0.000 HD
ATOM     32  H   UNL     1      -5.039  11.649  16.072  0.00  0.00    +0.000 HD
ENDBRANCH  20  30
ENDBRANCH  19  22
ENDBRANCH   1  19
TORSDOF 5
ENDMDL
MODEL 6
REMARK VINA RESULT:      -8.0      3.288      4.727
REMARK  Name = 
REMARK  5 active torsions:
REMARK  status: ('A' for Active; 'I' for Inactive)
REMARK    1  A    between atoms: N_1  and  C_2
REMARK    2  A    between atoms: C_4  and  C_5
REMARK    3  A    between atoms: C_5  and  N_6
REMARK    4  A    between atoms: C_10  and  C_12
REMARK    5  A    between atoms: C_15  and  C_16
REMARK                            x       y       z     vdW  Elec       q    Type
REMARK                         _______ _______ _______ _____ _____    ______ ____
ROOT
ATOM      1  N   UNL     1      -2.063  12.499  19.309  0.00  0.00    +0.000 NA
ATOM      2  C   UNL     1      -2.096  11.085  18.901  0.00  0.00    +0.000 C 
ATOM      3  C   UNL     1      -0.780  10.334  19.150  0.00  0.00    +0.000 C 
ATOM      4  N   UNL     1       0.416  10.991  18.604  0.00  0.00    +0.000 N 
ATOM      5  C   UNL     1       1.658  10.357  18.401  0.00  0.00    +0.000 C 
ATOM      6  O   UNL     1       2.622  10.938  17.904  0.00  0.00    +0.000 OA
ATOM      7  C   UNL     1       0.433  12.458  18.640  0.00  0.00    +0.000 C 
ATOM      8  C   UNL     1      -0.951  13.148  18.577  0.00  0.00    +0.000 C 
ENDROOT
BRANCH   5   9
ATOM      9  C   UNL     1       1.859   8.934  18.809  0.00  0.00    +0.000 A 
ATOM     10  C   UNL     1       1.575   8.533  20.119  0.00  0.00    +0.000 A 
ATOM     11  C   UNL     1       1.761   7.197  20.509  0.00  0.00    +0.000 A 
ATOM     12  C   UNL     1       2.249   6.249  19.594  0.00  0.00    +0.000 A 
ATOM     13  C   UNL     1       2.491   6.649  18.276  0.00  0.00    +0.000 A 
ATOM     14  C   UNL     1       2.245   7.962  17.880  0.00  0.00    +0.000 A 
BRANCH  12  15
ATOM     15  C   UNL     1       2.497   4.810  19.975  0.00  0.00    +0.000 C 
ATOM     16  F   UNL     1       3.782   4.402  19.789  0.00  0.00    +0.000 F 
ATOM     17  F   UNL     1       2.211   4.567  21.285  0.00  0.00    +0.000 F 
ATOM     18  F   UNL     1       1.720   3.948  19.261  0.00  0.00    +0.000 F 
ENDBRANCH  12  15
ENDBRANCH   5   9
BRANCH   1  19
ATOM     19  C   UNL     1      -1.934  12.687  20.777  0.00  0.00    +0.000 C 
BRANCH  19  22
ATOM     20  C   UNL     1      -4.173  13.302  23.632  0.00  0.00    +0.000 A 
ATOM     21  N   UNL     1      -3.072  13.300  22.869  0.00  0.00    +0.000 NA
ATOM     22  C   UNL     1      -3.220  12.939  21.579  0.00  0.00    +0.000 A 
ATOM     23  N   UNL     1      -4.407  12.632  21.008  0.00  0.00    +0.000 NA
ATOM     24  C   UNL     1      -5.504  12.653  21.795  0.00  0.00    +0.000 A 
ATOM     25  C   UNL     1      -6.753  12.339  21.264  0.00  0.00    +0.000 A 
ATOM     26  C   UNL     1      -7.917  12.298  22.048  0.00  0.00    +0.000 A 
ATOM     27  C   UNL     1      -7.845  12.577  23.404  0.00  0.00    +0.000 A 
ATOM     28  C   UNL     1      -6.615  12.915  23.960  0.00  0.00    +0.000 A 
ATOM     29  C   UNL     1      -5.443  12.961  23.159  0.00  0.00    +0.000 A 
BRANCH  20  30
ATOM     30  N   UNL     1      -3.962  13.675  24.966  0.00  0.00    +0.000 N 
ATOM     31  H   UNL     1      -4.825  14.106  25.288  0.00  0.00    +0.000 HD
ATOM     32  H   UNL     1      -3.179  14.311  25.048  0.00  0.00    +0.000 HD
ENDBRANCH  20  30
ENDBRANCH  19  22
ENDBRANCH   1  19
TORSDOF 5
ENDMDL
MODEL 7
REMARK VINA RESULT:      -7.9      5.182      9.316
REMARK  Name = 
REMARK  5 active torsions:
REMARK  status: ('A' for Active; 'I' for Inactive)
REMARK    1  A    between atoms: N_1  and  C_2
REMARK    2  A    between atoms: C_4  and  C_5
REMARK    3  A    between atoms: C_5  and  N_6
REMARK    4  A    between atoms: C_10  and  C_12
REMARK    5  A    between atoms: C_15  and  C_16
REMARK                            x       y       z     vdW  Elec       q    Type
REMARK                         _______ _______ _______ _____ _____    ______ ____
ROOT
ATOM      1  N   UNL     1      -0.052   8.751  20.957  0.00  0.00    +0.000 NA
ATOM      2  C   UNL     1      -0.197   9.678  19.823  0.00  0.00    +0.000 C 
ATOM      3  C   UNL     1       0.513  11.025  20.025  0.00  0.00    +0.000 C 
ATOM      4  N   UNL     1       0.188  11.709  21.284  0.00  0.00    +0.000 N 
ATOM      5  C   UNL     1       0.429  13.074  21.541  0.00  0.00    +0.000 C 
ATOM      6  O   UNL     1       0.103  13.613  22.598  0.00  0.00    +0.000 OA
ATOM      7  C   UNL     1      -0.034  10.856  22.457  0.00  0.00    +0.000 C 
ATOM      8  C   UNL     1      -0.575   9.436  22.162  0.00  0.00    +0.000 C 
ENDROOT
BRANCH   5   9
ATOM      9  C   UNL     1       1.121  13.927  20.528  0.00  0.00    +0.000 A 
ATOM     10  C   UNL     1       2.509  13.843  20.372  0.00  0.00    +0.000 A 
ATOM     11  C   UNL     1       3.165  14.641  19.422  0.00  0.00    +0.000 A 
ATOM     12  C   UNL     1       2.441  15.544  18.626  0.00  0.00    +0.000 A 
ATOM     13  C   UNL     1       1.049  15.591  18.761  0.00  0.00    +0.000 A 
ATOM     14  C   UNL     1       0.397  14.752  19.662  0.00  0.00    +0.000 A 
BRANCH  12  15
ATOM     15  C   UNL     1       3.105  16.446  17.615  0.00  0.00    +0.000 C 
ATOM     16  F   UNL     1       2.319  17.472  17.189  0.00  0.00    +0.000 F 
ATOM     17  F   UNL     1       4.240  17.020  18.104  0.00  0.00    +0.000 F 
ATOM     18  F   UNL     1       3.485  15.771  16.495  0.00  0.00    +0.000 F 
ENDBRANCH  12  15
ENDBRANCH   5   9
BRANCH   1  19
ATOM     19  C   UNL     1       1.342   8.279  21.159  0.00  0.00    +0.000 C 
BRANCH  19  22
ATOM     20  C   UNL     1       2.265   4.886  20.069  0.00  0.00    +0.000 A 
ATOM     21  N   UNL     1       1.640   5.877  20.719  0.00  0.00    +0.000 NA
ATOM     22  C   UNL     1       1.842   7.131  20.268  0.00  0.00    +0.000 A 
ATOM     23  N   UNL     1       2.587   7.436  19.181  0.00  0.00    +0.000 NA
ATOM     24  C   UNL     1       3.197   6.419  18.536  0.00  0.00    +0.000 A 
ATOM     25  C   UNL     1       3.984   6.672  17.414  0.00  0.00    +0.000 A 
ATOM     26  C   UNL     1       4.679   5.658  16.736  0.00  0.00    +0.000 A 
ATOM     27  C   UNL     1       4.594   4.348  17.180  0.00  0.00    +0.000 A 
ATOM     28  C   UNL     1       3.798   4.059  18.285  0.00  0.00    +0.000 A 
ATOM     29  C   UNL     1       3.094   5.089  18.962  0.00  0.00    +0.000 A 
BRANCH  20  30
ATOM     30  N   UNL     1       2.030   3.605  20.585  0.00  0.00    +0.000 N 
ATOM     31  H   UNL     1       1.021   3.488  20.624  0.00  0.00    +0.000 HD
ATOM     32  H   UNL     1       2.450   3.497  21.500  0.00  0.00    +0.000 HD
ENDBRANCH  20  30
ENDBRANCH  19  22
ENDBRANCH   1  19
TORSDOF 5
ENDMDL
MODEL 8
REMARK VINA RESULT:      -7.8      7.151     10.797
REMARK  Name = 
REMARK  5 active torsions:
REMARK  status: ('A' for Active; 'I' for Inactive)
REMARK    1  A    between atoms: N_1  and  C_2
REMARK    2  A    between atoms: C_4  and  C_5
REMARK    3  A    between atoms: C_5  and  N_6
REMARK    4  A    between atoms: C_10  and  C_12
REMARK    5  A    between atoms: C_15  and  C_16
REMARK                            x       y       z     vdW  Elec       q    Type
REMARK                         _______ _______ _______ _____ _____    ______ ____
ROOT
ATOM      1  N   UNL     1       4.920  15.867  18.843  0.00  0.00    +0.000 NA
ATOM      2  C   UNL     1       4.514  15.196  20.089  0.00  0.00    +0.000 C 
ATOM      3  C   UNL     1       3.394  14.162  19.902  0.00  0.00    +0.000 C 
ATOM      4  N   UNL     1       2.212  14.657  19.184  0.00  0.00    +0.000 N 
ATOM      5  C   UNL     1       0.949  14.031  19.188  0.00  0.00    +0.000 C 
ATOM      6  O   UNL     1      -0.024  14.504  18.602  0.00  0.00    +0.000 OA
ATOM      7  C   UNL     1       2.455  15.623  18.106  0.00  0.00    +0.000 C 
ATOM      8  C   UNL     1       3.715  16.507  18.268  0.00  0.00    +0.000 C 
ENDROOT
BRANCH   5   9
ATOM      9  C   UNL     1       0.749  12.733  19.900  0.00  0.00    +0.000 A 
ATOM     10  C   UNL     1       1.106  11.530  19.280  0.00  0.00    +0.000 A 
ATOM     11  C   UNL     1       0.921  10.307  19.944  0.00  0.00    +0.000 A 
ATOM     12  C   UNL     1       0.360  10.272  21.231  0.00  0.00    +0.000 A 
ATOM     13  C   UNL     1       0.043  11.482  21.859  0.00  0.00    +0.000 A 
ATOM     14  C   UNL     1       0.288  12.695  21.220  0.00  0.00    +0.000 A 
BRANCH  12  15
ATOM     15  C   UNL     1       0.110   8.981  21.971  0.00  0.00    +0.000 C 
ATOM     16  F   UNL     1       1.190   8.155  22.020  0.00  0.00    +0.000 F 
ATOM     17  F   UNL     1      -0.259   9.193  23.266  0.00  0.00    +0.000 F 
ATOM     18  F   UNL     1      -0.897   8.254  21.413  0.00  0.00    +0.000 F 
ENDBRANCH  12  15
ENDBRANCH   5   9
BRANCH   1  19
ATOM     19  C   UNL     1       5.573  14.956  17.868  0.00  0.00    +0.000 C 
BRANCH  19  22
ATOM     20  C   UNL     1       9.196  15.606  17.882  0.00  0.00    +0.000 A 
ATOM     21  N   UNL     1       7.876  15.812  17.983  0.00  0.00    +0.000 NA
ATOM     22  C   UNL     1       7.085  14.722  18.013  0.00  0.00    +0.000 A 
ATOM     23  N   UNL     1       7.545  13.449  17.996  0.00  0.00    +0.000 NA
ATOM     24  C   UNL     1       8.880  13.268  17.905  0.00  0.00    +0.000 A 
ATOM     25  C   UNL     1       9.411  11.980  17.877  0.00  0.00    +0.000 A 
ATOM     26  C   UNL     1      10.786  11.736  17.734  0.00  0.00    +0.000 A 
ATOM     27  C   UNL     1      11.668  12.800  17.616  0.00  0.00    +0.000 A 
ATOM     28  C   UNL     1      11.170  14.098  17.662  0.00  0.00    +0.000 A 
ATOM     29  C   UNL     1       9.778  14.338  17.813  0.00  0.00    +0.000 A 
BRANCH  20  30
ATOM     30  N   UNL     1       9.971  16.773  17.845  0.00  0.00    +0.000 N 
ATOM     31  H   UNL     1       9.324  17.554  17.909  0.00  0.00    +0.000 HD
ATOM     32  H   UNL     1      10.524  16.818  16.998  0.00  0.00    +0.000 HD
ENDBRANCH  20  30
ENDBRANCH  19  22
ENDBRANCH   1  19
TORSDOF 5
ENDMDL
MODEL 9
REMARK VINA RESULT:      -7.8      6.507     10.802
REMARK  Name = 
REMARK  5 active torsions:
REMARK  status: ('A' for Active; 'I' for Inactive)
REMARK    1  A    between atoms: N_1  and  C_2
REMARK    2  A    between atoms: C_4  and  C_5
REMARK    3  A    between atoms: C_5  and  N_6
REMARK    4  A    between atoms: C_10  and  C_12
REMARK    5  A    between atoms: C_15  and  C_16
REMARK                            x       y       z     vdW  Elec       q    Type
REMARK                         _______ _______ _______ _____ _____    ______ ____
ROOT
ATOM      1  N   UNL     1       1.213  10.033  19.354  0.00  0.00    +0.000 NA
ATOM      2  C   UNL     1       1.276  11.369  19.969  0.00  0.00    +0.000 C 
ATOM      3  C   UNL     1      -0.019  11.788  20.680  0.00  0.00    +0.000 C 
ATOM      4  N   UNL     1      -1.237  11.662  19.867  0.00  0.00    +0.000 N 
ATOM      5  C   UNL     1      -2.465  12.288  20.158  0.00  0.00    +0.000 C 
ATOM      6  O   UNL     1      -3.448  12.184  19.425  0.00  0.00    +0.000 OA
ATOM      7  C   UNL     1      -1.289  10.529  18.935  0.00  0.00    +0.000 C 
ATOM      8  C   UNL     1       0.077  10.033  18.402  0.00  0.00    +0.000 C 
ENDROOT
BRANCH   5   9
ATOM      9  C   UNL     1      -2.627  13.100  21.402  0.00  0.00    +0.000 A 
ATOM     10  C   UNL     1      -2.383  14.478  21.377  0.00  0.00    +0.000 A 
ATOM     11  C   UNL     1      -2.533  15.246  22.541  0.00  0.00    +0.000 A 
ATOM     12  C   UNL     1      -2.915  14.641  23.751  0.00  0.00    +0.000 A 
ATOM     13  C   UNL     1      -3.196  13.271  23.757  0.00  0.00    +0.000 A 
ATOM     14  C   UNL     1      -3.105  12.526  22.584  0.00  0.00    +0.000 A 
BRANCH  12  15
ATOM     15  C   UNL     1      -3.057  15.419  25.036  0.00  0.00    +0.000 C 
ATOM     16  F   UNL     1      -4.254  16.053  25.168  0.00  0.00    +0.000 F 
ATOM     17  F   UNL     1      -2.930  14.625  26.136  0.00  0.00    +0.000 F 
ATOM     18  F   UNL     1      -2.103  16.383  25.163  0.00  0.00    +0.000 F 
ENDBRANCH  12  15
ENDBRANCH   5   9
BRANCH   1  19
ATOM     19  C   UNL     1       1.096   8.932  20.344  0.00  0.00    +0.000 C 
BRANCH  19  22
ATOM     20  C   UNL     1       3.043   6.394  18.524  0.00  0.00    +0.000 A 
ATOM     21  N   UNL     1       2.607   7.590  18.944  0.00  0.00    +0.000 NA
ATOM     22  C   UNL     1       1.798   7.604  20.021  0.00  0.00    +0.000 A 
ATOM     23  N   UNL     1       1.446   6.501  20.721  0.00  0.00    +0.000 NA
ATOM     24  C   UNL     1       1.908   5.310  20.285  0.00  0.00    +0.000 A 
ATOM     25  C   UNL     1       1.573   4.139  20.962  0.00  0.00    +0.000 A 
ATOM     26  C   UNL     1       1.985   2.871  20.523  0.00  0.00    +0.000 A 
ATOM     27  C   UNL     1       2.755   2.755  19.376  0.00  0.00    +0.000 A 
ATOM     28  C   UNL     1       3.124   3.908  18.689  0.00  0.00    +0.000 A 
ATOM     29  C   UNL     1       2.709   5.188  19.143  0.00  0.00    +0.000 A 
BRANCH  20  30
ATOM     30  N   UNL     1       3.873   6.435  17.395  0.00  0.00    +0.000 N 
ATOM     31  H   UNL     1       4.816   6.606  17.733  0.00  0.00    +0.000 HD
ATOM     32  H   UNL     1       3.575   7.156  16.749  0.00  0.00    +0.000 HD
ENDBRANCH  20  30
ENDBRANCH  19  22
ENDBRANCH   1  19
TORSDOF 5
ENDMDL
