MODEL 1
REMARK VINA RESULT:      -8.7      0.000      0.000
REMARK  Name = 
REMARK  5 active torsions:
REMARK  status: ('A' for Active; 'I' for Inactive)
REMARK    1  A    between atoms: C_4  and  C_5
REMARK    2  A    between atoms: C_8  and  N_9
REMARK    3  A    between atoms: N_9  and  C_10
REMARK    4  A    between atoms: C_10  and  C_11
REMARK    5  A    between atoms: N_15  and  C_16
REMARK                            x       y       z     vdW  Elec       q    Type
REMARK                         _______ _______ _______ _____ _____    ______ ____
ROOT
ATOM      1  N   UNL     1       3.820   5.930  17.320  0.00  0.00    +0.000 N 
ATOM      2  H   UNL     1       4.035   5.060  17.811  0.00  0.00    +0.000 HD
ENDROOT
BRANCH   1   6
ATOM      3  C   UNL     1       1.499   8.356  19.940  0.00  0.00    +0.000 A 
ATOM      4  C   UNL     1       1.924   7.063  20.283  0.00  0.00    +0.000 A 
ATOM      5  C   UNL     1       2.684   6.285  19.397  0.00  0.00    +0.000 A 
ATOM      6  C   UNL     1       3.011   6.743  18.118  0.00  0.00    +0.000 A 
ATOM      7  C   UNL     1       2.599   8.028  17.772  0.00  0.00    +0.000 A 
ATOM      8  C   UNL     1       1.860   8.817  18.664  0.00  0.00    +0.000 A 
BRANCH   3  12
ATOM      9  C   UNL     1      -0.795  10.791  22.672  0.00  0.00    +0.000 A 
ATOM     10  C   UNL     1      -0.772  11.097  21.315  0.00  0.00    +0.000 A 
ATOM     11  C   UNL     1      -0.025  10.311  20.431  0.00  0.00    +0.000 A 
ATOM     12  C   UNL     1       0.725   9.207  20.878  0.00  0.00    +0.000 A 
ATOM     13  C   UNL     1       0.688   8.928  22.261  0.00  0.00    +0.000 A 
ATOM     14  C   UNL     1      -0.065   9.707  23.145  0.00  0.00    +0.000 A 
ENDBRANCH   3  12
ENDBRANCH   1   6
BRANCH   1  15
ATOM     15  C   UNL     1       5.029   6.486  16.708  0.00  0.00    +0.000 C 
BRANCH  15  16
ATOM     16  C   UNL     1       6.285   5.785  17.091  0.00  0.00    +0.000 A 
ATOM     17  N   UNL     1       6.846   5.783  18.286  0.00  0.00    +0.000 NA
ATOM     18  N   UNL     1       7.834   4.838  18.248  0.00  0.00    +0.000 NA
ATOM     19  N   UNL     1       7.897   4.267  17.058  0.00  0.00    +0.000 NA
ATOM     20  N   UNL     1       7.004   4.919  16.277  0.00  0.00    +0.000 N 
BRANCH  20  21
ATOM     21  C   UNL     1       6.946   4.682  14.880  0.00  0.00    +0.000 A 
ATOM     22  C   UNL     1       7.784   5.417  14.021  0.00  0.00    +0.000 A 
ATOM     23  C   UNL     1       7.756   5.174  12.646  0.00  0.00    +0.000 A 
ATOM     24  C   UNL     1       6.875   4.236  12.113  0.00  0.00    +0.000 A 
ATOM     25  C   UNL     1       6.011   3.543  12.954  0.00  0.00    +0.000 A 
ATOM     26  C   UNL     1       6.042   3.762  14.333  0.00  0.00    +0.000 A 
ENDBRANCH  20  21
ENDBRANCH  15  16
ENDBRANCH   1  15
TORSDOF 5
ENDMDL
MODEL 2
REMARK VINA RESULT:      -8.7      0.218      1.362
REMARK  Name = 
REMARK  5 active torsions:
REMARK  status: ('A' for Active; 'I' for Inactive)
REMARK    1  A    between atoms: C_4  and  C_5
REMARK    2  A    between atoms: C_8  and  N_9
REMARK    3  A    between atoms: N_9  and  C_10
REMARK    4  A    between atoms: C_10  and  C_11
REMARK    5  A    between atoms: N_15  and  C_16
REMARK                            x       y       z     vdW  Elec       q    Type
REMARK                         _______ _______ _______ _____ _____    ______ ____
ROOT
ATOM      1  N   UNL     1       3.688   5.693  17.520  0.00  0.00    +0.000 N 
ATOM      2  H   UNL     1       3.951   4.823  17.988  0.00  0.00    +0.000 HD
ENDROOT
BRANCH   1   6
ATOM      3  C   UNL     1       1.494   8.316  20.058  0.00  0.00    +0.000 A 
ATOM      4  C   UNL     1       1.894   8.676  18.762  0.00  0.00    +0.000 A 
ATOM      5  C   UNL     1       2.620   7.792  17.949  0.00  0.00    +0.000 A 
ATOM      6  C   UNL     1       3.018   6.535  18.412  0.00  0.00    +0.000 A 
ATOM      7  C   UNL     1       2.620   6.167  19.695  0.00  0.00    +0.000 A 
ATOM      8  C   UNL     1       1.873   7.038  20.499  0.00  0.00    +0.000 A 
BRANCH   3  12
ATOM      9  C   UNL     1      -0.786  10.993  22.566  0.00  0.00    +0.000 A 
ATOM     10  C   UNL     1      -0.329   9.780  23.073  0.00  0.00    +0.000 A 
ATOM     11  C   UNL     1       0.404   8.911  22.259  0.00  0.00    +0.000 A 
ATOM     12  C   UNL     1       0.695   9.225  20.917  0.00  0.00    +0.000 A 
ATOM     13  C   UNL     1       0.211  10.457  20.431  0.00  0.00    +0.000 A 
ATOM     14  C   UNL     1      -0.516  11.331  21.245  0.00  0.00    +0.000 A 
ENDBRANCH   3  12
ENDBRANCH   1   6
BRANCH   1  15
ATOM     15  C   UNL     1       4.810   6.211  16.735  0.00  0.00    +0.000 C 
BRANCH  15  16
ATOM     16  C   UNL     1       6.133   5.637  17.106  0.00  0.00    +0.000 A 
ATOM     17  N   UNL     1       6.694   5.677  18.301  0.00  0.00    +0.000 NA
ATOM     18  N   UNL     1       7.773   4.839  18.249  0.00  0.00    +0.000 NA
ATOM     19  N   UNL     1       7.891   4.293  17.051  0.00  0.00    +0.000 NA
ATOM     20  N   UNL     1       6.934   4.860  16.279  0.00  0.00    +0.000 N 
BRANCH  20  21
ATOM     21  C   UNL     1       6.897   4.638  14.880  0.00  0.00    +0.000 A 
ATOM     22  C   UNL     1       7.763   5.365  14.043  0.00  0.00    +0.000 A 
ATOM     23  C   UNL     1       7.756   5.135  12.665  0.00  0.00    +0.000 A 
ATOM     24  C   UNL     1       6.867   4.219  12.108  0.00  0.00    +0.000 A 
ATOM     25  C   UNL     1       5.976   3.534  12.927  0.00  0.00    +0.000 A 
ATOM     26  C   UNL     1       5.986   3.740  14.308  0.00  0.00    +0.000 A 
ENDBRANCH  20  21
ENDBRANCH  15  16
ENDBRANCH   1  15
TORSDOF 5
ENDMDL
MODEL 3
REMARK VINA RESULT:      -8.6      0.114      1.363
REMARK  Name = 
REMARK  5 active torsions:
REMARK  status: ('A' for Active; 'I' for Inactive)
REMARK    1  A    between atoms: C_4  and  C_5
REMARK    2  A    between atoms: C_8  and  N_9
REMARK    3  A    between atoms: N_9  and  C_10
REMARK    4  A    between atoms: C_10  and  C_11
REMARK    5  A    between atoms: N_15  and  C_16
REMARK                            x       y       z     vdW  Elec       q    Type
REMARK                         _______ _______ _______ _____ _____    ______ ____
ROOT
ATOM      1  N   UNL     1       3.846   6.123  17.160  0.00  0.00    +0.000 N 
ATOM      2  H   UNL     1       3.964   5.159  17.479  0.00  0.00    +0.000 HD
ENDROOT
BRANCH   1   6
ATOM      3  C   UNL     1       1.575   8.442  19.917  0.00  0.00    +0.000 A 
ATOM      4  C   UNL     1       1.886   8.892  18.624  0.00  0.00    +0.000 A 
ATOM      5  C   UNL     1       2.639   8.108  17.738  0.00  0.00    +0.000 A 
ATOM      6  C   UNL     1       3.155   6.866  18.120  0.00  0.00    +0.000 A 
ATOM      7  C   UNL     1       2.847   6.408  19.399  0.00  0.00    +0.000 A 
ATOM      8  C   UNL     1       2.073   7.179  20.277  0.00  0.00    +0.000 A 
BRANCH   3  12
ATOM      9  C   UNL     1      -0.871  10.732  22.641  0.00  0.00    +0.000 A 
ATOM     10  C   UNL     1      -0.804  11.086  21.298  0.00  0.00    +0.000 A 
ATOM     11  C   UNL     1      -0.007  10.348  20.417  0.00  0.00    +0.000 A 
ATOM     12  C   UNL     1       0.748   9.243  20.854  0.00  0.00    +0.000 A 
ATOM     13  C   UNL     1       0.665   8.915  22.223  0.00  0.00    +0.000 A 
ATOM     14  C   UNL     1      -0.137   9.646  23.104  0.00  0.00    +0.000 A 
ENDBRANCH   3  12
ENDBRANCH   1   6
BRANCH   1  15
ATOM     15  C   UNL     1       5.102   6.637  16.608  0.00  0.00    +0.000 C 
BRANCH  15  16
ATOM     16  C   UNL     1       6.310   5.876  17.029  0.00  0.00    +0.000 A 
ATOM     17  N   UNL     1       6.840   5.856  18.238  0.00  0.00    +0.000 NA
ATOM     18  N   UNL     1       7.779   4.862  18.233  0.00  0.00    +0.000 NA
ATOM     19  N   UNL     1       7.843   4.277  17.050  0.00  0.00    +0.000 NA
ATOM     20  N   UNL     1       7.004   4.966  16.240  0.00  0.00    +0.000 N 
BRANCH  20  21
ATOM     21  C   UNL     1       6.969   4.719  14.845  0.00  0.00    +0.000 A 
ATOM     22  C   UNL     1       6.093   3.741  14.339  0.00  0.00    +0.000 A 
ATOM     23  C   UNL     1       6.029   3.509  12.963  0.00  0.00    +0.000 A 
ATOM     24  C   UNL     1       6.856   4.211  12.090  0.00  0.00    +0.000 A 
ATOM     25  C   UNL     1       7.758   5.144  12.591  0.00  0.00    +0.000 A 
ATOM     26  C   UNL     1       7.819   5.400  13.962  0.00  0.00    +0.000 A 
ENDBRANCH  20  21
ENDBRANCH  15  16
ENDBRANCH   1  15
TORSDOF 5
ENDMDL
MODEL 4
REMARK VINA RESULT:      -8.4      2.293      3.680
REMARK  Name = 
REMARK  5 active torsions:
REMARK  status: ('A' for Active; 'I' for Inactive)
REMARK    1  A    between atoms: C_4  and  C_5
REMARK    2  A    between atoms: C_8  and  N_9
REMARK    3  A    between atoms: N_9  and  C_10
REMARK    4  A    between atoms: C_10  and  C_11
REMARK    5  A    between atoms: N_15  and  C_16
REMARK                            x       y       z     vdW  Elec       q    Type
REMARK                         _______ _______ _______ _____ _____    ______ ____
ROOT
ATOM      1  N   UNL     1       3.235   7.100  17.210  0.00  0.00    +0.000 N 
ATOM      2  H   UNL     1       2.751   6.221  17.012  0.00  0.00    +0.000 HD
ENDROOT
BRANCH   1   6
ATOM      3  C   UNL     1       1.007   9.290  20.104  0.00  0.00    +0.000 A 
ATOM      4  C   UNL     1       1.220   9.759  18.798  0.00  0.00    +0.000 A 
ATOM      5  C   UNL     1       1.962   9.017  17.867  0.00  0.00    +0.000 A 
ATOM      6  C   UNL     1       2.562   7.803  18.212  0.00  0.00    +0.000 A 
ATOM      7  C   UNL     1       2.351   7.327  19.504  0.00  0.00    +0.000 A 
ATOM      8  C   UNL     1       1.589   8.054  20.429  0.00  0.00    +0.000 A 
BRANCH   3  12
ATOM      9  C   UNL     1      -1.404  11.453  22.962  0.00  0.00    +0.000 A 
ATOM     10  C   UNL     1      -1.110  12.019  21.725  0.00  0.00    +0.000 A 
ATOM     11  C   UNL     1      -0.325  11.320  20.802  0.00  0.00    +0.000 A 
ATOM     12  C   UNL     1       0.194  10.044  21.091  0.00  0.00    +0.000 A 
ATOM     13  C   UNL     1      -0.114   9.501  22.355  0.00  0.00    +0.000 A 
ATOM     14  C   UNL     1      -0.905  10.194  23.277  0.00  0.00    +0.000 A 
ENDBRANCH   3  12
ENDBRANCH   1   6
BRANCH   1  15
ATOM     15  C   UNL     1       4.677   6.874  17.324  0.00  0.00    +0.000 C 
BRANCH  15  16
ATOM     16  C   UNL     1       5.189   5.756  16.485  0.00  0.00    +0.000 A 
ATOM     17  N   UNL     1       5.992   5.865  15.442  0.00  0.00    +0.000 NA
ATOM     18  N   UNL     1       6.389   4.596  15.125  0.00  0.00    +0.000 NA
ATOM     19  N   UNL     1       5.845   3.711  15.941  0.00  0.00    +0.000 NA
ATOM     20  N   UNL     1       5.000   4.404  16.741  0.00  0.00    +0.000 N 
BRANCH  20  21
ATOM     21  C   UNL     1       4.108   3.733  17.617  0.00  0.00    +0.000 A 
ATOM     22  C   UNL     1       4.531   3.414  18.920  0.00  0.00    +0.000 A 
ATOM     23  C   UNL     1       3.653   2.778  19.801  0.00  0.00    +0.000 A 
ATOM     24  C   UNL     1       2.372   2.422  19.385  0.00  0.00    +0.000 A 
ATOM     25  C   UNL     1       1.967   2.693  18.082  0.00  0.00    +0.000 A 
ATOM     26  C   UNL     1       2.828   3.345  17.197  0.00  0.00    +0.000 A 
ENDBRANCH  20  21
ENDBRANCH  15  16
ENDBRANCH   1  15
TORSDOF 5
ENDMDL
MODEL 5
REMARK VINA RESULT:      -8.4      2.867      4.606
REMARK  Name = 
REMARK  5 active torsions:
REMARK  status: ('A' for Active; 'I' for Inactive)
REMARK    1  A    between atoms: C_4  and  C_5
REMARK    2  A    between atoms: C_8  and  N_9
REMARK    3  A    between atoms: N_9  and  C_10
REMARK    4  A    between atoms: C_10  and  C_11
REMARK    5  A    between atoms: N_15  and  C_16
REMARK                            x       y       z     vdW  Elec       q    Type
REMARK                         _______ _______ _______ _____ _____    ______ ____
ROOT
ATOM      1  N   UNL     1       3.319   7.411  17.547  0.00  0.00    +0.000 N 
ATOM      2  H   UNL     1       2.834   6.969  16.763  0.00  0.00    +0.000 HD
ENDROOT
BRANCH   1   6
ATOM      3  C   UNL     1       0.709   9.573  20.125  0.00  0.00    +0.000 A 
ATOM      4  C   UNL     1       1.336   8.378  20.512  0.00  0.00    +0.000 A 
ATOM      5  C   UNL     1       2.188   7.685  19.639  0.00  0.00    +0.000 A 
ATOM      6  C   UNL     1       2.412   8.127  18.332  0.00  0.00    +0.000 A 
ATOM      7  C   UNL     1       1.798   9.315  17.942  0.00  0.00    +0.000 A 
ATOM      8  C   UNL     1       0.966  10.023  18.820  0.00  0.00    +0.000 A 
BRANCH   3  12
ATOM      9  C   UNL     1      -1.880  11.760  22.804  0.00  0.00    +0.000 A 
ATOM     10  C   UNL     1      -1.735  12.170  21.482  0.00  0.00    +0.000 A 
ATOM     11  C   UNL     1      -0.893  11.465  20.616  0.00  0.00    +0.000 A 
ATOM     12  C   UNL     1      -0.167  10.338  21.048  0.00  0.00    +0.000 A 
ATOM     13  C   UNL     1      -0.328   9.953  22.395  0.00  0.00    +0.000 A 
ATOM     14  C   UNL     1      -1.176  10.651  23.260  0.00  0.00    +0.000 A 
ENDBRANCH   3  12
ENDBRANCH   1   6
BRANCH   1  15
ATOM     15  C   UNL     1       4.237   6.461  18.181  0.00  0.00    +0.000 C 
BRANCH  15  16
ATOM     16  C   UNL     1       4.324   5.144  17.493  0.00  0.00    +0.000 A 
ATOM     17  N   UNL     1       4.939   4.897  16.352  0.00  0.00    +0.000 NA
ATOM     18  N   UNL     1       4.970   3.537  16.215  0.00  0.00    +0.000 NA
ATOM     19  N   UNL     1       4.384   2.944  17.240  0.00  0.00    +0.000 NA
ATOM     20  N   UNL     1       3.873   3.935  18.009  0.00  0.00    +0.000 N 
BRANCH  20  21
ATOM     21  C   UNL     1       3.014   3.645  19.099  0.00  0.00    +0.000 A 
ATOM     22  C   UNL     1       1.670   4.059  19.048  0.00  0.00    +0.000 A 
ATOM     23  C   UNL     1       0.808   3.755  20.103  0.00  0.00    +0.000 A 
ATOM     24  C   UNL     1       1.278   3.079  21.226  0.00  0.00    +0.000 A 
ATOM     25  C   UNL     1       2.617   2.710  21.301  0.00  0.00    +0.000 A 
ATOM     26  C   UNL     1       3.486   2.991  20.245  0.00  0.00    +0.000 A 
ENDBRANCH  20  21
ENDBRANCH  15  16
ENDBRANCH   1  15
TORSDOF 5
ENDMDL
MODEL 6
REMARK VINA RESULT:      -8.4      2.260      3.352
REMARK  Name = 
REMARK  5 active torsions:
REMARK  status: ('A' for Active; 'I' for Inactive)
REMARK    1  A    between atoms: C_4  and  C_5
REMARK    2  A    between atoms: C_8  and  N_9
REMARK    3  A    between atoms: N_9  and  C_10
REMARK    4  A    between atoms: C_10  and  C_11
REMARK    5  A    between atoms: N_15  and  C_16
REMARK                            x       y       z     vdW  Elec       q    Type
REMARK                         _______ _______ _______ _____ _____    ______ ____
ROOT
ATOM      1  N   UNL     1       3.399   6.885  17.540  0.00  0.00    +0.000 N 
ATOM      2  H   UNL     1       3.165   5.892  17.621  0.00  0.00    +0.000 HD
ENDROOT
BRANCH   1   6
ATOM      3  C   UNL     1       0.936   9.183  20.146  0.00  0.00    +0.000 A 
ATOM      4  C   UNL     1       1.514   7.962  20.530  0.00  0.00    +0.000 A 
ATOM      5  C   UNL     1       2.318   7.224  19.649  0.00  0.00    +0.000 A 
ATOM      6  C   UNL     1       2.539   7.647  18.335  0.00  0.00    +0.000 A 
ATOM      7  C   UNL     1       1.975   8.860  17.947  0.00  0.00    +0.000 A 
ATOM      8  C   UNL     1       1.192   9.611  18.834  0.00  0.00    +0.000 A 
BRANCH   3  12
ATOM      9  C   UNL     1      -1.504  11.507  22.847  0.00  0.00    +0.000 A 
ATOM     10  C   UNL     1      -1.264  11.963  21.554  0.00  0.00    +0.000 A 
ATOM     11  C   UNL     1      -0.470  11.213  20.682  0.00  0.00    +0.000 A 
ATOM     12  C   UNL     1       0.113   9.993  21.077  0.00  0.00    +0.000 A 
ATOM     13  C   UNL     1      -0.142   9.563  22.396  0.00  0.00    +0.000 A 
ATOM     14  C   UNL     1      -0.943  10.307  23.268  0.00  0.00    +0.000 A 
ENDBRANCH   3  12
ENDBRANCH   1   6
BRANCH   1  15
ATOM     15  C   UNL     1       4.847   7.079  17.643  0.00  0.00    +0.000 C 
BRANCH  15  16
ATOM     16  C   UNL     1       5.653   6.086  16.881  0.00  0.00    +0.000 A 
ATOM     17  N   UNL     1       6.596   6.357  15.998  0.00  0.00    +0.000 NA
ATOM     18  N   UNL     1       7.223   5.173  15.725  0.00  0.00    +0.000 NA
ATOM     19  N   UNL     1       6.684   4.182  16.414  0.00  0.00    +0.000 NA
ATOM     20  N   UNL     1       5.623   4.709  17.070  0.00  0.00    +0.000 N 
BRANCH  20  21
ATOM     21  C   UNL     1       4.705   3.879  17.760  0.00  0.00    +0.000 A 
ATOM     22  C   UNL     1       3.623   3.316  17.059  0.00  0.00    +0.000 A 
ATOM     23  C   UNL     1       2.727   2.474  17.722  0.00  0.00    +0.000 A 
ATOM     24  C   UNL     1       2.874   2.219  19.083  0.00  0.00    +0.000 A 
ATOM     25  C   UNL     1       3.914   2.813  19.790  0.00  0.00    +0.000 A 
ATOM     26  C   UNL     1       4.828   3.642  19.136  0.00  0.00    +0.000 A 
ENDBRANCH  20  21
ENDBRANCH  15  16
ENDBRANCH   1  15
TORSDOF 5
ENDMDL
MODEL 7
REMARK VINA RESULT:      -8.4      2.352      3.720
REMARK  Name = 
REMARK  5 active torsions:
REMARK  status: ('A' for Active; 'I' for Inactive)
REMARK    1  A    between atoms: C_4  and  C_5
REMARK    2  A    between atoms: C_8  and  N_9
REMARK    3  A    between atoms: N_9  and  C_10
REMARK    4  A    between atoms: C_10  and  C_11
REMARK    5  A    between atoms: N_15  and  C_16
REMARK                            x       y       z     vdW  Elec       q    Type
REMARK                         _______ _______ _______ _____ _____    ______ ____
ROOT
ATOM      1  N   UNL     1       3.438   7.431  17.073  0.00  0.00    +0.000 N 
ATOM      2  H   UNL     1       2.905   6.850  16.422  0.00  0.00    +0.000 HD
ENDROOT
BRANCH   1   6
ATOM      3  C   UNL     1       0.973   9.274  20.016  0.00  0.00    +0.000 A 
ATOM      4  C   UNL     1       1.604   8.037  20.223  0.00  0.00    +0.000 A 
ATOM      5  C   UNL     1       2.407   7.452  19.233  0.00  0.00    +0.000 A 
ATOM      6  C   UNL     1       2.576   8.049  17.981  0.00  0.00    +0.000 A 
ATOM      7  C   UNL     1       1.958   9.280  17.769  0.00  0.00    +0.000 A 
ATOM      8  C   UNL     1       1.175   9.879  18.765  0.00  0.00    +0.000 A 
BRANCH   3  12
ATOM      9  C   UNL     1      -1.382  11.204  23.078  0.00  0.00    +0.000 A 
ATOM     10  C   UNL     1      -0.739  10.000  23.347  0.00  0.00    +0.000 A 
ATOM     11  C   UNL     1       0.019   9.372  22.353  0.00  0.00    +0.000 A 
ATOM     12  C   UNL     1       0.149   9.924  21.065  0.00  0.00    +0.000 A 
ATOM     13  C   UNL     1      -0.522  11.141  20.821  0.00  0.00    +0.000 A 
ATOM     14  C   UNL     1      -1.273  11.775  21.816  0.00  0.00    +0.000 A 
ENDBRANCH   3  12
ENDBRANCH   1   6
BRANCH   1  15
ATOM     15  C   UNL     1       4.611   6.704  17.564  0.00  0.00    +0.000 C 
BRANCH  15  16
ATOM     16  C   UNL     1       5.104   5.644  16.642  0.00  0.00    +0.000 A 
ATOM     17  N   UNL     1       6.030   5.786  15.712  0.00  0.00    +0.000 NA
ATOM     18  N   UNL     1       6.333   4.527  15.272  0.00  0.00    +0.000 NA
ATOM     19  N   UNL     1       5.611   3.618  15.905  0.00  0.00    +0.000 NA
ATOM     20  N   UNL     1       4.751   4.301  16.697  0.00  0.00    +0.000 N 
BRANCH  20  21
ATOM     21  C   UNL     1       3.702   3.636  17.380  0.00  0.00    +0.000 A 
ATOM     22  C   UNL     1       2.427   4.230  17.431  0.00  0.00    +0.000 A 
ATOM     23  C   UNL     1       1.378   3.572  18.077  0.00  0.00    +0.000 A 
ATOM     24  C   UNL     1       1.594   2.349  18.706  0.00  0.00    +0.000 A 
ATOM     25  C   UNL     1       2.864   1.781  18.699  0.00  0.00    +0.000 A 
ATOM     26  C   UNL     1       3.917   2.419  18.041  0.00  0.00    +0.000 A 
ENDBRANCH  20  21
ENDBRANCH  15  16
ENDBRANCH   1  15
TORSDOF 5
ENDMDL
MODEL 8
REMARK VINA RESULT:      -8.3      2.237      3.418
REMARK  Name = 
REMARK  5 active torsions:
REMARK  status: ('A' for Active; 'I' for Inactive)
REMARK    1  A    between atoms: C_4  and  C_5
REMARK    2  A    between atoms: C_8  and  N_9
REMARK    3  A    between atoms: N_9  and  C_10
REMARK    4  A    between atoms: C_10  and  C_11
REMARK    5  A    between atoms: N_15  and  C_16
REMARK                            x       y       z     vdW  Elec       q    Type
REMARK                         _______ _______ _______ _____ _____    ______ ____
ROOT
ATOM      1  N   UNL     1       3.414   6.788  17.580  0.00  0.00    +0.000 N 
ATOM      2  H   UNL     1       3.249   5.794  17.754  0.00  0.00    +0.000 HD
ENDROOT
BRANCH   1   6
ATOM      3  C   UNL     1       0.989   9.126  20.186  0.00  0.00    +0.000 A 
ATOM      4  C   UNL     1       1.572   7.911  20.580  0.00  0.00    +0.000 A 
ATOM      5  C   UNL     1       2.364   7.160  19.699  0.00  0.00    +0.000 A 
ATOM      6  C   UNL     1       2.566   7.562  18.375  0.00  0.00    +0.000 A 
ATOM      7  C   UNL     1       1.996   8.769  17.977  0.00  0.00    +0.000 A 
ATOM      8  C   UNL     1       1.226   9.535  18.864  0.00  0.00    +0.000 A 
BRANCH   3  12
ATOM      9  C   UNL     1      -1.319  11.555  22.910  0.00  0.00    +0.000 A 
ATOM     10  C   UNL     1      -0.961  10.258  23.264  0.00  0.00    +0.000 A 
ATOM     11  C   UNL     1      -0.218   9.470  22.379  0.00  0.00    +0.000 A 
ATOM     12  C   UNL     1       0.180   9.951  21.117  0.00  0.00    +0.000 A 
ATOM     13  C   UNL     1      -0.207  11.266  20.785  0.00  0.00    +0.000 A 
ATOM     14  C   UNL     1      -0.942  12.059  21.671  0.00  0.00    +0.000 A 
ENDBRANCH   3  12
ENDBRANCH   1   6
BRANCH   1  15
ATOM     15  C   UNL     1       4.851   7.072  17.559  0.00  0.00    +0.000 C 
BRANCH  15  16
ATOM     16  C   UNL     1       5.662   6.066  16.819  0.00  0.00    +0.000 A 
ATOM     17  N   UNL     1       6.621   6.323  15.950  0.00  0.00    +0.000 NA
ATOM     18  N   UNL     1       7.245   5.133  15.698  0.00  0.00    +0.000 NA
ATOM     19  N   UNL     1       6.687   4.152  16.386  0.00  0.00    +0.000 NA
ATOM     20  N   UNL     1       5.619   4.692  17.019  0.00  0.00    +0.000 N 
BRANCH  20  21
ATOM     21  C   UNL     1       4.683   3.874  17.701  0.00  0.00    +0.000 A 
ATOM     22  C   UNL     1       4.848   3.639  19.079  0.00  0.00    +0.000 A 
ATOM     23  C   UNL     1       3.917   2.858  19.768  0.00  0.00    +0.000 A 
ATOM     24  C   UNL     1       2.848   2.276  19.092  0.00  0.00    +0.000 A 
ATOM     25  C   UNL     1       2.709   2.466  17.721  0.00  0.00    +0.000 A 
ATOM     26  C   UNL     1       3.621   3.260  17.024  0.00  0.00    +0.000 A 
ENDBRANCH  20  21
ENDBRANCH  15  16
ENDBRANCH   1  15
TORSDOF 5
ENDMDL
MODEL 9
REMARK VINA RESULT:      -8.3      1.008      1.465
REMARK  Name = 
REMARK  5 active torsions:
REMARK  status: ('A' for Active; 'I' for Inactive)
REMARK    1  A    between atoms: C_4  and  C_5
REMARK    2  A    between atoms: C_8  and  N_9
REMARK    3  A    between atoms: N_9  and  C_10
REMARK    4  A    between atoms: C_10  and  C_11
REMARK    5  A    between atoms: N_15  and  C_16
REMARK                            x       y       z     vdW  Elec       q    Type
REMARK                         _______ _______ _______ _____ _____    ______ ____
ROOT
ATOM      1  N   UNL     1       3.554   4.019  18.124  0.00  0.00    +0.000 N 
ATOM      2  H   UNL     1       4.049   3.509  18.859  0.00  0.00    +0.000 HD
ENDROOT
BRANCH   1   6
ATOM      3  C   UNL     1       1.723   7.386  19.980  0.00  0.00    +0.000 A 
ATOM      4  C   UNL     1       1.714   6.106  20.556  0.00  0.00    +0.000 A 
ATOM      5  C   UNL     1       2.322   5.014  19.919  0.00  0.00    +0.000 A 
ATOM      6  C   UNL     1       2.921   5.141  18.663  0.00  0.00    +0.000 A 
ATOM      7  C   UNL     1       2.940   6.409  18.087  0.00  0.00    +0.000 A 
ATOM      8  C   UNL     1       2.355   7.508  18.732  0.00  0.00    +0.000 A 
BRANCH   3  12
ATOM      9  C   UNL     1       0.010  10.825  21.953  0.00  0.00    +0.000 A 
ATOM     10  C   UNL     1       0.220   9.646  22.662  0.00  0.00    +0.000 A 
ATOM     11  C   UNL     1       0.770   8.531  22.021  0.00  0.00    +0.000 A 
ATOM     12  C   UNL     1       1.117   8.560  20.657  0.00  0.00    +0.000 A 
ATOM     13  C   UNL     1       0.884   9.766  19.965  0.00  0.00    +0.000 A 
ATOM     14  C   UNL     1       0.342  10.885  20.604  0.00  0.00    +0.000 A 
ENDBRANCH   3  12
ENDBRANCH   1   6
BRANCH   1  15
ATOM     15  C   UNL     1       4.403   4.162  16.940  0.00  0.00    +0.000 C 
BRANCH  15  16
ATOM     16  C   UNL     1       5.842   4.396  17.243  0.00  0.00    +0.000 A 
ATOM     17  N   UNL     1       6.370   4.567  18.441  0.00  0.00    +0.000 NA
ATOM     18  N   UNL     1       7.727   4.513  18.277  0.00  0.00    +0.000 NA
ATOM     19  N   UNL     1       8.043   4.319  17.009  0.00  0.00    +0.000 NA
ATOM     20  N   UNL     1       6.878   4.349  16.319  0.00  0.00    +0.000 N 
BRANCH  20  21
ATOM     21  C   UNL     1       6.869   4.358  14.901  0.00  0.00    +0.000 A 
ATOM     22  C   UNL     1       7.710   5.250  14.212  0.00  0.00    +0.000 A 
ATOM     23  C   UNL     1       7.731   5.250  12.815  0.00  0.00    +0.000 A 
ATOM     24  C   UNL     1       6.892   4.400  12.099  0.00  0.00    +0.000 A 
ATOM     25  C   UNL     1       6.024   3.550  12.776  0.00  0.00    +0.000 A 
ATOM     26  C   UNL     1       6.007   3.527  14.172  0.00  0.00    +0.000 A 
ENDBRANCH  20  21
ENDBRANCH  15  16
ENDBRANCH   1  15
TORSDOF 5
ENDMDL
