MODEL 1
REMARK VINA RESULT:      -7.1      0.000      0.000
REMARK  Name = 
REMARK  4 active torsions:
REMARK  status: ('A' for Active; 'I' for Inactive)
REMARK    1  A    between atoms: C_2  and  C_3
REMARK    2  A    between atoms: C_6  and  S_7
REMARK    3  A    between atoms: S_7  and  C_10
REMARK    4  A    between atoms: C_10  and  C_11
REMARK                            x       y       z     vdW  Elec       q    Type
REMARK                         _______ _______ _______ _____ _____    ______ ____
ROOT
ATOM      1  C   UNL     1      -0.406  11.976  21.750  0.00  0.00    +0.000 A 
ATOM      2  C   UNL     1      -0.682  13.354  21.838  0.00  0.00    +0.000 A 
ATOM      3  C   UNL     1      -1.772  13.850  22.615  0.00  0.00    +0.000 A 
ATOM      4  C   UNL     1      -2.587  12.951  23.307  0.00  0.00    +0.000 A 
ATOM      5  C   UNL     1      -2.298  11.580  23.236  0.00  0.00    +0.000 A 
ATOM      6  C   UNL     1      -1.204  11.106  22.505  0.00  0.00    +0.000 A 
ENDROOT
BRANCH   1   8
ATOM      7  O   UNL     1       1.877  11.409  21.486  0.00  0.00    +0.000 OA
ATOM      8  C   UNL     1       0.768  11.430  20.951  0.00  0.00    +0.000 C 
ATOM      9  N   UNL     1       0.551  10.878  19.693  0.00  0.00    +0.000 N 
ATOM     10  C   UNL     1       1.396   9.899  18.967  0.00  0.00    +0.000 C 
ATOM     11  C   UNL     1       0.515   9.435  17.765  0.00  0.00    +0.000 C 
ATOM     12  N   UNL     1      -0.625  10.335  17.851  0.00  0.00    +0.000 N 
ATOM     13  C   UNL     1      -0.536  11.171  18.919  0.00  0.00    +0.000 A 
ATOM     14  N   UNL     1      -1.532  11.992  19.009  0.00  0.00    +0.000 NA
ATOM     15  C   UNL     1      -2.421  11.493  18.092  0.00  0.00    +0.000 A 
ATOM     16  C   UNL     1      -3.747  11.895  17.905  0.00  0.00    +0.000 A 
ATOM     17  C   UNL     1      -4.529  11.186  16.997  0.00  0.00    +0.000 A 
ATOM     18  C   UNL     1      -3.991  10.115  16.276  0.00  0.00    +0.000 A 
ATOM     19  C   UNL     1      -2.653   9.707  16.431  0.00  0.00    +0.000 A 
ATOM     20  C   UNL     1      -1.889  10.418  17.359  0.00  0.00    +0.000 A 
ENDBRANCH   1   8
BRANCH   4  21
ATOM     21  S   UNL     1      -3.989  13.353  24.362  0.00  0.00    +0.000 S 
ATOM     22  O   UNL     1      -4.452  12.075  24.873  0.00  0.00    +0.000 OA
ATOM     23  O   UNL     1      -3.469  14.369  25.263  0.00  0.00    +0.000 OA
BRANCH  21  24
ATOM     24  C   UNL     1      -5.331  14.091  23.450  0.00  0.00    +0.000 C 
BRANCH  24  25
ATOM     25  C   UNL     1      -6.048  13.044  22.606  0.00  0.00    +0.000 A 
ATOM     26  C   UNL     1      -5.621  12.729  21.308  0.00  0.00    +0.000 A 
ATOM     27  C   UNL     1      -6.332  11.812  20.526  0.00  0.00    +0.000 A 
ATOM     28  C   UNL     1      -7.465  11.227  21.059  0.00  0.00    +0.000 A 
ATOM     29  N   UNL     1      -7.916  11.499  22.298  0.00  0.00    +0.000 NA
ATOM     30  C   UNL     1      -7.203  12.388  23.039  0.00  0.00    +0.000 A 
ENDBRANCH  24  25
ENDBRANCH  21  24
ENDBRANCH   4  21
TORSDOF 4
ENDMDL
MODEL 2
REMARK VINA RESULT:      -7.0      4.461      8.077
REMARK  Name = 
REMARK  4 active torsions:
REMARK  status: ('A' for Active; 'I' for Inactive)
REMARK    1  A    between atoms: C_2  and  C_3
REMARK    2  A    between atoms: C_6  and  S_7
REMARK    3  A    between atoms: S_7  and  C_10
REMARK    4  A    between atoms: C_10  and  C_11
REMARK                            x       y       z     vdW  Elec       q    Type
REMARK                         _______ _______ _______ _____ _____    ______ ____
ROOT
ATOM      1  C   UNL     1       0.826   9.772  20.269  0.00  0.00    +0.000 A 
ATOM      2  C   UNL     1       1.274   9.998  18.952  0.00  0.00    +0.000 A 
ATOM      3  C   UNL     1       2.045   9.024  18.248  0.00  0.00    +0.000 A 
ATOM      4  C   UNL     1       2.366   7.818  18.875  0.00  0.00    +0.000 A 
ATOM      5  C   UNL     1       1.902   7.586  20.178  0.00  0.00    +0.000 A 
ATOM      6  C   UNL     1       1.113   8.528  20.846  0.00  0.00    +0.000 A 
ENDROOT
BRANCH   1   8
ATOM      7  O   UNL     1       0.344  11.121  22.153  0.00  0.00    +0.000 OA
ATOM      8  C   UNL     1      -0.021  10.784  21.025  0.00  0.00    +0.000 C 
ATOM      9  N   UNL     1      -1.111  11.379  20.401  0.00  0.00    +0.000 N 
ATOM     10  C   UNL     1      -1.760  12.671  20.730  0.00  0.00    +0.000 C 
ATOM     11  C   UNL     1      -2.717  12.947  19.527  0.00  0.00    +0.000 C 
ATOM     12  N   UNL     1      -2.634  11.706  18.774  0.00  0.00    +0.000 N 
ATOM     13  C   UNL     1      -1.760  10.827  19.333  0.00  0.00    +0.000 A 
ATOM     14  N   UNL     1      -1.680   9.707  18.688  0.00  0.00    +0.000 NA
ATOM     15  C   UNL     1      -2.352   9.978  17.524  0.00  0.00    +0.000 A 
ATOM     16  C   UNL     1      -2.416   9.169  16.386  0.00  0.00    +0.000 A 
ATOM     17  C   UNL     1      -3.056   9.671  15.256  0.00  0.00    +0.000 A 
ATOM     18  C   UNL     1      -3.640  10.942  15.272  0.00  0.00    +0.000 A 
ATOM     19  C   UNL     1      -3.607  11.765  16.413  0.00  0.00    +0.000 A 
ATOM     20  C   UNL     1      -2.944  11.252  17.531  0.00  0.00    +0.000 A 
ENDBRANCH   1   8
BRANCH   4  21
ATOM     21  S   UNL     1       3.297   6.447  18.172  0.00  0.00    +0.000 S 
ATOM     22  O   UNL     1       3.759   6.930  16.882  0.00  0.00    +0.000 OA
ATOM     23  O   UNL     1       4.245   6.096  19.217  0.00  0.00    +0.000 OA
BRANCH  21  24
ATOM     24  C   UNL     1       2.276   5.016  17.881  0.00  0.00    +0.000 C 
BRANCH  24  25
ATOM     25  C   UNL     1       2.276   4.098  19.099  0.00  0.00    +0.000 A 
ATOM     26  C   UNL     1       1.200   4.072  19.998  0.00  0.00    +0.000 A 
ATOM     27  C   UNL     1       1.249   3.269  21.144  0.00  0.00    +0.000 A 
ATOM     28  C   UNL     1       2.379   2.508  21.371  0.00  0.00    +0.000 A 
ATOM     29  N   UNL     1       3.438   2.502  20.539  0.00  0.00    +0.000 NA
ATOM     30  C   UNL     1       3.363   3.285  19.430  0.00  0.00    +0.000 A 
ENDBRANCH  24  25
ENDBRANCH  21  24
ENDBRANCH   4  21
TORSDOF 4
ENDMDL
MODEL 3
REMARK VINA RESULT:      -6.8      4.572      8.955
REMARK  Name = 
REMARK  4 active torsions:
REMARK  status: ('A' for Active; 'I' for Inactive)
REMARK    1  A    between atoms: C_2  and  C_3
REMARK    2  A    between atoms: C_6  and  S_7
REMARK    3  A    between atoms: S_7  and  C_10
REMARK    4  A    between atoms: C_10  and  C_11
REMARK                            x       y       z     vdW  Elec       q    Type
REMARK                         _______ _______ _______ _____ _____    ______ ____
ROOT
ATOM      1  C   UNL     1       1.413   9.407  19.966  0.00  0.00    +0.000 A 
ATOM      2  C   UNL     1       1.800   9.325  18.613  0.00  0.00    +0.000 A 
ATOM      3  C   UNL     1       2.234   8.095  18.034  0.00  0.00    +0.000 A 
ATOM      4  C   UNL     1       2.280   6.942  18.822  0.00  0.00    +0.000 A 
ATOM      5  C   UNL     1       1.875   7.022  20.163  0.00  0.00    +0.000 A 
ATOM      6  C   UNL     1       1.412   8.222  20.712  0.00  0.00    +0.000 A 
ENDROOT
BRANCH   1   8
ATOM      7  O   UNL     1       1.483  11.105  21.613  0.00  0.00    +0.000 OA
ATOM      8  C   UNL     1       0.920  10.702  20.594  0.00  0.00    +0.000 C 
ATOM      9  N   UNL     1      -0.067  11.447  19.959  0.00  0.00    +0.000 N 
ATOM     10  C   UNL     1      -0.354  12.895  20.103  0.00  0.00    +0.000 C 
ATOM     11  C   UNL     1      -1.354  13.214  18.947  0.00  0.00    +0.000 C 
ATOM     12  N   UNL     1      -1.651  11.891  18.421  0.00  0.00    +0.000 N 
ATOM     13  C   UNL     1      -0.947  10.918  19.058  0.00  0.00    +0.000 A 
ATOM     14  N   UNL     1      -1.206   9.729  18.617  0.00  0.00    +0.000 NA
ATOM     15  C   UNL     1      -1.928   9.978  17.478  0.00  0.00    +0.000 A 
ATOM     16  C   UNL     1      -2.311   9.046  16.509  0.00  0.00    +0.000 A 
ATOM     17  C   UNL     1      -2.944   9.513  15.360  0.00  0.00    +0.000 A 
ATOM     18  C   UNL     1      -3.209  10.877  15.195  0.00  0.00    +0.000 A 
ATOM     19  C   UNL     1      -2.853  11.830  16.168  0.00  0.00    +0.000 A 
ATOM     20  C   UNL     1      -2.202  11.345  17.305  0.00  0.00    +0.000 A 
ENDBRANCH   1   8
BRANCH   4  21
ATOM     21  S   UNL     1       2.765   5.290  18.298  0.00  0.00    +0.000 S 
ATOM     22  O   UNL     1       3.302   4.660  19.491  0.00  0.00    +0.000 OA
ATOM     23  O   UNL     1       1.573   4.765  17.652  0.00  0.00    +0.000 OA
BRANCH  21  24
ATOM     24  C   UNL     1       4.059   5.324  17.073  0.00  0.00    +0.000 C 
BRANCH  24  25
ATOM     25  C   UNL     1       5.382   5.755  17.698  0.00  0.00    +0.000 A 
ATOM     26  C   UNL     1       6.123   6.827  17.182  0.00  0.00    +0.000 A 
ATOM     27  C   UNL     1       7.365   7.165  17.731  0.00  0.00    +0.000 A 
ATOM     28  C   UNL     1       7.846   6.418  18.789  0.00  0.00    +0.000 A 
ATOM     29  N   UNL     1       7.172   5.378  19.317  0.00  0.00    +0.000 NA
ATOM     30  C   UNL     1       5.966   5.075  18.770  0.00  0.00    +0.000 A 
ENDBRANCH  24  25
ENDBRANCH  21  24
ENDBRANCH   4  21
TORSDOF 4
ENDMDL
MODEL 4
REMARK VINA RESULT:      -6.8      2.032      2.606
REMARK  Name = 
REMARK  4 active torsions:
REMARK  status: ('A' for Active; 'I' for Inactive)
REMARK    1  A    between atoms: C_2  and  C_3
REMARK    2  A    between atoms: C_6  and  S_7
REMARK    3  A    between atoms: S_7  and  C_10
REMARK    4  A    between atoms: C_10  and  C_11
REMARK                            x       y       z     vdW  Elec       q    Type
REMARK                         _______ _______ _______ _____ _____    ______ ____
ROOT
ATOM      1  C   UNL     1      -2.364  13.356  22.223  0.00  0.00    +0.000 A 
ATOM      2  C   UNL     1      -2.846  14.638  21.891  0.00  0.00    +0.000 A 
ATOM      3  C   UNL     1      -4.232  14.963  21.990  0.00  0.00    +0.000 A 
ATOM      4  C   UNL     1      -5.137  13.991  22.426  0.00  0.00    +0.000 A 
ATOM      5  C   UNL     1      -4.652  12.722  22.776  0.00  0.00    +0.000 A 
ATOM      6  C   UNL     1      -3.287  12.424  22.715  0.00  0.00    +0.000 A 
ENDROOT
BRANCH   1   8
ATOM      7  O   UNL     1      -0.156  13.360  23.075  0.00  0.00    +0.000 OA
ATOM      8  C   UNL     1      -0.887  12.999  22.151  0.00  0.00    +0.000 C 
ATOM      9  N   UNL     1      -0.418  12.196  21.117  0.00  0.00    +0.000 N 
ATOM     10  C   UNL     1       0.803  11.356  21.095  0.00  0.00    +0.000 C 
ATOM     11  C   UNL     1       0.650  10.475  19.815  0.00  0.00    +0.000 C 
ATOM     12  N   UNL     1      -0.526  11.051  19.181  0.00  0.00    +0.000 N 
ATOM     13  C   UNL     1      -1.063  12.057  19.921  0.00  0.00    +0.000 A 
ATOM     14  N   UNL     1      -2.103  12.596  19.370  0.00  0.00    +0.000 NA
ATOM     15  C   UNL     1      -2.388  11.730  18.346  0.00  0.00    +0.000 A 
ATOM     16  C   UNL     1      -3.526  11.736  17.535  0.00  0.00    +0.000 A 
ATOM     17  C   UNL     1      -3.689  10.700  16.619  0.00  0.00    +0.000 A 
ATOM     18  C   UNL     1      -2.724   9.694  16.500  0.00  0.00    +0.000 A 
ATOM     19  C   UNL     1      -1.560   9.679  17.290  0.00  0.00    +0.000 A 
ATOM     20  C   UNL     1      -1.423  10.717  18.217  0.00  0.00    +0.000 A 
ENDBRANCH   1   8
BRANCH   4  21
ATOM     21  S   UNL     1      -6.912  14.187  22.651  0.00  0.00    +0.000 S 
ATOM     22  O   UNL     1      -7.086  14.423  24.073  0.00  0.00    +0.000 OA
ATOM     23  O   UNL     1      -7.277  15.205  21.678  0.00  0.00    +0.000 OA
BRANCH  21  24
ATOM     24  C   UNL     1      -7.813  12.708  22.232  0.00  0.00    +0.000 C 
BRANCH  24  25
ATOM     25  C   UNL     1      -7.588  12.336  20.770  0.00  0.00    +0.000 A 
ATOM     26  C   UNL     1      -7.050  11.094  20.404  0.00  0.00    +0.000 A 
ATOM     27  C   UNL     1      -6.791  10.798  19.061  0.00  0.00    +0.000 A 
ATOM     28  C   UNL     1      -7.073  11.755  18.106  0.00  0.00    +0.000 A 
ATOM     29  N   UNL     1      -7.588  12.963  18.409  0.00  0.00    +0.000 NA
ATOM     30  C   UNL     1      -7.836  13.223  19.720  0.00  0.00    +0.000 A 
ENDBRANCH  24  25
ENDBRANCH  21  24
ENDBRANCH   4  21
TORSDOF 4
ENDMDL
MODEL 5
REMARK VINA RESULT:      -6.7      4.480      8.710
REMARK  Name = 
REMARK  4 active torsions:
REMARK  status: ('A' for Active; 'I' for Inactive)
REMARK    1  A    between atoms: C_2  and  C_3
REMARK    2  A    between atoms: C_6  and  S_7
REMARK    3  A    between atoms: S_7  and  C_10
REMARK    4  A    between atoms: C_10  and  C_11
REMARK                            x       y       z     vdW  Elec       q    Type
REMARK                         _______ _______ _______ _____ _____    ______ ____
ROOT
ATOM      1  C   UNL     1       1.300   9.696  20.160  0.00  0.00    +0.000 A 
ATOM      2  C   UNL     1       1.794   9.446  18.865  0.00  0.00    +0.000 A 
ATOM      3  C   UNL     1       2.166   8.133  18.448  0.00  0.00    +0.000 A 
ATOM      4  C   UNL     1       2.040   7.066  19.342  0.00  0.00    +0.000 A 
ATOM      5  C   UNL     1       1.528   7.314  20.625  0.00  0.00    +0.000 A 
ATOM      6  C   UNL     1       1.128   8.597  21.011  0.00  0.00    +0.000 A 
ENDROOT
BRANCH   1   8
ATOM      7  O   UNL     1       1.445  11.582  21.583  0.00  0.00    +0.000 OA
ATOM      8  C   UNL     1       0.871  11.083  20.614  0.00  0.00    +0.000 C 
ATOM      9  N   UNL     1      -0.071  11.792  19.876  0.00  0.00    +0.000 N 
ATOM     10  C   UNL     1      -0.281  13.259  19.833  0.00  0.00    +0.000 C 
ATOM     11  C   UNL     1      -1.254  13.481  18.632  0.00  0.00    +0.000 C 
ATOM     12  N   UNL     1      -1.616  12.119  18.272  0.00  0.00    +0.000 N 
ATOM     13  C   UNL     1      -0.970  11.200  19.036  0.00  0.00    +0.000 A 
ATOM     14  N   UNL     1      -1.288   9.979  18.744  0.00  0.00    +0.000 NA
ATOM     15  C   UNL     1      -1.986  10.120  17.572  0.00  0.00    +0.000 A 
ATOM     16  C   UNL     1      -2.411   9.094  16.722  0.00  0.00    +0.000 A 
ATOM     17  C   UNL     1      -3.009   9.444  15.515  0.00  0.00    +0.000 A 
ATOM     18  C   UNL     1      -3.200  10.788  15.176  0.00  0.00    +0.000 A 
ATOM     19  C   UNL     1      -2.802  11.837  16.027  0.00  0.00    +0.000 A 
ATOM     20  C   UNL     1      -2.186  11.466  17.225  0.00  0.00    +0.000 A 
ENDBRANCH   1   8
BRANCH   4  21
ATOM     21  S   UNL     1       2.421   5.336  19.024  0.00  0.00    +0.000 S 
ATOM     22  O   UNL     1       1.899   4.619  20.175  0.00  0.00    +0.000 OA
ATOM     23  O   UNL     1       1.883   5.099  17.694  0.00  0.00    +0.000 OA
BRANCH  21  24
ATOM     24  C   UNL     1       4.175   5.034  18.947  0.00  0.00    +0.000 C 
BRANCH  24  25
ATOM     25  C   UNL     1       4.675   5.131  17.509  0.00  0.00    +0.000 A 
ATOM     26  C   UNL     1       4.938   3.985  16.745  0.00  0.00    +0.000 A 
ATOM     27  C   UNL     1       5.458   4.096  15.450  0.00  0.00    +0.000 A 
ATOM     28  C   UNL     1       5.709   5.356  14.944  0.00  0.00    +0.000 A 
ATOM     29  N   UNL     1       5.476   6.485  15.640  0.00  0.00    +0.000 NA
ATOM     30  C   UNL     1       4.965   6.350  16.892  0.00  0.00    +0.000 A 
ENDBRANCH  24  25
ENDBRANCH  21  24
ENDBRANCH   4  21
TORSDOF 4
ENDMDL
MODEL 6
REMARK VINA RESULT:      -6.6      3.228      5.840
REMARK  Name = 
REMARK  4 active torsions:
REMARK  status: ('A' for Active; 'I' for Inactive)
REMARK    1  A    between atoms: C_2  and  C_3
REMARK    2  A    between atoms: C_6  and  S_7
REMARK    3  A    between atoms: S_7  and  C_10
REMARK    4  A    between atoms: C_10  and  C_11
REMARK                            x       y       z     vdW  Elec       q    Type
REMARK                         _______ _______ _______ _____ _____    ______ ____
ROOT
ATOM      1  C   UNL     1       0.499  12.294  18.923  0.00  0.00    +0.000 A 
ATOM      2  C   UNL     1       0.465  10.886  18.966  0.00  0.00    +0.000 A 
ATOM      3  C   UNL     1      -0.628  10.148  18.420  0.00  0.00    +0.000 A 
ATOM      4  C   UNL     1      -1.692  10.834  17.828  0.00  0.00    +0.000 A 
ATOM      5  C   UNL     1      -1.646  12.234  17.767  0.00  0.00    +0.000 A 
ATOM      6  C   UNL     1      -0.552  12.947  18.267  0.00  0.00    +0.000 A 
ENDROOT
BRANCH   1   8
ATOM      7  O   UNL     1       2.711  13.129  18.818  0.00  0.00    +0.000 OA
ATOM      8  C   UNL     1       1.668  13.097  19.473  0.00  0.00    +0.000 C 
ATOM      9  N   UNL     1       1.507  13.850  20.630  0.00  0.00    +0.000 N 
ATOM     10  C   UNL     1       2.292  15.028  21.070  0.00  0.00    +0.000 C 
ATOM     11  C   UNL     1       1.479  15.618  22.265  0.00  0.00    +0.000 C 
ATOM     12  N   UNL     1       0.453  14.607  22.471  0.00  0.00    +0.000 N 
ATOM     13  C   UNL     1       0.541  13.599  21.563  0.00  0.00    +0.000 A 
ATOM     14  N   UNL     1      -0.352  12.678  21.735  0.00  0.00    +0.000 NA
ATOM     15  C   UNL     1      -1.204  13.248  22.646  0.00  0.00    +0.000 A 
ATOM     16  C   UNL     1      -2.448  12.755  23.053  0.00  0.00    +0.000 A 
ATOM     17  C   UNL     1      -3.220  13.539  23.905  0.00  0.00    +0.000 A 
ATOM     18  C   UNL     1      -2.750  14.775  24.360  0.00  0.00    +0.000 A 
ATOM     19  C   UNL     1      -1.492  15.281  23.983  0.00  0.00    +0.000 A 
ATOM     20  C   UNL     1      -0.739  14.489  23.112  0.00  0.00    +0.000 A 
ENDBRANCH   1   8
BRANCH   4  21
ATOM     21  S   UNL     1      -3.150  10.112  17.057  0.00  0.00    +0.000 S 
ATOM     22  O   UNL     1      -2.727   9.756  15.714  0.00  0.00    +0.000 OA
ATOM     23  O   UNL     1      -3.572   9.087  18.000  0.00  0.00    +0.000 OA
BRANCH  21  24
ATOM     24  C   UNL     1      -4.487  11.281  16.914  0.00  0.00    +0.000 C 
BRANCH  24  25
ATOM     25  C   UNL     1      -5.245  11.397  18.231  0.00  0.00    +0.000 A 
ATOM     26  C   UNL     1      -6.493  10.784  18.416  0.00  0.00    +0.000 A 
ATOM     27  C   UNL     1      -7.201  10.957  19.611  0.00  0.00    +0.000 A 
ATOM     28  C   UNL     1      -6.648  11.745  20.600  0.00  0.00    +0.000 A 
ATOM     29  N   UNL     1      -5.454  12.355  20.469  0.00  0.00    +0.000 NA
ATOM     30  C   UNL     1      -4.784  12.166  19.302  0.00  0.00    +0.000 A 
ENDBRANCH  24  25
ENDBRANCH  21  24
ENDBRANCH   4  21
TORSDOF 4
ENDMDL
MODEL 7
REMARK VINA RESULT:      -6.6      2.023      2.708
REMARK  Name = 
REMARK  4 active torsions:
REMARK  status: ('A' for Active; 'I' for Inactive)
REMARK    1  A    between atoms: C_2  and  C_3
REMARK    2  A    between atoms: C_6  and  S_7
REMARK    3  A    between atoms: S_7  and  C_10
REMARK    4  A    between atoms: C_10  and  C_11
REMARK                            x       y       z     vdW  Elec       q    Type
REMARK                         _______ _______ _______ _____ _____    ______ ____
ROOT
ATOM      1  C   UNL     1      -2.234  13.513  22.174  0.00  0.00    +0.000 A 
ATOM      2  C   UNL     1      -3.098  12.504  22.643  0.00  0.00    +0.000 A 
ATOM      3  C   UNL     1      -4.501  12.724  22.778  0.00  0.00    +0.000 A 
ATOM      4  C   UNL     1      -5.037  13.969  22.438  0.00  0.00    +0.000 A 
ATOM      5  C   UNL     1      -4.179  14.967  21.951  0.00  0.00    +0.000 A 
ATOM      6  C   UNL     1      -2.811  14.729  21.784  0.00  0.00    +0.000 A 
ENDROOT
BRANCH   1   8
ATOM      7  O   UNL     1       0.022  13.742  22.852  0.00  0.00    +0.000 OA
ATOM      8  C   UNL     1      -0.740  13.289  21.997  0.00  0.00    +0.000 C 
ATOM      9  N   UNL     1      -0.279  12.500  20.948  0.00  0.00    +0.000 N 
ATOM     10  C   UNL     1       1.010  11.774  20.851  0.00  0.00    +0.000 C 
ATOM     11  C   UNL     1       0.843  10.844  19.607  0.00  0.00    +0.000 C 
ATOM     12  N   UNL     1      -0.425  11.292  19.054  0.00  0.00    +0.000 N 
ATOM     13  C   UNL     1      -0.996  12.267  19.810  0.00  0.00    +0.000 A 
ATOM     14  N   UNL     1      -2.120  12.694  19.329  0.00  0.00    +0.000 NA
ATOM     15  C   UNL     1      -2.399  11.775  18.350  0.00  0.00    +0.000 A 
ATOM     16  C   UNL     1      -3.591  11.654  17.629  0.00  0.00    +0.000 A 
ATOM     17  C   UNL     1      -3.726  10.581  16.753  0.00  0.00    +0.000 A 
ATOM     18  C   UNL     1      -2.685   9.663  16.584  0.00  0.00    +0.000 A 
ATOM     19  C   UNL     1      -1.467   9.777  17.281  0.00  0.00    +0.000 A 
ATOM     20  C   UNL     1      -1.357  10.850  18.169  0.00  0.00    +0.000 A 
ENDBRANCH   1   8
BRANCH   4  21
ATOM     21  S   UNL     1      -6.769  14.457  22.502  0.00  0.00    +0.000 S 
ATOM     22  O   UNL     1      -7.004  14.824  23.888  0.00  0.00    +0.000 OA
ATOM     23  O   UNL     1      -6.894  15.442  21.440  0.00  0.00    +0.000 OA
BRANCH  21  24
ATOM     24  C   UNL     1      -7.865  13.109  22.105  0.00  0.00    +0.000 C 
BRANCH  24  25
ATOM     25  C   UNL     1      -7.520  12.519  20.741  0.00  0.00    +0.000 A 
ATOM     26  C   UNL     1      -7.621  13.278  19.567  0.00  0.00    +0.000 A 
ATOM     27  C   UNL     1      -7.362  12.699  18.319  0.00  0.00    +0.000 A 
ATOM     28  C   UNL     1      -7.010  11.364  18.270  0.00  0.00    +0.000 A 
ATOM     29  N   UNL     1      -6.903  10.594  19.370  0.00  0.00    +0.000 NA
ATOM     30  C   UNL     1      -7.153  11.182  20.569  0.00  0.00    +0.000 A 
ENDBRANCH  24  25
ENDBRANCH  21  24
ENDBRANCH   4  21
TORSDOF 4
ENDMDL
MODEL 8
REMARK VINA RESULT:      -6.6      4.566      8.220
REMARK  Name = 
REMARK  4 active torsions:
REMARK  status: ('A' for Active; 'I' for Inactive)
REMARK    1  A    between atoms: C_2  and  C_3
REMARK    2  A    between atoms: C_6  and  S_7
REMARK    3  A    between atoms: S_7  and  C_10
REMARK    4  A    between atoms: C_10  and  C_11
REMARK                            x       y       z     vdW  Elec       q    Type
REMARK                         _______ _______ _______ _____ _____    ______ ____
ROOT
ATOM      1  C   UNL     1       0.833   9.835  20.274  0.00  0.00    +0.000 A 
ATOM      2  C   UNL     1       1.315  10.094  18.976  0.00  0.00    +0.000 A 
ATOM      3  C   UNL     1       2.081   9.129  18.257  0.00  0.00    +0.000 A 
ATOM      4  C   UNL     1       2.362   7.895  18.849  0.00  0.00    +0.000 A 
ATOM      5  C   UNL     1       1.863   7.630  20.133  0.00  0.00    +0.000 A 
ATOM      6  C   UNL     1       1.079   8.566  20.815  0.00  0.00    +0.000 A 
ENDROOT
BRANCH   1   8
ATOM      7  O   UNL     1       0.372  11.180  22.166  0.00  0.00    +0.000 OA
ATOM      8  C   UNL     1      -0.009  10.840  21.045  0.00  0.00    +0.000 C 
ATOM      9  N   UNL     1      -1.116  11.425  20.440  0.00  0.00    +0.000 N 
ATOM     10  C   UNL     1      -1.770  12.711  20.781  0.00  0.00    +0.000 C 
ATOM     11  C   UNL     1      -2.751  12.978  19.596  0.00  0.00    +0.000 C 
ATOM     12  N   UNL     1      -2.671  11.737  18.841  0.00  0.00    +0.000 N 
ATOM     13  C   UNL     1      -1.780  10.866  19.385  0.00  0.00    +0.000 A 
ATOM     14  N   UNL     1      -1.701   9.747  18.739  0.00  0.00    +0.000 NA
ATOM     15  C   UNL     1      -2.396  10.012  17.587  0.00  0.00    +0.000 A 
ATOM     16  C   UNL     1      -2.474   9.202  16.450  0.00  0.00    +0.000 A 
ATOM     17  C   UNL     1      -3.138   9.697  15.332  0.00  0.00    +0.000 A 
ATOM     18  C   UNL     1      -3.733  10.964  15.357  0.00  0.00    +0.000 A 
ATOM     19  C   UNL     1      -3.687  11.787  16.498  0.00  0.00    +0.000 A 
ATOM     20  C   UNL     1      -3.000  11.281  17.604  0.00  0.00    +0.000 A 
ENDBRANCH   1   8
BRANCH   4  21
ATOM     21  S   UNL     1       3.279   6.528  18.121  0.00  0.00    +0.000 S 
ATOM     22  O   UNL     1       2.278   5.721  17.446  0.00  0.00    +0.000 OA
ATOM     23  O   UNL     1       4.339   7.180  17.368  0.00  0.00    +0.000 OA
BRANCH  21  24
ATOM     24  C   UNL     1       4.059   5.505  19.354  0.00  0.00    +0.000 C 
BRANCH  24  25
ATOM     25  C   UNL     1       3.374   4.145  19.437  0.00  0.00    +0.000 A 
ATOM     26  C   UNL     1       3.796   3.062  18.651  0.00  0.00    +0.000 A 
ATOM     27  C   UNL     1       3.113   1.842  18.695  0.00  0.00    +0.000 A 
ATOM     28  C   UNL     1       2.015   1.728  19.525  0.00  0.00    +0.000 A 
ATOM     29  N   UNL     1       1.570   2.739  20.296  0.00  0.00    +0.000 NA
ATOM     30  C   UNL     1       2.255   3.912  20.240  0.00  0.00    +0.000 A 
ENDBRANCH  24  25
ENDBRANCH  21  24
ENDBRANCH   4  21
TORSDOF 4
ENDMDL
MODEL 9
REMARK VINA RESULT:      -6.6      4.666      9.002
REMARK  Name = 
REMARK  4 active torsions:
REMARK  status: ('A' for Active; 'I' for Inactive)
REMARK    1  A    between atoms: C_2  and  C_3
REMARK    2  A    between atoms: C_6  and  S_7
REMARK    3  A    between atoms: S_7  and  C_10
REMARK    4  A    between atoms: C_10  and  C_11
REMARK                            x       y       z     vdW  Elec       q    Type
REMARK                         _______ _______ _______ _____ _____    ______ ____
ROOT
ATOM      1  C   UNL     1       0.728   9.891  20.332  0.00  0.00    +0.000 A 
ATOM      2  C   UNL     1       1.144  10.134  19.008  0.00  0.00    +0.000 A 
ATOM      3  C   UNL     1       1.886   9.164  18.269  0.00  0.00    +0.000 A 
ATOM      4  C   UNL     1       2.210   7.944  18.867  0.00  0.00    +0.000 A 
ATOM      5  C   UNL     1       1.777   7.695  20.178  0.00  0.00    +0.000 A 
ATOM      6  C   UNL     1       1.016   8.634  20.881  0.00  0.00    +0.000 A 
ENDROOT
BRANCH   1   8
ATOM      7  O   UNL     1       0.329  11.240  22.235  0.00  0.00    +0.000 OA
ATOM      8  C   UNL     1      -0.088  10.899  21.127  0.00  0.00    +0.000 C 
ATOM      9  N   UNL     1      -1.212  11.485  20.555  0.00  0.00    +0.000 N 
ATOM     10  C   UNL     1      -1.852  12.774  20.912  0.00  0.00    +0.000 C 
ATOM     11  C   UNL     1      -2.868  13.041  19.757  0.00  0.00    +0.000 C 
ATOM     12  N   UNL     1      -2.813  11.798  19.003  0.00  0.00    +0.000 N 
ATOM     13  C   UNL     1      -1.908  10.926  19.521  0.00  0.00    +0.000 A 
ATOM     14  N   UNL     1      -1.851   9.806  18.875  0.00  0.00    +0.000 NA
ATOM     15  C   UNL     1      -2.581  10.070  17.744  0.00  0.00    +0.000 A 
ATOM     16  C   UNL     1      -2.695   9.257  16.612  0.00  0.00    +0.000 A 
ATOM     17  C   UNL     1      -3.392   9.753  15.514  0.00  0.00    +0.000 A 
ATOM     18  C   UNL     1      -3.982  11.020  15.555  0.00  0.00    +0.000 A 
ATOM     19  C   UNL     1      -3.900  11.845  16.692  0.00  0.00    +0.000 A 
ATOM     20  C   UNL     1      -3.181  11.340  17.778  0.00  0.00    +0.000 A 
ENDBRANCH   1   8
BRANCH   4  21
ATOM     21  S   UNL     1       3.108   6.576  18.117  0.00  0.00    +0.000 S 
ATOM     22  O   UNL     1       2.079   5.664  17.648  0.00  0.00    +0.000 OA
ATOM     23  O   UNL     1       4.012   7.223  17.180  0.00  0.00    +0.000 OA
BRANCH  21  24
ATOM     24  C   UNL     1       4.111   5.698  19.300  0.00  0.00    +0.000 C 
BRANCH  24  25
ATOM     25  C   UNL     1       5.448   5.302  18.683  0.00  0.00    +0.000 A 
ATOM     26  C   UNL     1       5.521   4.668  17.434  0.00  0.00    +0.000 A 
ATOM     27  C   UNL     1       6.753   4.255  16.915  0.00  0.00    +0.000 A 
ATOM     28  C   UNL     1       7.894   4.480  17.660  0.00  0.00    +0.000 A 
ATOM     29  N   UNL     1       7.875   5.082  18.865  0.00  0.00    +0.000 NA
ATOM     30  C   UNL     1       6.666   5.480  19.343  0.00  0.00    +0.000 A 
ENDBRANCH  24  25
ENDBRANCH  21  24
ENDBRANCH   4  21
TORSDOF 4
ENDMDL
