MODEL 1
REMARK VINA RESULT:      -8.6      0.000      0.000
REMARK  Name = 
REMARK  3 active torsions:
REMARK  status: ('A' for Active; 'I' for Inactive)
REMARK    1  A    between atoms: C_2  and  C_3
REMARK    2  A    between atoms: C_20  and  C_21
REMARK    3  A    between atoms: C_21  and  C_22
REMARK                            x       y       z     vdW  Elec       q    Type
REMARK                         _______ _______ _______ _____ _____    ______ ____
ROOT
ATOM      1  O   UNL     1       4.635   5.726  20.094  0.00  0.00    +0.000 OA
ATOM      2  C   UNL     1       3.561   5.651  19.462  0.00  0.00    +0.000 C 
ATOM      3  N   UNL     1       3.299   4.635  18.538  0.00  0.00    +0.000 N 
ATOM      4  C   UNL     1       2.092   4.628  17.701  0.00  0.00    +0.000 C 
ATOM      5  C   UNL     1       0.905   3.857  18.297  0.00  0.00    +0.000 C 
ATOM      6  C   UNL     1       1.088   2.351  18.403  0.00  0.00    +0.000 C 
ATOM      7  C   UNL     1       2.377   1.896  19.077  0.00  0.00    +0.000 C 
ATOM      8  C   UNL     1       3.604   2.168  18.207  0.00  0.00    +0.000 C 
ATOM      9  C   UNL     1       4.277   3.543  18.367  0.00  0.00    +0.000 C 
ENDROOT
BRANCH   2  10
ATOM     10  C   UNL     1       2.540   6.730  19.693  0.00  0.00    +0.000 A 
ATOM     11  C   UNL     1       2.416   7.742  18.788  0.00  0.00    +0.000 A 
ATOM     12  C   UNL     1       1.512   8.751  19.093  0.00  0.00    +0.000 A 
ATOM     13  C   UNL     1       1.433   9.933  18.225  0.00  0.00    +0.000 A 
ATOM     14  O   UNL     1       2.210  10.106  17.297  0.00  0.00    +0.000 OA
ATOM     15  N   UNL     1       0.458  10.829  18.553  0.00  0.00    +0.000 N 
ATOM     16  C   UNL     1      -0.336  10.690  19.659  0.00  0.00    +0.000 A 
ATOM     17  N   UNL     1      -0.271   9.705  20.484  0.00  0.00    +0.000 NA
ATOM     18  C   UNL     1       0.688   8.705  20.212  0.00  0.00    +0.000 A 
ATOM     19  C   UNL     1       0.857   7.634  21.056  0.00  0.00    +0.000 A 
ATOM     20  N   UNL     1       1.789   6.682  20.828  0.00  0.00    +0.000 NA
ATOM     21  H   UNL     1       0.395  11.649  17.968  0.00  0.00    +0.000 HD
ENDBRANCH   2  10
BRANCH   9  22
ATOM     22  C   UNL     1       5.266   3.810  17.188  0.00  0.00    +0.000 C 
BRANCH  22  23
ATOM     23  C   UNL     1       6.245   4.965  17.399  0.00  0.00    +0.000 A 
ATOM     24  C   UNL     1       7.286   4.819  18.336  0.00  0.00    +0.000 A 
ATOM     25  C   UNL     1       8.080   5.897  18.720  0.00  0.00    +0.000 A 
ATOM     26  C   UNL     1       7.918   7.141  18.111  0.00  0.00    +0.000 A 
ATOM     27  C   UNL     1       6.976   7.280  17.093  0.00  0.00    +0.000 A 
ATOM     28  C   UNL     1       6.134   6.209  16.749  0.00  0.00    +0.000 A 
ATOM     29 CL   UNL     1       4.994   6.498  15.481  0.00  0.00    +0.000 Cl
ENDBRANCH  22  23
ENDBRANCH   9  22
TORSDOF 3
ENDMDL
MODEL 2
REMARK VINA RESULT:      -7.7      2.066      2.728
REMARK  Name = 
REMARK  3 active torsions:
REMARK  status: ('A' for Active; 'I' for Inactive)
REMARK    1  A    between atoms: C_2  and  C_3
REMARK    2  A    between atoms: C_20  and  C_21
REMARK    3  A    between atoms: C_21  and  C_22
REMARK                            x       y       z     vdW  Elec       q    Type
REMARK                         _______ _______ _______ _____ _____    ______ ____
ROOT
ATOM      1  O   UNL     1       4.576   6.642  18.485  0.00  0.00    +0.000 OA
ATOM      2  C   UNL     1       3.371   6.382  18.682  0.00  0.00    +0.000 C 
ATOM      3  N   UNL     1       2.882   5.074  18.740  0.00  0.00    +0.000 N 
ATOM      4  C   UNL     1       1.447   4.777  18.837  0.00  0.00    +0.000 C 
ATOM      5  C   UNL     1       0.921   4.623  20.272  0.00  0.00    +0.000 C 
ATOM      6  C   UNL     1       1.433   3.406  21.029  0.00  0.00    +0.000 C 
ATOM      7  C   UNL     1       2.945   3.220  21.021  0.00  0.00    +0.000 C 
ATOM      8  C   UNL     1       3.463   2.809  19.643  0.00  0.00    +0.000 C 
ATOM      9  C   UNL     1       3.828   3.944  18.671  0.00  0.00    +0.000 C 
ENDROOT
BRANCH   2  10
ATOM     10  C   UNL     1       2.423   7.540  18.820  0.00  0.00    +0.000 A 
ATOM     11  C   UNL     1       2.023   7.934  20.062  0.00  0.00    +0.000 A 
ATOM     12  C   UNL     1       1.086   8.958  20.125  0.00  0.00    +0.000 A 
ATOM     13  C   UNL     1       0.517   9.334  21.427  0.00  0.00    +0.000 A 
ATOM     14  O   UNL     1       0.767   8.706  22.446  0.00  0.00    +0.000 OA
ATOM     15  N   UNL     1      -0.327  10.404  21.403  0.00  0.00    +0.000 N 
ATOM     16  C   UNL     1      -0.694  11.034  20.244  0.00  0.00    +0.000 A 
ATOM     17  N   UNL     1      -0.272  10.711  19.072  0.00  0.00    +0.000 NA
ATOM     18  C   UNL     1       0.636   9.632  18.996  0.00  0.00    +0.000 A 
ATOM     19  C   UNL     1       1.112   9.189  17.785  0.00  0.00    +0.000 A 
ATOM     20  N   UNL     1       1.959   8.140  17.689  0.00  0.00    +0.000 NA
ATOM     21  H   UNL     1      -0.730  10.671  22.289  0.00  0.00    +0.000 HD
ENDBRANCH   2  10
BRANCH   9  22
ATOM     22  C   UNL     1       3.990   3.392  17.218  0.00  0.00    +0.000 C 
BRANCH  22  23
ATOM     23  C   UNL     1       5.109   4.026  16.394  0.00  0.00    +0.000 A 
ATOM     24  C   UNL     1       4.928   4.196  15.008  0.00  0.00    +0.000 A 
ATOM     25  C   UNL     1       5.977   4.576  14.174  0.00  0.00    +0.000 A 
ATOM     26  C   UNL     1       7.225   4.887  14.713  0.00  0.00    +0.000 A 
ATOM     27  C   UNL     1       7.396   4.844  16.095  0.00  0.00    +0.000 A 
ATOM     28  C   UNL     1       6.355   4.403  16.930  0.00  0.00    +0.000 A 
ATOM     29 CL   UNL     1       6.683   4.378  18.628  0.00  0.00    +0.000 Cl
ENDBRANCH  22  23
ENDBRANCH   9  22
TORSDOF 3
ENDMDL
MODEL 3
REMARK VINA RESULT:      -7.6      1.557      1.818
REMARK  Name = 
REMARK  3 active torsions:
REMARK  status: ('A' for Active; 'I' for Inactive)
REMARK    1  A    between atoms: C_2  and  C_3
REMARK    2  A    between atoms: C_20  and  C_21
REMARK    3  A    between atoms: C_21  and  C_22
REMARK                            x       y       z     vdW  Elec       q    Type
REMARK                         _______ _______ _______ _____ _____    ______ ____
ROOT
ATOM      1  O   UNL     1       4.776   5.975  18.447  0.00  0.00    +0.000 OA
ATOM      2  C   UNL     1       3.555   5.728  18.519  0.00  0.00    +0.000 C 
ATOM      3  N   UNL     1       2.996   4.542  18.032  0.00  0.00    +0.000 N 
ATOM      4  C   UNL     1       1.545   4.316  17.998  0.00  0.00    +0.000 C 
ATOM      5  C   UNL     1       0.977   3.616  19.241  0.00  0.00    +0.000 C 
ATOM      6  C   UNL     1       1.405   2.168  19.431  0.00  0.00    +0.000 C 
ATOM      7  C   UNL     1       2.905   1.915  19.348  0.00  0.00    +0.000 C 
ATOM      8  C   UNL     1       3.434   2.076  17.923  0.00  0.00    +0.000 C 
ATOM      9  C   UNL     1       3.883   3.487  17.504  0.00  0.00    +0.000 C 
ENDROOT
BRANCH   2  10
ATOM     10  C   UNL     1       2.665   6.779  19.121  0.00  0.00    +0.000 A 
ATOM     11  C   UNL     1       2.412   7.923  18.426  0.00  0.00    +0.000 A 
ATOM     12  C   UNL     1       1.648   8.892  19.065  0.00  0.00    +0.000 A 
ATOM     13  C   UNL     1       1.455  10.197  18.420  0.00  0.00    +0.000 A 
ATOM     14  O   UNL     1       2.030  10.497  17.383  0.00  0.00    +0.000 OA
ATOM     15  N   UNL     1       0.621  11.051  19.079  0.00  0.00    +0.000 N 
ATOM     16  C   UNL     1       0.069  10.757  20.296  0.00  0.00    +0.000 A 
ATOM     17  N   UNL     1       0.250   9.654  20.932  0.00  0.00    +0.000 NA
ATOM     18  C   UNL     1       1.074   8.688  20.315  0.00  0.00    +0.000 A 
ATOM     19  C   UNL     1       1.357   7.495  20.934  0.00  0.00    +0.000 A 
ATOM     20  N   UNL     1       2.167   6.569  20.371  0.00  0.00    +0.000 NA
ATOM     21  H   UNL     1       0.483  11.955  18.650  0.00  0.00    +0.000 HD
ENDBRANCH   2  10
BRANCH   9  22
ATOM     22  C   UNL     1       4.051   3.573  15.954  0.00  0.00    +0.000 C 
BRANCH  22  23
ATOM     23  C   UNL     1       5.420   4.042  15.465  0.00  0.00    +0.000 A 
ATOM     24  C   UNL     1       6.385   4.444  16.409  0.00  0.00    +0.000 A 
ATOM     25  C   UNL     1       7.568   5.070  16.024  0.00  0.00    +0.000 A 
ATOM     26  C   UNL     1       7.869   5.234  14.673  0.00  0.00    +0.000 A 
ATOM     27  C   UNL     1       6.986   4.734  13.717  0.00  0.00    +0.000 A 
ATOM     28  C   UNL     1       5.765   4.158  14.104  0.00  0.00    +0.000 A 
ATOM     29 CL   UNL     1       4.741   3.584  12.834  0.00  0.00    +0.000 Cl
ENDBRANCH  22  23
ENDBRANCH   9  22
TORSDOF 3
ENDMDL
MODEL 4
REMARK VINA RESULT:      -7.5      1.341      1.744
REMARK  Name = 
REMARK  3 active torsions:
REMARK  status: ('A' for Active; 'I' for Inactive)
REMARK    1  A    between atoms: C_2  and  C_3
REMARK    2  A    between atoms: C_20  and  C_21
REMARK    3  A    between atoms: C_21  and  C_22
REMARK                            x       y       z     vdW  Elec       q    Type
REMARK                         _______ _______ _______ _____ _____    ______ ____
ROOT
ATOM      1  O   UNL     1       4.620   6.074  20.060  0.00  0.00    +0.000 OA
ATOM      2  C   UNL     1       3.652   5.954  19.281  0.00  0.00    +0.000 C 
ATOM      3  N   UNL     1       3.419   4.790  18.543  0.00  0.00    +0.000 N 
ATOM      4  C   UNL     1       2.358   4.703  17.530  0.00  0.00    +0.000 C 
ATOM      5  C   UNL     1       1.016   4.173  18.054  0.00  0.00    +0.000 C 
ATOM      6  C   UNL     1       1.010   2.713  18.482  0.00  0.00    +0.000 C 
ATOM      7  C   UNL     1       2.122   2.309  19.441  0.00  0.00    +0.000 C 
ATOM      8  C   UNL     1       3.489   2.293  18.757  0.00  0.00    +0.000 C 
ATOM      9  C   UNL     1       4.282   3.612  18.758  0.00  0.00    +0.000 C 
ENDROOT
BRANCH   2  10
ATOM     10  C   UNL     1       2.736   7.135  19.120  0.00  0.00    +0.000 A 
ATOM     11  C   UNL     1       1.991   7.557  20.180  0.00  0.00    +0.000 A 
ATOM     12  C   UNL     1       1.106   8.602  19.951  0.00  0.00    +0.000 A 
ATOM     13  C   UNL     1       0.182   9.010  21.017  0.00  0.00    +0.000 A 
ATOM     14  O   UNL     1       0.096   8.391  22.069  0.00  0.00    +0.000 OA
ATOM     15  N   UNL     1      -0.588  10.099  20.732  0.00  0.00    +0.000 N 
ATOM     16  C   UNL     1      -0.571  10.720  19.513  0.00  0.00    +0.000 A 
ATOM     17  N   UNL     1       0.176  10.371  18.525  0.00  0.00    +0.000 NA
ATOM     18  C   UNL     1       1.035   9.270  18.733  0.00  0.00    +0.000 A 
ATOM     19  C   UNL     1       1.842   8.799  17.726  0.00  0.00    +0.000 A 
ATOM     20  N   UNL     1       2.651   7.729  17.897  0.00  0.00    +0.000 NA
ATOM     21  H   UNL     1      -1.232  10.388  21.455  0.00  0.00    +0.000 HD
ENDBRANCH   2  10
BRANCH   9  22
ATOM     22  C   UNL     1       5.461   3.545  17.736  0.00  0.00    +0.000 C 
BRANCH  22  23
ATOM     23  C   UNL     1       6.370   4.772  17.698  0.00  0.00    +0.000 A 
ATOM     24  C   UNL     1       7.304   4.967  18.734  0.00  0.00    +0.000 A 
ATOM     25  C   UNL     1       8.013   6.158  18.865  0.00  0.00    +0.000 A 
ATOM     26  C   UNL     1       7.879   7.165  17.910  0.00  0.00    +0.000 A 
ATOM     27  C   UNL     1       7.053   6.947  16.808  0.00  0.00    +0.000 A 
ATOM     28  C   UNL     1       6.292   5.770  16.708  0.00  0.00    +0.000 A 
ATOM     29 CL   UNL     1       5.291   5.613  15.305  0.00  0.00    +0.000 Cl
ENDBRANCH  22  23
ENDBRANCH   9  22
TORSDOF 3
ENDMDL
MODEL 5
REMARK VINA RESULT:      -7.4      1.559      2.066
REMARK  Name = 
REMARK  3 active torsions:
REMARK  status: ('A' for Active; 'I' for Inactive)
REMARK    1  A    between atoms: C_2  and  C_3
REMARK    2  A    between atoms: C_20  and  C_21
REMARK    3  A    between atoms: C_21  and  C_22
REMARK                            x       y       z     vdW  Elec       q    Type
REMARK                         _______ _______ _______ _____ _____    ______ ____
ROOT
ATOM      1  O   UNL     1       4.477   6.381  19.004  0.00  0.00    +0.000 OA
ATOM      2  C   UNL     1       3.287   6.072  19.221  0.00  0.00    +0.000 C 
ATOM      3  N   UNL     1       2.810   4.765  19.083  0.00  0.00    +0.000 N 
ATOM      4  C   UNL     1       1.385   4.433  19.208  0.00  0.00    +0.000 C 
ATOM      5  C   UNL     1       0.944   4.028  20.622  0.00  0.00    +0.000 C 
ATOM      6  C   UNL     1       1.507   2.709  21.131  0.00  0.00    +0.000 C 
ATOM      7  C   UNL     1       3.017   2.552  21.007  0.00  0.00    +0.000 C 
ATOM      8  C   UNL     1       3.457   2.389  19.553  0.00  0.00    +0.000 C 
ATOM      9  C   UNL     1       3.758   3.679  18.769  0.00  0.00    +0.000 C 
ENDROOT
BRANCH   2  10
ATOM     10  C   UNL     1       2.340   7.174  19.608  0.00  0.00    +0.000 A 
ATOM     11  C   UNL     1       2.170   8.237  18.773  0.00  0.00    +0.000 A 
ATOM     12  C   UNL     1       1.344   9.261  19.218  0.00  0.00    +0.000 A 
ATOM     13  C   UNL     1       1.229  10.490  18.423  0.00  0.00    +0.000 A 
ATOM     14  O   UNL     1       1.916  10.684  17.430  0.00  0.00    +0.000 OA
ATOM     15  N   UNL     1       0.330  11.402  18.892  0.00  0.00    +0.000 N 
ATOM     16  C   UNL     1      -0.355  11.233  20.065  0.00  0.00    +0.000 A 
ATOM     17  N   UNL     1      -0.250  10.203  20.829  0.00  0.00    +0.000 NA
ATOM     18  C   UNL     1       0.635   9.185  20.411  0.00  0.00    +0.000 A 
ATOM     19  C   UNL     1       0.842   8.065  21.180  0.00  0.00    +0.000 A 
ATOM     20  N   UNL     1       1.705   7.092  20.811  0.00  0.00    +0.000 NA
ATOM     21  H   UNL     1       0.244  12.255  18.358  0.00  0.00    +0.000 HD
ENDBRANCH   2  10
BRANCH   9  22
ATOM     22  C   UNL     1       3.840   3.385  17.237  0.00  0.00    +0.000 C 
BRANCH  22  23
ATOM     23  C   UNL     1       5.016   4.029  16.504  0.00  0.00    +0.000 A 
ATOM     24  C   UNL     1       4.915   4.262  15.119  0.00  0.00    +0.000 A 
ATOM     25  C   UNL     1       6.017   4.654  14.362  0.00  0.00    +0.000 A 
ATOM     26  C   UNL     1       7.239   4.914  14.982  0.00  0.00    +0.000 A 
ATOM     27  C   UNL     1       7.331   4.808  16.369  0.00  0.00    +0.000 A 
ATOM     28  C   UNL     1       6.237   4.355  17.124  0.00  0.00    +0.000 A 
ATOM     29 CL   UNL     1       6.468   4.249  18.835  0.00  0.00    +0.000 Cl
ENDBRANCH  22  23
ENDBRANCH   9  22
TORSDOF 3
ENDMDL
MODEL 6
REMARK VINA RESULT:      -7.4      1.959      4.241
REMARK  Name = 
REMARK  3 active torsions:
REMARK  status: ('A' for Active; 'I' for Inactive)
REMARK    1  A    between atoms: C_2  and  C_3
REMARK    2  A    between atoms: C_20  and  C_21
REMARK    3  A    between atoms: C_21  and  C_22
REMARK                            x       y       z     vdW  Elec       q    Type
REMARK                         _______ _______ _______ _____ _____    ______ ____
ROOT
ATOM      1  O   UNL     1       1.266   4.843  17.354  0.00  0.00    +0.000 OA
ATOM      2  C   UNL     1       2.215   5.388  17.953  0.00  0.00    +0.000 C 
ATOM      3  N   UNL     1       3.522   4.893  17.903  0.00  0.00    +0.000 N 
ATOM      4  C   UNL     1       4.607   5.459  18.715  0.00  0.00    +0.000 C 
ATOM      5  C   UNL     1       5.415   6.565  18.022  0.00  0.00    +0.000 C 
ATOM      6  C   UNL     1       6.260   6.116  16.839  0.00  0.00    +0.000 C 
ATOM      7  C   UNL     1       5.526   5.291  15.789  0.00  0.00    +0.000 C 
ATOM      8  C   UNL     1       5.173   3.895  16.302  0.00  0.00    +0.000 C 
ATOM      9  C   UNL     1       3.826   3.742  17.030  0.00  0.00    +0.000 C 
ENDROOT
BRANCH   2  10
ATOM     10  C   UNL     1       1.910   6.602  18.785  0.00  0.00    +0.000 A 
ATOM     11  C   UNL     1       1.852   7.827  18.189  0.00  0.00    +0.000 A 
ATOM     12  C   UNL     1       1.644   8.920  19.020  0.00  0.00    +0.000 A 
ATOM     13  C   UNL     1       1.706  10.275  18.455  0.00  0.00    +0.000 A 
ATOM     14  O   UNL     1       2.036  10.477  17.295  0.00  0.00    +0.000 OA
ATOM     15  N   UNL     1       1.403  11.280  19.326  0.00  0.00    +0.000 N 
ATOM     16  C   UNL     1       1.145  11.061  20.652  0.00  0.00    +0.000 A 
ATOM     17  N   UNL     1       1.134   9.902  21.211  0.00  0.00    +0.000 NA
ATOM     18  C   UNL     1       1.404   8.790  20.383  0.00  0.00    +0.000 A 
ATOM     19  C   UNL     1       1.451   7.517  20.897  0.00  0.00    +0.000 A 
ATOM     20  N   UNL     1       1.736   6.443  20.126  0.00  0.00    +0.000 NA
ATOM     21  H   UNL     1       1.447  12.218  18.953  0.00  0.00    +0.000 HD
ENDBRANCH   2  10
BRANCH   9  22
ATOM     22  C   UNL     1       3.767   2.383  17.797  0.00  0.00    +0.000 C 
BRANCH  22  23
ATOM     23  C   UNL     1       2.931   2.384  19.076  0.00  0.00    +0.000 A 
ATOM     24  C   UNL     1       1.528   2.437  18.978  0.00  0.00    +0.000 A 
ATOM     25  C   UNL     1       0.724   2.645  20.096  0.00  0.00    +0.000 A 
ATOM     26  C   UNL     1       1.293   2.718  21.367  0.00  0.00    +0.000 A 
ATOM     27  C   UNL     1       2.670   2.545  21.503  0.00  0.00    +0.000 A 
ATOM     28  C   UNL     1       3.486   2.396  20.370  0.00  0.00    +0.000 A 
ATOM     29 CL   UNL     1       5.181   2.203  20.657  0.00  0.00    +0.000 Cl
ENDBRANCH  22  23
ENDBRANCH   9  22
TORSDOF 3
ENDMDL
MODEL 7
REMARK VINA RESULT:      -7.2      2.271      4.534
REMARK  Name = 
REMARK  3 active torsions:
REMARK  status: ('A' for Active; 'I' for Inactive)
REMARK    1  A    between atoms: C_2  and  C_3
REMARK    2  A    between atoms: C_20  and  C_21
REMARK    3  A    between atoms: C_21  and  C_22
REMARK                            x       y       z     vdW  Elec       q    Type
REMARK                         _______ _______ _______ _____ _____    ______ ____
ROOT
ATOM      1  O   UNL     1       1.755   5.211  17.718  0.00  0.00    +0.000 OA
ATOM      2  C   UNL     1       2.687   6.000  17.976  0.00  0.00    +0.000 C 
ATOM      3  N   UNL     1       4.030   5.611  17.966  0.00  0.00    +0.000 N 
ATOM      4  C   UNL     1       5.109   6.507  18.400  0.00  0.00    +0.000 C 
ATOM      5  C   UNL     1       5.745   7.335  17.274  0.00  0.00    +0.000 C 
ATOM      6  C   UNL     1       6.539   6.542  16.246  0.00  0.00    +0.000 C 
ATOM      7  C   UNL     1       5.816   5.343  15.647  0.00  0.00    +0.000 C 
ATOM      8  C   UNL     1       5.648   4.211  16.660  0.00  0.00    +0.000 C 
ATOM      9  C   UNL     1       4.383   4.244  17.535  0.00  0.00    +0.000 C 
ENDROOT
BRANCH   2  10
ATOM     10  C   UNL     1       2.322   7.411  18.346  0.00  0.00    +0.000 A 
ATOM     11  C   UNL     1       1.913   7.686  19.617  0.00  0.00    +0.000 A 
ATOM     12  C   UNL     1       1.515   8.991  19.880  0.00  0.00    +0.000 A 
ATOM     13  C   UNL     1       0.938   9.316  21.191  0.00  0.00    +0.000 A 
ATOM     14  O   UNL     1       0.702   8.454  22.026  0.00  0.00    +0.000 OA
ATOM     15  N   UNL     1       0.657  10.636  21.389  0.00  0.00    +0.000 N 
ATOM     16  C   UNL     1       0.815  11.583  20.413  0.00  0.00    +0.000 A 
ATOM     17  N   UNL     1       1.262  11.344  19.231  0.00  0.00    +0.000 NA
ATOM     18  C   UNL     1       1.613  10.008  18.938  0.00  0.00    +0.000 A 
ATOM     19  C   UNL     1       2.063   9.649  17.690  0.00  0.00    +0.000 A 
ATOM     20  N   UNL     1       2.377   8.371  17.382  0.00  0.00    +0.000 NA
ATOM     21  H   UNL     1       0.255  10.874  22.285  0.00  0.00    +0.000 HD
ENDBRANCH   2  10
BRANCH   9  22
ATOM     22  C   UNL     1       4.522   3.259  18.740  0.00  0.00    +0.000 C 
BRANCH  22  23
ATOM     23  C   UNL     1       3.290   3.135  19.635  0.00  0.00    +0.000 A 
ATOM     24  C   UNL     1       3.309   3.725  20.913  0.00  0.00    +0.000 A 
ATOM     25  C   UNL     1       2.307   3.477  21.848  0.00  0.00    +0.000 A 
ATOM     26  C   UNL     1       1.202   2.699  21.503  0.00  0.00    +0.000 A 
ATOM     27  C   UNL     1       1.100   2.205  20.204  0.00  0.00    +0.000 A 
ATOM     28  C   UNL     1       2.140   2.405  19.280  0.00  0.00    +0.000 A 
ATOM     29 CL   UNL     1       1.912   1.735  17.702  0.00  0.00    +0.000 Cl
ENDBRANCH  22  23
ENDBRANCH   9  22
TORSDOF 3
ENDMDL
MODEL 8
REMARK VINA RESULT:      -7.0      4.193      7.281
REMARK  Name = 
REMARK  3 active torsions:
REMARK  status: ('A' for Active; 'I' for Inactive)
REMARK    1  A    between atoms: C_2  and  C_3
REMARK    2  A    between atoms: C_20  and  C_21
REMARK    3  A    between atoms: C_21  and  C_22
REMARK                            x       y       z     vdW  Elec       q    Type
REMARK                         _______ _______ _______ _____ _____    ______ ____
ROOT
ATOM      1  O   UNL     1      -0.606   9.490  22.090  0.00  0.00    +0.000 OA
ATOM      2  C   UNL     1      -0.603  10.591  21.502  0.00  0.00    +0.000 C 
ATOM      3  N   UNL     1      -0.223  10.730  20.163  0.00  0.00    +0.000 N 
ATOM      4  C   UNL     1      -0.094  12.042  19.517  0.00  0.00    +0.000 C 
ATOM      5  C   UNL     1      -1.362  12.532  18.802  0.00  0.00    +0.000 C 
ATOM      6  C   UNL     1      -1.767  11.737  17.570  0.00  0.00    +0.000 C 
ATOM      7  C   UNL     1      -1.846  10.227  17.763  0.00  0.00    +0.000 C 
ATOM      8  C   UNL     1      -0.463   9.601  17.938  0.00  0.00    +0.000 C 
ATOM      9  C   UNL     1       0.090   9.524  19.372  0.00  0.00    +0.000 C 
ENDROOT
BRANCH   2  10
ATOM     10  C   UNL     1      -0.991  11.807  22.296  0.00  0.00    +0.000 A 
ATOM     11  C   UNL     1      -2.143  11.793  23.025  0.00  0.00    +0.000 A 
ATOM     12  C   UNL     1      -2.489  12.971  23.675  0.00  0.00    +0.000 A 
ATOM     13  C   UNL     1      -3.784  13.058  24.364  0.00  0.00    +0.000 A 
ATOM     14  O   UNL     1      -4.613  12.161  24.298  0.00  0.00    +0.000 OA
ATOM     15  N   UNL     1      -4.000  14.219  25.046  0.00  0.00    +0.000 N 
ATOM     16  C   UNL     1      -3.120  15.267  25.025  0.00  0.00    +0.000 A 
ATOM     17  N   UNL     1      -1.999  15.266  24.393  0.00  0.00    +0.000 NA
ATOM     18  C   UNL     1      -1.668  14.093  23.680  0.00  0.00    +0.000 A 
ATOM     19  C   UNL     1      -0.512  14.011  22.944  0.00  0.00    +0.000 A 
ATOM     20  N   UNL     1      -0.191  12.907  22.232  0.00  0.00    +0.000 NA
ATOM     21  H   UNL     1      -4.888  14.295  25.520  0.00  0.00    +0.000 HD
ENDBRANCH   2  10
BRANCH   9  22
ATOM     22  C   UNL     1       1.619   9.205  19.355  0.00  0.00    +0.000 C 
BRANCH  22  23
ATOM     23  C   UNL     1       1.984   7.727  19.485  0.00  0.00    +0.000 A 
ATOM     24  C   UNL     1       1.458   6.982  20.558  0.00  0.00    +0.000 A 
ATOM     25  C   UNL     1       1.909   5.697  20.847  0.00  0.00    +0.000 A 
ATOM     26  C   UNL     1       2.842   5.076  20.017  0.00  0.00    +0.000 A 
ATOM     27  C   UNL     1       3.287   5.747  18.879  0.00  0.00    +0.000 A 
ATOM     28  C   UNL     1       2.877   7.066  18.620  0.00  0.00    +0.000 A 
ATOM     29 CL   UNL     1       3.504   7.804  17.187  0.00  0.00    +0.000 Cl
ENDBRANCH  22  23
ENDBRANCH   9  22
TORSDOF 3
ENDMDL
MODEL 9
REMARK VINA RESULT:      -7.0      4.804      8.007
REMARK  Name = 
REMARK  3 active torsions:
REMARK  status: ('A' for Active; 'I' for Inactive)
REMARK    1  A    between atoms: C_2  and  C_3
REMARK    2  A    between atoms: C_20  and  C_21
REMARK    3  A    between atoms: C_21  and  C_22
REMARK                            x       y       z     vdW  Elec       q    Type
REMARK                         _______ _______ _______ _____ _____    ______ ____
ROOT
ATOM      1  O   UNL     1      -1.269  10.199  22.972  0.00  0.00    +0.000 OA
ATOM      2  C   UNL     1      -1.131  11.251  22.314  0.00  0.00    +0.000 C 
ATOM      3  N   UNL     1      -0.596  11.268  21.023  0.00  0.00    +0.000 N 
ATOM      4  C   UNL     1      -0.313  12.519  20.308  0.00  0.00    +0.000 C 
ATOM      5  C   UNL     1      -1.459  13.022  19.418  0.00  0.00    +0.000 C 
ATOM      6  C   UNL     1      -1.773  12.160  18.205  0.00  0.00    +0.000 C 
ATOM      7  C   UNL     1      -1.967  10.676  18.490  0.00  0.00    +0.000 C 
ATOM      8  C   UNL     1      -0.654   9.990  18.866  0.00  0.00    +0.000 C 
ATOM      9  C   UNL     1      -0.272   9.991  20.357  0.00  0.00    +0.000 C 
ENDROOT
BRANCH   2  10
ATOM     10  C   UNL     1      -1.529  12.542  22.973  0.00  0.00    +0.000 A 
ATOM     11  C   UNL     1      -2.845  12.786  23.232  0.00  0.00    +0.000 A 
ATOM     12  C   UNL     1      -3.160  14.027  23.770  0.00  0.00    +0.000 A 
ATOM     13  C   UNL     1      -4.571  14.399  23.944  0.00  0.00    +0.000 A 
ATOM     14  O   UNL     1      -5.480  13.690  23.536  0.00  0.00    +0.000 OA
ATOM     15  N   UNL     1      -4.782  15.597  24.559  0.00  0.00    +0.000 N 
ATOM     16  C   UNL     1      -3.763  16.440  24.912  0.00  0.00    +0.000 A 
ATOM     17  N   UNL     1      -2.514  16.191  24.731  0.00  0.00    +0.000 NA
ATOM     18  C   UNL     1      -2.189  14.955  24.129  0.00  0.00    +0.000 A 
ATOM     19  C   UNL     1      -0.886  14.617  23.861  0.00  0.00    +0.000 A 
ATOM     20  N   UNL     1      -0.557  13.451  23.260  0.00  0.00    +0.000 NA
ATOM     21  H   UNL     1      -5.747  15.868  24.681  0.00  0.00    +0.000 HD
ENDBRANCH   2  10
BRANCH   9  22
ATOM     22  C   UNL     1       1.226   9.588  20.541  0.00  0.00    +0.000 C 
BRANCH  22  23
ATOM     23  C   UNL     1       1.595   8.186  20.059  0.00  0.00    +0.000 A 
ATOM     24  C   UNL     1       1.343   7.084  20.899  0.00  0.00    +0.000 A 
ATOM     25  C   UNL     1       1.837   5.815  20.608  0.00  0.00    +0.000 A 
ATOM     26  C   UNL     1       2.527   5.585  19.418  0.00  0.00    +0.000 A 
ATOM     27  C   UNL     1       2.683   6.633  18.513  0.00  0.00    +0.000 A 
ATOM     28  C   UNL     1       2.238   7.927  18.833  0.00  0.00    +0.000 A 
ATOM     29 CL   UNL     1       2.497   9.152  17.641  0.00  0.00    +0.000 Cl
ENDBRANCH  22  23
ENDBRANCH   9  22
TORSDOF 3
ENDMDL
