MODEL 1
REMARK VINA RESULT:     -10.1      0.000      0.000
REMARK  Name = 
REMARK  4 active torsions:
REMARK  status: ('A' for Active; 'I' for Inactive)
REMARK    1  A    between atoms: C_1  and  C_2
REMARK    2  A    between atoms: C_2  and  C_3
REMARK    3  A    between atoms: C_7  and  C_8
REMARK    4  A    between atoms: C_11  and  C_12
REMARK                            x       y       z     vdW  Elec       q    Type
REMARK                         _______ _______ _______ _____ _____    ______ ____
ROOT
ATOM      1  C   UNL     1       3.449   3.890  18.419  0.00  0.00    +0.000 A 
ATOM      2  C   UNL     1       4.498   3.851  17.472  0.00  0.00    +0.000 A 
ATOM      3  C   UNL     1       4.912   4.996  16.806  0.00  0.00    +0.000 A 
ATOM      4  C   UNL     1       4.290   6.211  17.081  0.00  0.00    +0.000 A 
ATOM      5  C   UNL     1       3.265   6.279  18.027  0.00  0.00    +0.000 A 
ATOM      6  C   UNL     1       2.878   5.137  18.726  0.00  0.00    +0.000 A 
ENDROOT
BRANCH   1   8
ATOM      7  C   UNL     1       3.423   1.357  18.355  0.00  0.00    +0.000 C 
ATOM      8  C   UNL     1       2.921   2.608  19.058  0.00  0.00    +0.000 C 
ATOM      9  N   UNL     1       3.213   2.590  20.488  0.00  0.00    +0.000 N 
ATOM     10  C   UNL     1       2.124   2.998  21.235  0.00  0.00    +0.000 C 
ATOM     11  O   UNL     1       2.147   3.274  22.405  0.00  0.00    +0.000 OA
ATOM     12  N   UNL     1       1.044   2.997  20.435  0.00  0.00    +0.000 N 
ATOM     13  C   UNL     1       1.363   2.633  19.166  0.00  0.00    +0.000 C 
ATOM     14  O   UNL     1       0.568   2.442  18.268  0.00  0.00    +0.000 OA
ATOM     15  H   UNL     1       4.127   2.655  20.899  0.00  0.00    +0.000 HD
ATOM     16  H   UNL     1       0.098   3.177  20.759  0.00  0.00    +0.000 HD
ENDBRANCH   1   8
BRANCH   5  17
ATOM     17  C   UNL     1       2.618   7.555  18.253  0.00  0.00    +0.000 A 
ATOM     18  N   UNL     1       2.518   8.554  17.367  0.00  0.00    +0.000 NA
ATOM     19  O   UNL     1       1.797   9.525  18.068  0.00  0.00    +0.000 OA
ATOM     20  C   UNL     1       1.565   9.014  19.313  0.00  0.00    +0.000 A 
ATOM     21  N   UNL     1       2.068   7.820  19.476  0.00  0.00    +0.000 NA
BRANCH  20  22
ATOM     22  C   UNL     1       0.914   9.708  20.477  0.00  0.00    +0.000 C 
ATOM     23  C   UNL     1      -0.485   9.529  20.996  0.00  0.00    +0.000 C 
ATOM     24  C   UNL     1      -0.190  10.671  20.103  0.00  0.00    +0.000 C 
ATOM     25  C   UNL     1      -1.041  10.640  18.819  0.00  0.00    +0.000 C 
ATOM     26  C   UNL     1      -2.052  11.739  19.149  0.00  0.00    +0.000 C 
ATOM     27  C   UNL     1      -1.034  12.770  19.581  0.00  0.00    +0.000 A 
ATOM     28  C   UNL     1      -0.720  13.926  18.894  0.00  0.00    +0.000 A 
ATOM     29  C   UNL     1       0.484  14.561  19.189  0.00  0.00    +0.000 A 
ATOM     30  C   UNL     1       1.314  14.079  20.213  0.00  0.00    +0.000 A 
ATOM     31  C   UNL     1       1.039  12.857  20.835  0.00  0.00    +0.000 A 
ATOM     32  C   UNL     1      -0.076  12.141  20.409  0.00  0.00    +0.000 A 
ENDBRANCH  20  22
ENDBRANCH   5  17
TORSDOF 3
ENDMDL
MODEL 2
REMARK VINA RESULT:     -10.1      6.680     10.786
REMARK  Name = 
REMARK  4 active torsions:
REMARK  status: ('A' for Active; 'I' for Inactive)
REMARK    1  A    between atoms: C_1  and  C_2
REMARK    2  A    between atoms: C_2  and  C_3
REMARK    3  A    between atoms: C_7  and  C_8
REMARK    4  A    between atoms: C_11  and  C_12
REMARK                            x       y       z     vdW  Elec       q    Type
REMARK                         _______ _______ _______ _____ _____    ______ ____
ROOT
ATOM      1  C   UNL     1      10.195  12.528  18.573  0.00  0.00    +0.000 A 
ATOM      2  C   UNL     1      10.423  12.519  19.967  0.00  0.00    +0.000 A 
ATOM      3  C   UNL     1      10.005  11.460  20.761  0.00  0.00    +0.000 A 
ATOM      4  C   UNL     1       9.356  10.377  20.172  0.00  0.00    +0.000 A 
ATOM      5  C   UNL     1       9.136  10.354  18.793  0.00  0.00    +0.000 A 
ATOM      6  C   UNL     1       9.593  11.399  17.991  0.00  0.00    +0.000 A 
ENDROOT
BRANCH   1   8
ATOM      7  C   UNL     1      11.479  13.406  16.573  0.00  0.00    +0.000 C 
ATOM      8  C   UNL     1      10.550  13.748  17.728  0.00  0.00    +0.000 C 
ATOM      9  N   UNL     1       9.341  14.430  17.277  0.00  0.00    +0.000 N 
ATOM     10  C   UNL     1       9.037  15.511  18.082  0.00  0.00    +0.000 C 
ATOM     11  O   UNL     1       7.999  16.118  18.069  0.00  0.00    +0.000 OA
ATOM     12  N   UNL     1      10.109  15.779  18.847  0.00  0.00    +0.000 N 
ATOM     13  C   UNL     1      11.120  14.902  18.613  0.00  0.00    +0.000 C 
ATOM     14  O   UNL     1      12.238  14.976  19.082  0.00  0.00    +0.000 OA
ATOM     15  H   UNL     1       8.606  14.018  16.732  0.00  0.00    +0.000 HD
ATOM     16  H   UNL     1      10.178  16.580  19.468  0.00  0.00    +0.000 HD
ENDBRANCH   1   8
BRANCH   5  17
ATOM     17  C   UNL     1       8.421   9.229  18.228  0.00  0.00    +0.000 A 
ATOM     18  N   UNL     1       7.648   9.256  17.134  0.00  0.00    +0.000 NA
ATOM     19  O   UNL     1       7.224   7.929  17.015  0.00  0.00    +0.000 OA
ATOM     20  C   UNL     1       7.767   7.251  18.070  0.00  0.00    +0.000 A 
ATOM     21  N   UNL     1       8.489   8.012  18.848  0.00  0.00    +0.000 NA
BRANCH  20  22
ATOM     22  C   UNL     1       7.533   5.817  18.449  0.00  0.00    +0.000 C 
ATOM     23  C   UNL     1       7.829   4.585  17.640  0.00  0.00    +0.000 C 
ATOM     24  C   UNL     1       6.450   5.120  17.656  0.00  0.00    +0.000 C 
ATOM     25  C   UNL     1       5.956   5.498  16.246  0.00  0.00    +0.000 C 
ATOM     26  C   UNL     1       5.016   4.323  15.974  0.00  0.00    +0.000 C 
ATOM     27  C   UNL     1       4.272   4.405  17.287  0.00  0.00    +0.000 A 
ATOM     28  C   UNL     1       2.958   4.801  17.443  0.00  0.00    +0.000 A 
ATOM     29  C   UNL     1       2.537   5.204  18.707  0.00  0.00    +0.000 A 
ATOM     30  C   UNL     1       3.406   5.132  19.807  0.00  0.00    +0.000 A 
ATOM     31  C   UNL     1       4.759   4.824  19.625  0.00  0.00    +0.000 A 
ATOM     32  C   UNL     1       5.209   4.594  18.328  0.00  0.00    +0.000 A 
ENDBRANCH  20  22
ENDBRANCH   5  17
TORSDOF 3
ENDMDL
MODEL 3
REMARK VINA RESULT:     -10.0      2.461      8.755
REMARK  Name = 
REMARK  4 active torsions:
REMARK  status: ('A' for Active; 'I' for Inactive)
REMARK    1  A    between atoms: C_1  and  C_2
REMARK    2  A    between atoms: C_2  and  C_3
REMARK    3  A    between atoms: C_7  and  C_8
REMARK    4  A    between atoms: C_11  and  C_12
REMARK                            x       y       z     vdW  Elec       q    Type
REMARK                         _______ _______ _______ _____ _____    ______ ____
ROOT
ATOM      1  C   UNL     1      -0.563  11.289  19.560  0.00  0.00    +0.000 A 
ATOM      2  C   UNL     1      -0.825  10.916  20.897  0.00  0.00    +0.000 A 
ATOM      3  C   UNL     1      -0.198   9.823  21.478  0.00  0.00    +0.000 A 
ATOM      4  C   UNL     1       0.717   9.082  20.734  0.00  0.00    +0.000 A 
ATOM      5  C   UNL     1       1.008   9.443  19.416  0.00  0.00    +0.000 A 
ATOM      6  C   UNL     1       0.409  10.565  18.847  0.00  0.00    +0.000 A 
ENDROOT
BRANCH   1   8
ATOM      7  C   UNL     1      -0.734  13.785  19.158  0.00  0.00    +0.000 C 
ATOM      8  C   UNL     1      -1.343  12.418  18.891  0.00  0.00    +0.000 C 
ATOM      9  N   UNL     1      -1.503  12.156  17.464  0.00  0.00    +0.000 N 
ATOM     10  C   UNL     1      -2.739  11.605  17.184  0.00  0.00    +0.000 C 
ATOM     11  O   UNL     1      -3.056  11.104  16.138  0.00  0.00    +0.000 OA
ATOM     12  N   UNL     1      -3.521  11.758  18.266  0.00  0.00    +0.000 N 
ATOM     13  C   UNL     1      -2.855  12.366  19.282  0.00  0.00    +0.000 C 
ATOM     14  O   UNL     1      -3.349  12.727  20.331  0.00  0.00    +0.000 OA
ATOM     15  H   UNL     1      -0.757  12.016  16.809  0.00  0.00    +0.000 HD
ATOM     16  H   UNL     1      -4.507  11.514  18.293  0.00  0.00    +0.000 HD
ENDBRANCH   1   8
BRANCH   5  17
ATOM     17  C   UNL     1       1.934   8.621  18.665  0.00  0.00    +0.000 A 
ATOM     18  N   UNL     1       2.264   8.782  17.378  0.00  0.00    +0.000 NA
ATOM     19  O   UNL     1       3.192   7.759  17.160  0.00  0.00    +0.000 OA
ATOM     20  C   UNL     1       3.298   7.074  18.337  0.00  0.00    +0.000 A 
ATOM     21  N   UNL     1       2.531   7.554  19.278  0.00  0.00    +0.000 NA
BRANCH  20  22
ATOM     22  C   UNL     1       4.093   5.825  18.595  0.00  0.00    +0.000 C 
ATOM     23  C   UNL     1       4.560   4.802  17.598  0.00  0.00    +0.000 C 
ATOM     24  C   UNL     1       3.334   4.535  18.379  0.00  0.00    +0.000 C 
ATOM     25  C   UNL     1       2.101   4.333  17.478  0.00  0.00    +0.000 C 
ATOM     26  C   UNL     1       1.952   2.814  17.572  0.00  0.00    +0.000 C 
ATOM     27  C   UNL     1       2.040   2.738  19.079  0.00  0.00    +0.000 A 
ATOM     28  C   UNL     1       1.001   2.414  19.930  0.00  0.00    +0.000 A 
ATOM     29  C   UNL     1       1.116   2.764  21.273  0.00  0.00    +0.000 A 
ATOM     30  C   UNL     1       2.290   3.359  21.759  0.00  0.00    +0.000 A 
ATOM     31  C   UNL     1       3.295   3.771  20.878  0.00  0.00    +0.000 A 
ATOM     32  C   UNL     1       3.093   3.574  19.515  0.00  0.00    +0.000 A 
ENDBRANCH  20  22
ENDBRANCH   5  17
TORSDOF 3
ENDMDL
MODEL 4
REMARK VINA RESULT:     -10.0      2.692      9.081
REMARK  Name = 
REMARK  4 active torsions:
REMARK  status: ('A' for Active; 'I' for Inactive)
REMARK    1  A    between atoms: C_1  and  C_2
REMARK    2  A    between atoms: C_2  and  C_3
REMARK    3  A    between atoms: C_7  and  C_8
REMARK    4  A    between atoms: C_11  and  C_12
REMARK                            x       y       z     vdW  Elec       q    Type
REMARK                         _______ _______ _______ _____ _____    ______ ____
ROOT
ATOM      1  C   UNL     1      -0.429  11.253  19.544  0.00  0.00    +0.000 A 
ATOM      2  C   UNL     1      -0.647  10.912  20.898  0.00  0.00    +0.000 A 
ATOM      3  C   UNL     1      -0.017   9.819  21.478  0.00  0.00    +0.000 A 
ATOM      4  C   UNL     1       0.857   9.048  20.715  0.00  0.00    +0.000 A 
ATOM      5  C   UNL     1       1.104   9.377  19.380  0.00  0.00    +0.000 A 
ATOM      6  C   UNL     1       0.503  10.498  18.810  0.00  0.00    +0.000 A 
ENDROOT
BRANCH   1   8
ATOM      7  C   UNL     1      -0.649  13.755  19.208  0.00  0.00    +0.000 C 
ATOM      8  C   UNL     1      -1.216  12.382  18.883  0.00  0.00    +0.000 C 
ATOM      9  N   UNL     1      -1.323  12.158  17.444  0.00  0.00    +0.000 N 
ATOM     10  C   UNL     1      -2.535  11.586  17.108  0.00  0.00    +0.000 C 
ATOM     11  O   UNL     1      -2.806  11.108  16.038  0.00  0.00    +0.000 OA
ATOM     12  N   UNL     1      -3.355  11.689  18.168  0.00  0.00    +0.000 N 
ATOM     13  C   UNL     1      -2.737  12.283  19.222  0.00  0.00    +0.000 C 
ATOM     14  O   UNL     1      -3.273  12.601  20.264  0.00  0.00    +0.000 OA
ATOM     15  H   UNL     1      -0.553  12.055  16.810  0.00  0.00    +0.000 HD
ATOM     16  H   UNL     1      -4.335  11.421  18.156  0.00  0.00    +0.000 HD
ENDBRANCH   1   8
BRANCH   5  17
ATOM     17  C   UNL     1       1.987   8.525  18.612  0.00  0.00    +0.000 A 
ATOM     18  N   UNL     1       2.529   8.820  17.423  0.00  0.00    +0.000 NA
ATOM     19  O   UNL     1       3.300   7.689  17.140  0.00  0.00    +0.000 OA
ATOM     20  C   UNL     1       3.116   6.821  18.179  0.00  0.00    +0.000 A 
ATOM     21  N   UNL     1       2.304   7.284  19.091  0.00  0.00    +0.000 NA
BRANCH  20  22
ATOM     22  C   UNL     1       3.649   5.422  18.304  0.00  0.00    +0.000 C 
ATOM     23  C   UNL     1       4.573   4.874  19.356  0.00  0.00    +0.000 C 
ATOM     24  C   UNL     1       5.134   5.285  18.051  0.00  0.00    +0.000 C 
ATOM     25  C   UNL     1       6.197   6.390  18.196  0.00  0.00    +0.000 C 
ATOM     26  C   UNL     1       7.465   5.564  17.974  0.00  0.00    +0.000 C 
ATOM     27  C   UNL     1       6.989   4.874  16.716  0.00  0.00    +0.000 A 
ATOM     28  C   UNL     1       7.481   5.092  15.444  0.00  0.00    +0.000 A 
ATOM     29  C   UNL     1       6.701   4.697  14.360  0.00  0.00    +0.000 A 
ATOM     30  C   UNL     1       5.486   4.026  14.560  0.00  0.00    +0.000 A 
ATOM     31  C   UNL     1       4.949   3.896  15.846  0.00  0.00    +0.000 A 
ATOM     32  C   UNL     1       5.654   4.451  16.909  0.00  0.00    +0.000 A 
ENDBRANCH  20  22
ENDBRANCH   5  17
TORSDOF 3
ENDMDL
MODEL 5
REMARK VINA RESULT:      -9.8      2.663      3.872
REMARK  Name = 
REMARK  4 active torsions:
REMARK  status: ('A' for Active; 'I' for Inactive)
REMARK    1  A    between atoms: C_1  and  C_2
REMARK    2  A    between atoms: C_2  and  C_3
REMARK    3  A    between atoms: C_7  and  C_8
REMARK    4  A    between atoms: C_11  and  C_12
REMARK                            x       y       z     vdW  Elec       q    Type
REMARK                         _______ _______ _______ _____ _____    ______ ____
ROOT
ATOM      1  C   UNL     1       5.008   5.702  17.161  0.00  0.00    +0.000 A 
ATOM      2  C   UNL     1       4.311   4.487  17.347  0.00  0.00    +0.000 A 
ATOM      3  C   UNL     1       3.002   4.468  17.809  0.00  0.00    +0.000 A 
ATOM      4  C   UNL     1       2.356   5.671  18.086  0.00  0.00    +0.000 A 
ATOM      5  C   UNL     1       3.017   6.886  17.891  0.00  0.00    +0.000 A 
ATOM      6  C   UNL     1       4.317   6.905  17.388  0.00  0.00    +0.000 A 
ENDROOT
BRANCH   1   8
ATOM      7  C   UNL     1       6.777   4.787  15.595  0.00  0.00    +0.000 C 
ATOM      8  C   UNL     1       6.483   5.708  16.768  0.00  0.00    +0.000 C 
ATOM      9  N   UNL     1       6.942   7.072  16.523  0.00  0.00    +0.000 N 
ATOM     10  C   UNL     1       7.593   7.594  17.626  0.00  0.00    +0.000 C 
ATOM     11  O   UNL     1       7.887   8.750  17.777  0.00  0.00    +0.000 OA
ATOM     12  N   UNL     1       7.864   6.584  18.470  0.00  0.00    +0.000 N 
ATOM     13  C   UNL     1       7.395   5.399  17.997  0.00  0.00    +0.000 C 
ATOM     14  O   UNL     1       7.597   4.312  18.499  0.00  0.00    +0.000 OA
ATOM     15  H   UNL     1       6.554   7.708  15.851  0.00  0.00    +0.000 HD
ATOM     16  H   UNL     1       8.413   6.684  19.318  0.00  0.00    +0.000 HD
ENDBRANCH   1   8
BRANCH   5  17
ATOM     17  C   UNL     1       2.323   8.110  18.230  0.00  0.00    +0.000 A 
ATOM     18  N   UNL     1       2.052   9.119  17.392  0.00  0.00    +0.000 NA
ATOM     19  O   UNL     1       1.362  10.025  18.203  0.00  0.00    +0.000 OA
ATOM     20  C   UNL     1       1.316   9.472  19.452  0.00  0.00    +0.000 A 
ATOM     21  N   UNL     1       1.910   8.312  19.518  0.00  0.00    +0.000 NA
BRANCH  20  22
ATOM     22  C   UNL     1       0.770  10.096  20.705  0.00  0.00    +0.000 C 
ATOM     23  C   UNL     1      -0.582   9.887  21.330  0.00  0.00    +0.000 C 
ATOM     24  C   UNL     1      -0.357  11.079  20.485  0.00  0.00    +0.000 C 
ATOM     25  C   UNL     1      -1.314  11.126  19.277  0.00  0.00    +0.000 C 
ATOM     26  C   UNL     1      -2.288  12.203  19.756  0.00  0.00    +0.000 C 
ATOM     27  C   UNL     1      -1.231  13.206  20.160  0.00  0.00    +0.000 A 
ATOM     28  C   UNL     1      -0.970  14.401  19.519  0.00  0.00    +0.000 A 
ATOM     29  C   UNL     1       0.258  15.017  19.749  0.00  0.00    +0.000 A 
ATOM     30  C   UNL     1       1.168  14.475  20.668  0.00  0.00    +0.000 A 
ATOM     31  C   UNL     1       0.940  13.218  21.238  0.00  0.00    +0.000 A 
ATOM     32  C   UNL     1      -0.211  12.529  20.866  0.00  0.00    +0.000 A 
ENDBRANCH  20  22
ENDBRANCH   5  17
TORSDOF 3
ENDMDL
MODEL 6
REMARK VINA RESULT:      -9.8      2.637      3.843
REMARK  Name = 
REMARK  4 active torsions:
REMARK  status: ('A' for Active; 'I' for Inactive)
REMARK    1  A    between atoms: C_1  and  C_2
REMARK    2  A    between atoms: C_2  and  C_3
REMARK    3  A    between atoms: C_7  and  C_8
REMARK    4  A    between atoms: C_11  and  C_12
REMARK                            x       y       z     vdW  Elec       q    Type
REMARK                         _______ _______ _______ _____ _____    ______ ____
ROOT
ATOM      1  C   UNL     1       4.689   4.970  17.291  0.00  0.00    +0.000 A 
ATOM      2  C   UNL     1       3.814   3.875  17.472  0.00  0.00    +0.000 A 
ATOM      3  C   UNL     1       2.504   4.059  17.891  0.00  0.00    +0.000 A 
ATOM      4  C   UNL     1       2.036   5.349  18.130  0.00  0.00    +0.000 A 
ATOM      5  C   UNL     1       2.875   6.449  17.939  0.00  0.00    +0.000 A 
ATOM      6  C   UNL     1       4.178   6.266  17.479  0.00  0.00    +0.000 A 
ENDROOT
BRANCH   1   8
ATOM      7  C   UNL     1       7.012   4.480  18.176  0.00  0.00    +0.000 C 
ATOM      8  C   UNL     1       6.160   4.751  16.947  0.00  0.00    +0.000 C 
ATOM      9  N   UNL     1       6.300   3.704  15.939  0.00  0.00    +0.000 N 
ATOM     10  C   UNL     1       6.442   4.235  14.671  0.00  0.00    +0.000 C 
ATOM     11  O   UNL     1       6.368   3.613  13.644  0.00  0.00    +0.000 OA
ATOM     12  N   UNL     1       6.707   5.547  14.793  0.00  0.00    +0.000 N 
ATOM     13  C   UNL     1       6.721   5.934  16.095  0.00  0.00    +0.000 C 
ATOM     14  O   UNL     1       7.042   7.034  16.499  0.00  0.00    +0.000 OA
ATOM     15  H   UNL     1       5.974   2.759  16.029  0.00  0.00    +0.000 HD
ATOM     16  H   UNL     1       6.939   6.155  14.013  0.00  0.00    +0.000 HD
ENDBRANCH   1   8
BRANCH   5  17
ATOM     17  C   UNL     1       2.360   7.769  18.238  0.00  0.00    +0.000 A 
ATOM     18  N   UNL     1       2.339   8.814  17.401  0.00  0.00    +0.000 NA
ATOM     19  O   UNL     1       1.731   9.816  18.163  0.00  0.00    +0.000 OA
ATOM     20  C   UNL     1       1.476   9.270  19.390  0.00  0.00    +0.000 A 
ATOM     21  N   UNL     1       1.863   8.027  19.486  0.00  0.00    +0.000 NA
BRANCH  20  22
ATOM     22  C   UNL     1       0.920   9.967  20.599  0.00  0.00    +0.000 C 
ATOM     23  C   UNL     1      -0.444   9.812  21.212  0.00  0.00    +0.000 C 
ATOM     24  C   UNL     1      -0.188  10.955  20.308  0.00  0.00    +0.000 C 
ATOM     25  C   UNL     1      -1.125  10.951  19.085  0.00  0.00    +0.000 C 
ATOM     26  C   UNL     1      -2.089  12.067  19.490  0.00  0.00    +0.000 C 
ATOM     27  C   UNL     1      -1.023  13.074  19.858  0.00  0.00    +0.000 A 
ATOM     28  C   UNL     1      -0.733  14.230  19.159  0.00  0.00    +0.000 A 
ATOM     29  C   UNL     1       0.500  14.838  19.376  0.00  0.00    +0.000 A 
ATOM     30  C   UNL     1       1.388  14.332  20.337  0.00  0.00    +0.000 A 
ATOM     31  C   UNL     1       1.131  13.111  20.969  0.00  0.00    +0.000 A 
ATOM     32  C   UNL     1      -0.024  12.421  20.615  0.00  0.00    +0.000 A 
ENDBRANCH  20  22
ENDBRANCH   5  17
TORSDOF 3
ENDMDL
MODEL 7
REMARK VINA RESULT:      -9.8      1.321      2.549
REMARK  Name = 
REMARK  4 active torsions:
REMARK  status: ('A' for Active; 'I' for Inactive)
REMARK    1  A    between atoms: C_1  and  C_2
REMARK    2  A    between atoms: C_2  and  C_3
REMARK    3  A    between atoms: C_7  and  C_8
REMARK    4  A    between atoms: C_11  and  C_12
REMARK                            x       y       z     vdW  Elec       q    Type
REMARK                         _______ _______ _______ _____ _____    ______ ____
ROOT
ATOM      1  C   UNL     1       3.165   4.316  18.544  0.00  0.00    +0.000 A 
ATOM      2  C   UNL     1       4.147   4.500  17.545  0.00  0.00    +0.000 A 
ATOM      3  C   UNL     1       4.447   5.762  17.051  0.00  0.00    +0.000 A 
ATOM      4  C   UNL     1       3.773   6.873  17.555  0.00  0.00    +0.000 A 
ATOM      5  C   UNL     1       2.812   6.718  18.556  0.00  0.00    +0.000 A 
ATOM      6  C   UNL     1       2.542   5.456  19.081  0.00  0.00    +0.000 A 
ENDROOT
BRANCH   1   8
ATOM      7  C   UNL     1       3.345   1.825  18.113  0.00  0.00    +0.000 C 
ATOM      8  C   UNL     1       2.758   2.916  18.996  0.00  0.00    +0.000 C 
ATOM      9  N   UNL     1       3.083   2.717  20.405  0.00  0.00    +0.000 N 
ATOM     10  C   UNL     1       1.981   2.920  21.214  0.00  0.00    +0.000 C 
ATOM     11  O   UNL     1       2.008   3.026  22.412  0.00  0.00    +0.000 OA
ATOM     12  N   UNL     1       0.887   2.943  20.434  0.00  0.00    +0.000 N 
ATOM     13  C   UNL     1       1.206   2.793  19.122  0.00  0.00    +0.000 C 
ATOM     14  O   UNL     1       0.409   2.666  18.214  0.00  0.00    +0.000 OA
ATOM     15  H   UNL     1       3.997   2.799  20.811  0.00  0.00    +0.000 HD
ATOM     16  H   UNL     1      -0.063   2.993  20.790  0.00  0.00    +0.000 HD
ENDBRANCH   1   8
BRANCH   5  17
ATOM     17  C   UNL     1       2.107   7.894  19.022  0.00  0.00    +0.000 A 
ATOM     18  N   UNL     1       1.594   8.071  20.246  0.00  0.00    +0.000 NA
ATOM     19  O   UNL     1       1.053   9.358  20.178  0.00  0.00    +0.000 OA
ATOM     20  C   UNL     1       1.276   9.807  18.907  0.00  0.00    +0.000 A 
ATOM     21  N   UNL     1       1.899   8.936  18.160  0.00  0.00    +0.000 NA
BRANCH  20  22
ATOM     22  C   UNL     1       0.799  11.095  18.299  0.00  0.00    +0.000 C 
ATOM     23  C   UNL     1       0.760  12.459  18.930  0.00  0.00    +0.000 C 
ATOM     24  C   UNL     1      -0.475  11.647  18.899  0.00  0.00    +0.000 C 
ATOM     25  C   UNL     1      -1.023  11.365  20.311  0.00  0.00    +0.000 C 
ATOM     26  C   UNL     1      -2.200  12.340  20.334  0.00  0.00    +0.000 C 
ATOM     27  C   UNL     1      -2.778  11.927  19.000  0.00  0.00    +0.000 A 
ATOM     28  C   UNL     1      -3.964  11.244  18.814  0.00  0.00    +0.000 A 
ATOM     29  C   UNL     1      -4.167  10.596  17.598  0.00  0.00    +0.000 A 
ATOM     30  C   UNL     1      -3.224  10.703  16.565  0.00  0.00    +0.000 A 
ATOM     31  C   UNL     1      -1.985  11.312  16.793  0.00  0.00    +0.000 A 
ATOM     32  C   UNL     1      -1.722  11.804  18.068  0.00  0.00    +0.000 A 
ENDBRANCH  20  22
ENDBRANCH   5  17
TORSDOF 3
ENDMDL
MODEL 8
REMARK VINA RESULT:      -9.7      1.047      1.166
REMARK  Name = 
REMARK  4 active torsions:
REMARK  status: ('A' for Active; 'I' for Inactive)
REMARK    1  A    between atoms: C_1  and  C_2
REMARK    2  A    between atoms: C_2  and  C_3
REMARK    3  A    between atoms: C_7  and  C_8
REMARK    4  A    between atoms: C_11  and  C_12
REMARK                            x       y       z     vdW  Elec       q    Type
REMARK                         _______ _______ _______ _____ _____    ______ ____
ROOT
ATOM      1  C   UNL     1       3.685   4.128  18.141  0.00  0.00    +0.000 A 
ATOM      2  C   UNL     1       4.802   4.212  17.278  0.00  0.00    +0.000 A 
ATOM      3  C   UNL     1       5.201   5.423  16.730  0.00  0.00    +0.000 A 
ATOM      4  C   UNL     1       4.495   6.582  17.042  0.00  0.00    +0.000 A 
ATOM      5  C   UNL     1       3.401   6.529  17.907  0.00  0.00    +0.000 A 
ATOM      6  C   UNL     1       3.025   5.320  18.490  0.00  0.00    +0.000 A 
ENDROOT
BRANCH   1   8
ATOM      7  C   UNL     1       2.351   2.043  17.604  0.00  0.00    +0.000 C 
ATOM      8  C   UNL     1       3.181   2.778  18.644  0.00  0.00    +0.000 C 
ATOM      9  N   UNL     1       4.291   1.967  19.135  0.00  0.00    +0.000 N 
ATOM     10  C   UNL     1       4.407   2.043  20.510  0.00  0.00    +0.000 C 
ATOM     11  O   UNL     1       5.344   1.650  21.152  0.00  0.00    +0.000 OA
ATOM     12  N   UNL     1       3.283   2.599  20.995  0.00  0.00    +0.000 N 
ATOM     13  C   UNL     1       2.420   2.930  19.999  0.00  0.00    +0.000 C 
ATOM     14  O   UNL     1       1.289   3.343  20.157  0.00  0.00    +0.000 OA
ATOM     15  H   UNL     1       5.095   1.693  18.601  0.00  0.00    +0.000 HD
ATOM     16  H   UNL     1       3.077   2.692  21.985  0.00  0.00    +0.000 HD
ENDBRANCH   1   8
BRANCH   5  17
ATOM     17  C   UNL     1       2.671   7.751  18.172  0.00  0.00    +0.000 A 
ATOM     18  N   UNL     1       2.493   8.763  17.314  0.00  0.00    +0.000 NA
ATOM     19  O   UNL     1       1.715   9.664  18.046  0.00  0.00    +0.000 OA
ATOM     20  C   UNL     1       1.532   9.106  19.280  0.00  0.00    +0.000 A 
ATOM     21  N   UNL     1       2.116   7.946  19.407  0.00  0.00    +0.000 NA
BRANCH  20  22
ATOM     22  C   UNL     1       0.847   9.724  20.467  0.00  0.00    +0.000 C 
ATOM     23  C   UNL     1      -0.559   9.497  20.946  0.00  0.00    +0.000 C 
ATOM     24  C   UNL     1      -0.264  10.691  20.126  0.00  0.00    +0.000 C 
ATOM     25  C   UNL     1      -1.088  10.722  18.824  0.00  0.00    +0.000 C 
ATOM     26  C   UNL     1      -2.122  11.787  19.195  0.00  0.00    +0.000 C 
ATOM     27  C   UNL     1      -1.128  12.805  19.705  0.00  0.00    +0.000 A 
ATOM     28  C   UNL     1      -0.817  14.003  19.092  0.00  0.00    +0.000 A 
ATOM     29  C   UNL     1       0.370  14.636  19.448  0.00  0.00    +0.000 A 
ATOM     30  C   UNL     1       1.187  14.108  20.460  0.00  0.00    +0.000 A 
ATOM     31  C   UNL     1       0.917  12.849  21.006  0.00  0.00    +0.000 A 
ATOM     32  C   UNL     1      -0.178  12.143  20.517  0.00  0.00    +0.000 A 
ENDBRANCH  20  22
ENDBRANCH   5  17
TORSDOF 3
ENDMDL
MODEL 9
REMARK VINA RESULT:      -9.7      2.675      8.915
REMARK  Name = 
REMARK  4 active torsions:
REMARK  status: ('A' for Active; 'I' for Inactive)
REMARK    1  A    between atoms: C_1  and  C_2
REMARK    2  A    between atoms: C_2  and  C_3
REMARK    3  A    between atoms: C_7  and  C_8
REMARK    4  A    between atoms: C_11  and  C_12
REMARK                            x       y       z     vdW  Elec       q    Type
REMARK                         _______ _______ _______ _____ _____    ______ ____
ROOT
ATOM      1  C   UNL     1      -1.036  11.370  21.539  0.00  0.00    +0.000 A 
ATOM      2  C   UNL     1      -0.998  10.774  22.819  0.00  0.00    +0.000 A 
ATOM      3  C   UNL     1      -0.250   9.630  23.061  0.00  0.00    +0.000 A 
ATOM      4  C   UNL     1       0.486   9.061  22.025  0.00  0.00    +0.000 A 
ATOM      5  C   UNL     1       0.480   9.643  20.755  0.00  0.00    +0.000 A 
ATOM      6  C   UNL     1      -0.237  10.815  20.524  0.00  0.00    +0.000 A 
ENDROOT
BRANCH   1   8
ATOM      7  C   UNL     1      -3.142  12.615  22.198  0.00  0.00    +0.000 C 
ATOM      8  C   UNL     1      -1.953  12.557  21.252  0.00  0.00    +0.000 C 
ATOM      9  N   UNL     1      -1.193  13.803  21.248  0.00  0.00    +0.000 N 
ATOM     10  C   UNL     1      -0.864  14.193  19.963  0.00  0.00    +0.000 C 
ATOM     11  O   UNL     1      -0.076  15.055  19.678  0.00  0.00    +0.000 OA
ATOM     12  N   UNL     1      -1.600  13.468  19.104  0.00  0.00    +0.000 N 
ATOM     13  C   UNL     1      -2.395  12.579  19.755  0.00  0.00    +0.000 C 
ATOM     14  O   UNL     1      -3.240  11.877  19.234  0.00  0.00    +0.000 OA
ATOM     15  H   UNL     1      -0.644  14.156  22.010  0.00  0.00    +0.000 HD
ATOM     16  H   UNL     1      -1.612  13.618  18.099  0.00  0.00    +0.000 HD
ENDBRANCH   1   8
BRANCH   5  17
ATOM     17  C   UNL     1       1.227   8.996  19.697  0.00  0.00    +0.000 A 
ATOM     18  N   UNL     1       1.196   9.322  18.399  0.00  0.00    +0.000 NA
ATOM     19  O   UNL     1       2.097   8.420  17.826  0.00  0.00    +0.000 OA
ATOM     20  C   UNL     1       2.552   7.627  18.841  0.00  0.00    +0.000 A 
ATOM     21  N   UNL     1       2.031   7.931  19.998  0.00  0.00    +0.000 NA
BRANCH  20  22
ATOM     22  C   UNL     1       3.465   6.439  18.730  0.00  0.00    +0.000 C 
ATOM     23  C   UNL     1       3.813   5.650  17.498  0.00  0.00    +0.000 C 
ATOM     24  C   UNL     1       2.770   5.134  18.412  0.00  0.00    +0.000 C 
ATOM     25  C   UNL     1       1.411   4.964  17.707  0.00  0.00    +0.000 C 
ATOM     26  C   UNL     1       1.387   3.444  17.545  0.00  0.00    +0.000 C 
ATOM     27  C   UNL     1       1.753   3.125  18.977  0.00  0.00    +0.000 A 
ATOM     28  C   UNL     1       0.911   2.560  19.915  0.00  0.00    +0.000 A 
ATOM     29  C   UNL     1       1.244   2.689  21.261  0.00  0.00    +0.000 A 
ATOM     30  C   UNL     1       2.443   3.308  21.645  0.00  0.00    +0.000 A 
ATOM     31  C   UNL     1       3.240   3.962  20.699  0.00  0.00    +0.000 A 
ATOM     32  C   UNL     1       2.807   3.977  19.376  0.00  0.00    +0.000 A 
ENDBRANCH  20  22
ENDBRANCH   5  17
TORSDOF 3
ENDMDL
