MODEL 1
REMARK VINA RESULT:      -8.3      0.000      0.000
REMARK  Name = 
REMARK  6 active torsions:
REMARK  status: ('A' for Active; 'I' for Inactive)
REMARK    1  A    between atoms: C_1  and  C_2
REMARK    2  A    between atoms: N_4  and  C_5
REMARK    3  A    between atoms: C_8  and  N_9
REMARK    4  A    between atoms: N_9  and  C_10
REMARK    5  A    between atoms: N_18  and  C_19
REMARK    6  A    between atoms: C_19  and  C_20
REMARK                            x       y       z     vdW  Elec       q    Type
REMARK                         _______ _______ _______ _____ _____    ______ ____
ROOT
ATOM      1  C   UNL     1       0.866   9.582  19.291  0.00  0.00    +0.000 A 
ATOM      2  N   UNL     1       0.365   9.400  20.544  0.00  0.00    +0.000 NA
ATOM      3  C   UNL     1       0.787   8.364  21.291  0.00  0.00    +0.000 A 
ATOM      4  N   UNL     1       1.671   7.418  20.949  0.00  0.00    +0.000 NA
ATOM      5  C   UNL     1       2.127   7.602  19.698  0.00  0.00    +0.000 A 
ATOM      6  C   UNL     1       1.777   8.621  18.826  0.00  0.00    +0.000 A 
ATOM      7  C   UNL     1       2.518   8.347  17.661  0.00  0.00    +0.000 A 
ATOM      8  N   UNL     1       3.270   7.245  17.764  0.00  0.00    +0.000 NA
ATOM      9  N   UNL     1       3.036   6.822  19.031  0.00  0.00    +0.000 N 
ENDROOT
BRANCH   1  10
ATOM     10  N   UNL     1       0.468  10.720  18.556  0.00  0.00    +0.000 N 
ATOM     11  H   UNL     1       1.079  11.515  18.709  0.00  0.00    +0.000 HD
BRANCH  10  15
ATOM     12  C   UNL     1      -3.604  11.898  18.304  0.00  0.00    +0.000 A 
ATOM     13  C   UNL     1      -3.077  10.963  17.417  0.00  0.00    +0.000 A 
ATOM     14  C   UNL     1      -1.740  10.580  17.500  0.00  0.00    +0.000 A 
ATOM     15  C   UNL     1      -0.880  11.136  18.453  0.00  0.00    +0.000 A 
ATOM     16  C   UNL     1      -1.407  12.070  19.350  0.00  0.00    +0.000 A 
ATOM     17  C   UNL     1      -2.753  12.468  19.260  0.00  0.00    +0.000 A 
BRANCH  12  21
ATOM     18  C   UNL     1      -7.365  12.172  18.306  0.00  0.00    +0.000 C 
ATOM     19  C   UNL     1      -6.050  11.458  18.459  0.00  0.00    +0.000 C 
ATOM     20  O   UNL     1      -6.027  10.262  18.728  0.00  0.00    +0.000 OA
ATOM     21  N   UNL     1      -4.958  12.293  18.272  0.00  0.00    +0.000 N 
ATOM     22  H   UNL     1      -5.140  13.285  18.199  0.00  0.00    +0.000 HD
ENDBRANCH  12  21
ENDBRANCH  10  15
ENDBRANCH   1  10
BRANCH   9  23
ATOM     23  C   UNL     1       3.629   5.587  19.526  0.00  0.00    +0.000 C 
BRANCH  23  24
ATOM     24  C   UNL     1       2.765   4.379  19.243  0.00  0.00    +0.000 A 
ATOM     25  C   UNL     1       1.736   4.048  20.148  0.00  0.00    +0.000 A 
ATOM     26  C   UNL     1       0.913   2.941  19.929  0.00  0.00    +0.000 A 
ATOM     27  C   UNL     1       1.107   2.140  18.807  0.00  0.00    +0.000 A 
ATOM     28  C   UNL     1       2.119   2.452  17.902  0.00  0.00    +0.000 A 
ATOM     29  C   UNL     1       2.943   3.563  18.114  0.00  0.00    +0.000 A 
ATOM     30 CL   UNL     1       4.145   3.893  16.918  0.00  0.00    +0.000 Cl
ENDBRANCH  23  24
ENDBRANCH   9  23
TORSDOF 5
ENDMDL
MODEL 2
REMARK VINA RESULT:      -8.2      0.806      1.215
REMARK  Name = 
REMARK  6 active torsions:
REMARK  status: ('A' for Active; 'I' for Inactive)
REMARK    1  A    between atoms: C_1  and  C_2
REMARK    2  A    between atoms: N_4  and  C_5
REMARK    3  A    between atoms: C_8  and  N_9
REMARK    4  A    between atoms: N_9  and  C_10
REMARK    5  A    between atoms: N_18  and  C_19
REMARK    6  A    between atoms: C_19  and  C_20
REMARK                            x       y       z     vdW  Elec       q    Type
REMARK                         _______ _______ _______ _____ _____    ______ ____
ROOT
ATOM      1  C   UNL     1       0.577   9.690  19.513  0.00  0.00    +0.000 A 
ATOM      2  N   UNL     1       0.143   9.448  20.782  0.00  0.00    +0.000 NA
ATOM      3  C   UNL     1       0.643   8.409  21.474  0.00  0.00    +0.000 A 
ATOM      4  N   UNL     1       1.548   7.513  21.062  0.00  0.00    +0.000 NA
ATOM      5  C   UNL     1       1.937   7.755  19.798  0.00  0.00    +0.000 A 
ATOM      6  C   UNL     1       1.504   8.784  18.976  0.00  0.00    +0.000 A 
ATOM      7  C   UNL     1       2.201   8.578  17.770  0.00  0.00    +0.000 A 
ATOM      8  N   UNL     1       3.002   7.507  17.803  0.00  0.00    +0.000 NA
ATOM      9  N   UNL     1       2.846   7.035  19.066  0.00  0.00    +0.000 N 
ENDROOT
BRANCH   1  10
ATOM     10  N   UNL     1       0.098  10.832  18.834  0.00  0.00    +0.000 N 
ATOM     11  H   UNL     1       0.743  11.613  18.885  0.00  0.00    +0.000 HD
BRANCH  10  15
ATOM     12  C   UNL     1      -3.901  12.243  19.061  0.00  0.00    +0.000 A 
ATOM     13  C   UNL     1      -2.914  12.765  19.891  0.00  0.00    +0.000 A 
ATOM     14  C   UNL     1      -1.603  12.298  19.817  0.00  0.00    +0.000 A 
ATOM     15  C   UNL     1      -1.241  11.279  18.931  0.00  0.00    +0.000 A 
ATOM     16  C   UNL     1      -2.228  10.757  18.090  0.00  0.00    +0.000 A 
ATOM     17  C   UNL     1      -3.555  11.217  18.172  0.00  0.00    +0.000 A 
BRANCH  12  21
ATOM     18  C   UNL     1      -7.545  12.955  19.719  0.00  0.00    +0.000 C 
ATOM     19  C   UNL     1      -6.206  12.328  19.998  0.00  0.00    +0.000 C 
ATOM     20  O   UNL     1      -6.067  11.577  20.957  0.00  0.00    +0.000 OA
ATOM     21  N   UNL     1      -5.234  12.706  19.084  0.00  0.00    +0.000 N 
ATOM     22  H   UNL     1      -5.468  13.445  18.435  0.00  0.00    +0.000 HD
ENDBRANCH  12  21
ENDBRANCH  10  15
ENDBRANCH   1  10
BRANCH   9  23
ATOM     23  C   UNL     1       3.511   5.812  19.492  0.00  0.00    +0.000 C 
BRANCH  23  24
ATOM     24  C   UNL     1       2.708   4.575  19.168  0.00  0.00    +0.000 A 
ATOM     25  C   UNL     1       1.701   4.160  20.062  0.00  0.00    +0.000 A 
ATOM     26  C   UNL     1       0.932   3.022  19.804  0.00  0.00    +0.000 A 
ATOM     27  C   UNL     1       1.161   2.273  18.653  0.00  0.00    +0.000 A 
ATOM     28  C   UNL     1       2.153   2.668  17.757  0.00  0.00    +0.000 A 
ATOM     29  C   UNL     1       2.921   3.811  18.008  0.00  0.00    +0.000 A 
ATOM     30 CL   UNL     1       4.100   4.243  16.823  0.00  0.00    +0.000 Cl
ENDBRANCH  23  24
ENDBRANCH   9  23
TORSDOF 5
ENDMDL
MODEL 3
REMARK VINA RESULT:      -8.1      2.179      2.613
REMARK  Name = 
REMARK  6 active torsions:
REMARK  status: ('A' for Active; 'I' for Inactive)
REMARK    1  A    between atoms: C_1  and  C_2
REMARK    2  A    between atoms: N_4  and  C_5
REMARK    3  A    between atoms: C_8  and  N_9
REMARK    4  A    between atoms: N_9  and  C_10
REMARK    5  A    between atoms: N_18  and  C_19
REMARK    6  A    between atoms: C_19  and  C_20
REMARK                            x       y       z     vdW  Elec       q    Type
REMARK                         _______ _______ _______ _____ _____    ______ ____
ROOT
ATOM      1  C   UNL     1      -0.184  10.128  20.070  0.00  0.00    +0.000 A 
ATOM      2  N   UNL     1      -0.326   9.926  21.410  0.00  0.00    +0.000 NA
ATOM      3  C   UNL     1       0.416   8.991  22.029  0.00  0.00    +0.000 A 
ATOM      4  N   UNL     1       1.317   8.167  21.479  0.00  0.00    +0.000 NA
ATOM      5  C   UNL     1       1.416   8.365  20.152  0.00  0.00    +0.000 A 
ATOM      6  C   UNL     1       0.714   9.288  19.394  0.00  0.00    +0.000 A 
ATOM      7  C   UNL     1       1.175   9.077  18.081  0.00  0.00    +0.000 A 
ATOM      8  N   UNL     1       2.083   8.097  17.994  0.00  0.00    +0.000 NA
ATOM      9  N   UNL     1       2.236   7.696  19.281  0.00  0.00    +0.000 N 
ENDROOT
BRANCH   1  10
ATOM     10  N   UNL     1      -0.915  11.168  19.456  0.00  0.00    +0.000 N 
ATOM     11  H   UNL     1      -1.367  11.777  20.130  0.00  0.00    +0.000 HD
BRANCH  10  15
ATOM     12  C   UNL     1      -3.341  10.504  16.033  0.00  0.00    +0.000 A 
ATOM     13  C   UNL     1      -2.510  11.618  16.112  0.00  0.00    +0.000 A 
ATOM     14  C   UNL     1      -1.718  11.835  17.237  0.00  0.00    +0.000 A 
ATOM     15  C   UNL     1      -1.747  10.962  18.329  0.00  0.00    +0.000 A 
ATOM     16  C   UNL     1      -2.574   9.837  18.251  0.00  0.00    +0.000 A 
ATOM     17  C   UNL     1      -3.385   9.623  17.122  0.00  0.00    +0.000 A 
BRANCH  12  21
ATOM     18  C   UNL     1      -4.769   9.719  12.633  0.00  0.00    +0.000 C 
ATOM     19  C   UNL     1      -3.668   9.888  13.643  0.00  0.00    +0.000 C 
ATOM     20  O   UNL     1      -2.499   9.716  13.313  0.00  0.00    +0.000 OA
ATOM     21  N   UNL     1      -4.138  10.232  14.901  0.00  0.00    +0.000 N 
ATOM     22  H   UNL     1      -5.138  10.195  15.050  0.00  0.00    +0.000 HD
ENDBRANCH  12  21
ENDBRANCH  10  15
ENDBRANCH   1  10
BRANCH   9  23
ATOM     23  C   UNL     1       3.108   6.578  19.614  0.00  0.00    +0.000 C 
BRANCH  23  24
ATOM     24  C   UNL     1       2.455   5.240  19.354  0.00  0.00    +0.000 A 
ATOM     25  C   UNL     1       1.483   4.766  20.258  0.00  0.00    +0.000 A 
ATOM     26  C   UNL     1       0.853   3.535  20.059  0.00  0.00    +0.000 A 
ATOM     27  C   UNL     1       1.188   2.751  18.959  0.00  0.00    +0.000 A 
ATOM     28  C   UNL     1       2.147   3.203  18.054  0.00  0.00    +0.000 A 
ATOM     29  C   UNL     1       2.776   4.439  18.246  0.00  0.00    +0.000 A 
ATOM     30 CL   UNL     1       3.923   4.932  17.052  0.00  0.00    +0.000 Cl
ENDBRANCH  23  24
ENDBRANCH   9  23
TORSDOF 5
ENDMDL
MODEL 4
REMARK VINA RESULT:      -8.0      2.097      2.785
REMARK  Name = 
REMARK  6 active torsions:
REMARK  status: ('A' for Active; 'I' for Inactive)
REMARK    1  A    between atoms: C_1  and  C_2
REMARK    2  A    between atoms: N_4  and  C_5
REMARK    3  A    between atoms: C_8  and  N_9
REMARK    4  A    between atoms: N_9  and  C_10
REMARK    5  A    between atoms: N_18  and  C_19
REMARK    6  A    between atoms: C_19  and  C_20
REMARK                            x       y       z     vdW  Elec       q    Type
REMARK                         _______ _______ _______ _____ _____    ______ ____
ROOT
ATOM      1  C   UNL     1       1.373   8.866  19.801  0.00  0.00    +0.000 A 
ATOM      2  N   UNL     1       0.845   8.263  20.902  0.00  0.00    +0.000 NA
ATOM      3  C   UNL     1       1.155   6.984  21.179  0.00  0.00    +0.000 A 
ATOM      4  N   UNL     1       1.944   6.164  20.473  0.00  0.00    +0.000 NA
ATOM      5  C   UNL     1       2.427   6.773  19.376  0.00  0.00    +0.000 A 
ATOM      6  C   UNL     1       2.188   8.078  18.975  0.00  0.00    +0.000 A 
ATOM      7  C   UNL     1       2.909   8.206  17.772  0.00  0.00    +0.000 A 
ATOM      8  N   UNL     1       3.547   7.083  17.420  0.00  0.00    +0.000 NA
ATOM      9  N   UNL     1       3.260   6.228  18.434  0.00  0.00    +0.000 N 
ENDROOT
BRANCH   1  10
ATOM     10  N   UNL     1       1.097  10.232  19.573  0.00  0.00    +0.000 N 
ATOM     11  H   UNL     1       1.361  10.818  20.358  0.00  0.00    +0.000 HD
BRANCH  10  15
ATOM     12  C   UNL     1      -2.576  11.542  17.891  0.00  0.00    +0.000 A 
ATOM     13  C   UNL     1      -1.953  10.387  17.428  0.00  0.00    +0.000 A 
ATOM     14  C   UNL     1      -0.746   9.960  17.980  0.00  0.00    +0.000 A 
ATOM     15  C   UNL     1      -0.111  10.687  18.992  0.00  0.00    +0.000 A 
ATOM     16  C   UNL     1      -0.737  11.844  19.465  0.00  0.00    +0.000 A 
ATOM     17  C   UNL     1      -1.948  12.283  18.900  0.00  0.00    +0.000 A 
BRANCH  12  21
ATOM     18  C   UNL     1      -6.179  12.388  17.169  0.00  0.00    +0.000 C 
ATOM     19  C   UNL     1      -5.044  11.854  17.999  0.00  0.00    +0.000 C 
ATOM     20  O   UNL     1      -5.264  11.367  19.102  0.00  0.00    +0.000 OA
ATOM     21  N   UNL     1      -3.811  11.993  17.379  0.00  0.00    +0.000 N 
ATOM     22  H   UNL     1      -3.776  12.546  16.533  0.00  0.00    +0.000 HD
ENDBRANCH  12  21
ENDBRANCH  10  15
ENDBRANCH   1  10
BRANCH   9  23
ATOM     23  C   UNL     1       3.722   4.847  18.396  0.00  0.00    +0.000 C 
BRANCH  23  24
ATOM     24  C   UNL     1       4.913   4.662  17.484  0.00  0.00    +0.000 A 
ATOM     25  C   UNL     1       4.701   4.214  16.165  0.00  0.00    +0.000 A 
ATOM     26  C   UNL     1       5.772   4.028  15.287  0.00  0.00    +0.000 A 
ATOM     27  C   UNL     1       7.074   4.278  15.712  0.00  0.00    +0.000 A 
ATOM     28  C   UNL     1       7.302   4.722  17.013  0.00  0.00    +0.000 A 
ATOM     29  C   UNL     1       6.233   4.916  17.895  0.00  0.00    +0.000 A 
ATOM     30 CL   UNL     1       6.610   5.505  19.474  0.00  0.00    +0.000 Cl
ENDBRANCH  23  24
ENDBRANCH   9  23
TORSDOF 5
ENDMDL
MODEL 5
REMARK VINA RESULT:      -7.9      1.073      1.385
REMARK  Name = 
REMARK  6 active torsions:
REMARK  status: ('A' for Active; 'I' for Inactive)
REMARK    1  A    between atoms: C_1  and  C_2
REMARK    2  A    between atoms: N_4  and  C_5
REMARK    3  A    between atoms: C_8  and  N_9
REMARK    4  A    between atoms: N_9  and  C_10
REMARK    5  A    between atoms: N_18  and  C_19
REMARK    6  A    between atoms: C_19  and  C_20
REMARK                            x       y       z     vdW  Elec       q    Type
REMARK                         _______ _______ _______ _____ _____    ______ ____
ROOT
ATOM      1  C   UNL     1       1.010   9.363  19.160  0.00  0.00    +0.000 A 
ATOM      2  N   UNL     1       0.461   9.192  20.395  0.00  0.00    +0.000 NA
ATOM      3  C   UNL     1       0.874   8.179  21.178  0.00  0.00    +0.000 A 
ATOM      4  N   UNL     1       1.792   7.248  20.891  0.00  0.00    +0.000 NA
ATOM      5  C   UNL     1       2.295   7.420  19.656  0.00  0.00    +0.000 A 
ATOM      6  C   UNL     1       1.959   8.415  18.751  0.00  0.00    +0.000 A 
ATOM      7  C   UNL     1       2.754   8.136  17.623  0.00  0.00    +0.000 A 
ATOM      8  N   UNL     1       3.525   7.053  17.778  0.00  0.00    +0.000 NA
ATOM      9  N   UNL     1       3.248   6.648  19.043  0.00  0.00    +0.000 N 
ENDROOT
BRANCH   1  10
ATOM     10  N   UNL     1       0.618  10.478  18.388  0.00  0.00    +0.000 N 
ATOM     11  H   UNL     1       1.233  11.275  18.516  0.00  0.00    +0.000 HD
BRANCH  10  15
ATOM     12  C   UNL     1      -3.446  11.676  18.101  0.00  0.00    +0.000 A 
ATOM     13  C   UNL     1      -2.970  10.592  17.369  0.00  0.00    +0.000 A 
ATOM     14  C   UNL     1      -1.635  10.203  17.463  0.00  0.00    +0.000 A 
ATOM     15  C   UNL     1      -0.728  10.897  18.269  0.00  0.00    +0.000 A 
ATOM     16  C   UNL     1      -1.205  11.982  19.012  0.00  0.00    +0.000 A 
ATOM     17  C   UNL     1      -2.548  12.385  18.909  0.00  0.00    +0.000 A 
BRANCH  12  21
ATOM     18  C   UNL     1      -7.202  12.010  18.172  0.00  0.00    +0.000 C 
ATOM     19  C   UNL     1      -5.892  11.300  18.379  0.00  0.00    +0.000 C 
ATOM     20  O   UNL     1      -5.876  10.148  18.799  0.00  0.00    +0.000 OA
ATOM     21  N   UNL     1      -4.796  12.086  18.056  0.00  0.00    +0.000 N 
ATOM     22  H   UNL     1      -4.966  13.064  17.861  0.00  0.00    +0.000 HD
ENDBRANCH  12  21
ENDBRANCH  10  15
ENDBRANCH   1  10
BRANCH   9  23
ATOM     23  C   UNL     1       3.846   5.435  19.584  0.00  0.00    +0.000 C 
BRANCH  23  24
ATOM     24  C   UNL     1       3.068   4.194  19.214  0.00  0.00    +0.000 A 
ATOM     25  C   UNL     1       3.079   3.754  17.875  0.00  0.00    +0.000 A 
ATOM     26  C   UNL     1       2.375   2.612  17.487  0.00  0.00    +0.000 A 
ATOM     27  C   UNL     1       1.640   1.893  18.425  0.00  0.00    +0.000 A 
ATOM     28  C   UNL     1       1.617   2.313  19.754  0.00  0.00    +0.000 A 
ATOM     29  C   UNL     1       2.326   3.453  20.150  0.00  0.00    +0.000 A 
ATOM     30 CL   UNL     1       2.270   3.874  21.824  0.00  0.00    +0.000 Cl
ENDBRANCH  23  24
ENDBRANCH   9  23
TORSDOF 5
ENDMDL
MODEL 6
REMARK VINA RESULT:      -7.9      1.880      2.708
REMARK  Name = 
REMARK  6 active torsions:
REMARK  status: ('A' for Active; 'I' for Inactive)
REMARK    1  A    between atoms: C_1  and  C_2
REMARK    2  A    between atoms: N_4  and  C_5
REMARK    3  A    between atoms: C_8  and  N_9
REMARK    4  A    between atoms: N_9  and  C_10
REMARK    5  A    between atoms: N_18  and  C_19
REMARK    6  A    between atoms: C_19  and  C_20
REMARK                            x       y       z     vdW  Elec       q    Type
REMARK                         _______ _______ _______ _____ _____    ______ ____
ROOT
ATOM      1  C   UNL     1       0.974   9.417  20.073  0.00  0.00    +0.000 A 
ATOM      2  N   UNL     1       0.715   8.654  21.171  0.00  0.00    +0.000 NA
ATOM      3  C   UNL     1       1.187   7.397  21.241  0.00  0.00    +0.000 A 
ATOM      4  N   UNL     1       1.905   6.742  20.319  0.00  0.00    +0.000 NA
ATOM      5  C   UNL     1       2.120   7.505  19.233  0.00  0.00    +0.000 A 
ATOM      6  C   UNL     1       1.692   8.808  19.032  0.00  0.00    +0.000 A 
ATOM      7  C   UNL     1       2.164   9.131  17.746  0.00  0.00    +0.000 A 
ATOM      8  N   UNL     1       2.827   8.126  17.162  0.00  0.00    +0.000 NA
ATOM      9  N   UNL     1       2.812   7.150  18.104  0.00  0.00    +0.000 N 
ENDROOT
BRANCH   1  10
ATOM     10  N   UNL     1       0.536  10.759  20.055  0.00  0.00    +0.000 N 
ATOM     11  H   UNL     1       0.738  11.245  20.922  0.00  0.00    +0.000 HD
BRANCH  10  15
ATOM     12  C   UNL     1      -3.282  11.856  18.555  0.00  0.00    +0.000 A 
ATOM     13  C   UNL     1      -2.432  11.043  17.812  0.00  0.00    +0.000 A 
ATOM     14  C   UNL     1      -1.179  10.686  18.305  0.00  0.00    +0.000 A 
ATOM     15  C   UNL     1      -0.724  11.151  19.543  0.00  0.00    +0.000 A 
ATOM     16  C   UNL     1      -1.578  11.962  20.296  0.00  0.00    +0.000 A 
ATOM     17  C   UNL     1      -2.838  12.334  19.795  0.00  0.00    +0.000 A 
BRANCH  12  21
ATOM     18  C   UNL     1      -6.928  12.098  17.619  0.00  0.00    +0.000 C 
ATOM     19  C   UNL     1      -5.724  11.465  18.261  0.00  0.00    +0.000 C 
ATOM     20  O   UNL     1      -5.833  10.395  18.850  0.00  0.00    +0.000 OA
ATOM     21  N   UNL     1      -4.570  12.218  18.105  0.00  0.00    +0.000 N 
ATOM     22  H   UNL     1      -4.671  13.148  17.719  0.00  0.00    +0.000 HD
ENDBRANCH  12  21
ENDBRANCH  10  15
ENDBRANCH   1  10
BRANCH   9  23
ATOM     23  C   UNL     1       3.384   5.839  17.828  0.00  0.00    +0.000 C 
BRANCH  23  24
ATOM     24  C   UNL     1       4.886   5.818  17.996  0.00  0.00    +0.000 A 
ATOM     25  C   UNL     1       5.427   5.499  19.258  0.00  0.00    +0.000 A 
ATOM     26  C   UNL     1       6.809   5.467  19.461  0.00  0.00    +0.000 A 
ATOM     27  C   UNL     1       7.675   5.762  18.412  0.00  0.00    +0.000 A 
ATOM     28  C   UNL     1       7.157   6.080  17.157  0.00  0.00    +0.000 A 
ATOM     29  C   UNL     1       5.774   6.107  16.947  0.00  0.00    +0.000 A 
ATOM     30 CL   UNL     1       5.227   6.473  15.350  0.00  0.00    +0.000 Cl
ENDBRANCH  23  24
ENDBRANCH   9  23
TORSDOF 5
ENDMDL
MODEL 7
REMARK VINA RESULT:      -7.8      3.535      4.799
REMARK  Name = 
REMARK  6 active torsions:
REMARK  status: ('A' for Active; 'I' for Inactive)
REMARK    1  A    between atoms: C_1  and  C_2
REMARK    2  A    between atoms: N_4  and  C_5
REMARK    3  A    between atoms: C_8  and  N_9
REMARK    4  A    between atoms: N_9  and  C_10
REMARK    5  A    between atoms: N_18  and  C_19
REMARK    6  A    between atoms: C_19  and  C_20
REMARK                            x       y       z     vdW  Elec       q    Type
REMARK                         _______ _______ _______ _____ _____    ______ ____
ROOT
ATOM      1  C   UNL     1       0.833   9.751  19.209  0.00  0.00    +0.000 A 
ATOM      2  N   UNL     1       0.285   9.613  20.448  0.00  0.00    +0.000 NA
ATOM      3  C   UNL     1       0.653   8.584  21.232  0.00  0.00    +0.000 A 
ATOM      4  N   UNL     1       1.521   7.606  20.943  0.00  0.00    +0.000 NA
ATOM      5  C   UNL     1       2.024   7.748  19.704  0.00  0.00    +0.000 A 
ATOM      6  C   UNL     1       1.732   8.755  18.797  0.00  0.00    +0.000 A 
ATOM      7  C   UNL     1       2.504   8.433  17.665  0.00  0.00    +0.000 A 
ATOM      8  N   UNL     1       3.221   7.313  17.819  0.00  0.00    +0.000 NA
ATOM      9  N   UNL     1       2.933   6.927  19.088  0.00  0.00    +0.000 N 
ENDROOT
BRANCH   1  10
ATOM     10  N   UNL     1       0.492  10.881  18.434  0.00  0.00    +0.000 N 
ATOM     11  H   UNL     1       0.435  10.671  17.443  0.00  0.00    +0.000 HD
BRANCH  10  15
ATOM     12  C   UNL     1       2.240  14.685  19.147  0.00  0.00    +0.000 A 
ATOM     13  C   UNL     1       0.941  14.409  19.564  0.00  0.00    +0.000 A 
ATOM     14  C   UNL     1       0.369  13.161  19.326  0.00  0.00    +0.000 A 
ATOM     15  C   UNL     1       1.064  12.159  18.643  0.00  0.00    +0.000 A 
ATOM     16  C   UNL     1       2.372  12.429  18.229  0.00  0.00    +0.000 A 
ATOM     17  C   UNL     1       2.947  13.693  18.456  0.00  0.00    +0.000 A 
BRANCH  12  21
ATOM     18  C   UNL     1       4.144  17.653  20.483  0.00  0.00    +0.000 C 
ATOM     19  C   UNL     1       3.675  16.224  20.478  0.00  0.00    +0.000 C 
ATOM     20  O   UNL     1       4.019  15.461  21.374  0.00  0.00    +0.000 OA
ATOM     21  N   UNL     1       2.867  15.926  19.392  0.00  0.00    +0.000 N 
ATOM     22  H   UNL     1       2.792  16.623  18.662  0.00  0.00    +0.000 HD
ENDBRANCH  12  21
ENDBRANCH  10  15
ENDBRANCH   1  10
BRANCH   9  23
ATOM     23  C   UNL     1       3.473   5.689  19.630  0.00  0.00    +0.000 C 
BRANCH  23  24
ATOM     24  C   UNL     1       2.616   4.490  19.297  0.00  0.00    +0.000 A 
ATOM     25  C   UNL     1       1.538   4.164  20.146  0.00  0.00    +0.000 A 
ATOM     26  C   UNL     1       0.719   3.065  19.878  0.00  0.00    +0.000 A 
ATOM     27  C   UNL     1       0.964   2.267  18.764  0.00  0.00    +0.000 A 
ATOM     28  C   UNL     1       2.025   2.574  17.914  0.00  0.00    +0.000 A 
ATOM     29  C   UNL     1       2.846   3.678  18.175  0.00  0.00    +0.000 A 
ATOM     30 CL   UNL     1       4.111   4.003  17.045  0.00  0.00    +0.000 Cl
ENDBRANCH  23  24
ENDBRANCH   9  23
TORSDOF 5
ENDMDL
MODEL 8
REMARK VINA RESULT:      -7.8      1.240      1.563
REMARK  Name = 
REMARK  6 active torsions:
REMARK  status: ('A' for Active; 'I' for Inactive)
REMARK    1  A    between atoms: C_1  and  C_2
REMARK    2  A    between atoms: N_4  and  C_5
REMARK    3  A    between atoms: C_8  and  N_9
REMARK    4  A    between atoms: N_9  and  C_10
REMARK    5  A    between atoms: N_18  and  C_19
REMARK    6  A    between atoms: C_19  and  C_20
REMARK                            x       y       z     vdW  Elec       q    Type
REMARK                         _______ _______ _______ _____ _____    ______ ____
ROOT
ATOM      1  C   UNL     1       0.633   9.690  19.310  0.00  0.00    +0.000 A 
ATOM      2  N   UNL     1       0.184   9.568  20.591  0.00  0.00    +0.000 NA
ATOM      3  C   UNL     1       0.673   8.597  21.383  0.00  0.00    +0.000 A 
ATOM      4  N   UNL     1       1.582   7.666  21.067  0.00  0.00    +0.000 NA
ATOM      5  C   UNL     1       1.985   7.788  19.789  0.00  0.00    +0.000 A 
ATOM      6  C   UNL     1       1.563   8.736  18.871  0.00  0.00    +0.000 A 
ATOM      7  C   UNL     1       2.273   8.418  17.697  0.00  0.00    +0.000 A 
ATOM      8  N   UNL     1       3.072   7.353  17.839  0.00  0.00    +0.000 NA
ATOM      9  N   UNL     1       2.900   7.002  19.138  0.00  0.00    +0.000 N 
ENDROOT
BRANCH   1  10
ATOM     10  N   UNL     1       0.164  10.763  18.523  0.00  0.00    +0.000 N 
ATOM     11  H   UNL     1       0.801  11.553  18.523  0.00  0.00    +0.000 HD
BRANCH  10  15
ATOM     12  C   UNL     1      -3.893  12.015  18.648  0.00  0.00    +0.000 A 
ATOM     13  C   UNL     1      -3.469  11.065  17.723  0.00  0.00    +0.000 A 
ATOM     14  C   UNL     1      -2.137  10.658  17.682  0.00  0.00    +0.000 A 
ATOM     15  C   UNL     1      -1.181  11.204  18.544  0.00  0.00    +0.000 A 
ATOM     16  C   UNL     1      -1.604  12.153  19.480  0.00  0.00    +0.000 A 
ATOM     17  C   UNL     1      -2.946  12.575  19.515  0.00  0.00    +0.000 A 
BRANCH  12  21
ATOM     18  C   UNL     1      -7.467  12.751  19.598  0.00  0.00    +0.000 C 
ATOM     19  C   UNL     1      -6.072  12.239  19.831  0.00  0.00    +0.000 C 
ATOM     20  O   UNL     1      -5.778  11.720  20.903  0.00  0.00    +0.000 OA
ATOM     21  N   UNL     1      -5.237  12.434  18.741  0.00  0.00    +0.000 N 
ATOM     22  H   UNL     1      -5.587  13.006  17.984  0.00  0.00    +0.000 HD
ENDBRANCH  12  21
ENDBRANCH  10  15
ENDBRANCH   1  10
BRANCH   9  23
ATOM     23  C   UNL     1       3.558   5.823  19.684  0.00  0.00    +0.000 C 
BRANCH  23  24
ATOM     24  C   UNL     1       3.149   4.553  18.975  0.00  0.00    +0.000 A 
ATOM     25  C   UNL     1       3.983   4.036  17.964  0.00  0.00    +0.000 A 
ATOM     26  C   UNL     1       3.645   2.865  17.281  0.00  0.00    +0.000 A 
ATOM     27  C   UNL     1       2.465   2.194  17.589  0.00  0.00    +0.000 A 
ATOM     28  C   UNL     1       1.627   2.692  18.586  0.00  0.00    +0.000 A 
ATOM     29  C   UNL     1       1.965   3.861  19.277  0.00  0.00    +0.000 A 
ATOM     30 CL   UNL     1       0.885   4.379  20.521  0.00  0.00    +0.000 Cl
ENDBRANCH  23  24
ENDBRANCH   9  23
TORSDOF 5
ENDMDL
MODEL 9
REMARK VINA RESULT:      -7.8      1.179      1.758
REMARK  Name = 
REMARK  6 active torsions:
REMARK  status: ('A' for Active; 'I' for Inactive)
REMARK    1  A    between atoms: C_1  and  C_2
REMARK    2  A    between atoms: N_4  and  C_5
REMARK    3  A    between atoms: C_8  and  N_9
REMARK    4  A    between atoms: N_9  and  C_10
REMARK    5  A    between atoms: N_18  and  C_19
REMARK    6  A    between atoms: C_19  and  C_20
REMARK                            x       y       z     vdW  Elec       q    Type
REMARK                         _______ _______ _______ _____ _____    ______ ____
ROOT
ATOM      1  C   UNL     1       0.835   9.468  19.222  0.00  0.00    +0.000 A 
ATOM      2  N   UNL     1       0.394   9.406  20.510  0.00  0.00    +0.000 NA
ATOM      3  C   UNL     1       0.871   8.457  21.336  0.00  0.00    +0.000 A 
ATOM      4  N   UNL     1       1.757   7.496  21.050  0.00  0.00    +0.000 NA
ATOM      5  C   UNL     1       2.153   7.560  19.766  0.00  0.00    +0.000 A 
ATOM      6  C   UNL     1       1.743   8.480  18.814  0.00  0.00    +0.000 A 
ATOM      7  C   UNL     1       2.436   8.101  17.649  0.00  0.00    +0.000 A 
ATOM      8  N   UNL     1       3.215   7.027  17.826  0.00  0.00    +0.000 NA
ATOM      9  N   UNL     1       3.046   6.730  19.140  0.00  0.00    +0.000 N 
ENDROOT
BRANCH   1  10
ATOM     10  N   UNL     1       0.381  10.519  18.396  0.00  0.00    +0.000 N 
ATOM     11  H   UNL     1       0.928  11.366  18.509  0.00  0.00    +0.000 HD
BRANCH  10  15
ATOM     12  C   UNL     1      -3.709  11.505  17.816  0.00  0.00    +0.000 A 
ATOM     13  C   UNL     1      -2.921  12.232  18.703  0.00  0.00    +0.000 A 
ATOM     14  C   UNL     1      -1.580  11.904  18.894  0.00  0.00    +0.000 A 
ATOM     15  C   UNL     1      -0.990  10.827  18.226  0.00  0.00    +0.000 A 
ATOM     16  C   UNL     1      -1.777  10.100  17.327  0.00  0.00    +0.000 A 
ATOM     17  C   UNL     1      -3.134  10.420  17.143  0.00  0.00    +0.000 A 
BRANCH  12  21
ATOM     18  C   UNL     1      -7.358  12.448  17.957  0.00  0.00    +0.000 C 
ATOM     19  C   UNL     1      -5.977  12.252  18.521  0.00  0.00    +0.000 C 
ATOM     20  O   UNL     1      -5.760  12.478  19.706  0.00  0.00    +0.000 OA
ATOM     21  N   UNL     1      -5.063  11.820  17.572  0.00  0.00    +0.000 N 
ATOM     22  H   UNL     1      -5.362  11.818  16.606  0.00  0.00    +0.000 HD
ENDBRANCH  12  21
ENDBRANCH  10  15
ENDBRANCH   1  10
BRANCH   9  23
ATOM     23  C   UNL     1       3.685   5.561  19.727  0.00  0.00    +0.000 C 
BRANCH  23  24
ATOM     24  C   UNL     1       3.247   4.273  19.070  0.00  0.00    +0.000 A 
ATOM     25  C   UNL     1       4.094   3.666  18.121  0.00  0.00    +0.000 A 
ATOM     26  C   UNL     1       3.730   2.475  17.488  0.00  0.00    +0.000 A 
ATOM     27  C   UNL     1       2.511   1.873  17.784  0.00  0.00    +0.000 A 
ATOM     28  C   UNL     1       1.660   2.459  18.719  0.00  0.00    +0.000 A 
ATOM     29  C   UNL     1       2.022   3.648  19.361  0.00  0.00    +0.000 A 
ATOM     30 CL   UNL     1       0.921   4.279  20.533  0.00  0.00    +0.000 Cl
ENDBRANCH  23  24
ENDBRANCH   9  23
TORSDOF 5
ENDMDL
