MODEL 1
REMARK VINA RESULT:      -8.6      0.000      0.000
REMARK  Name = 
REMARK  6 active torsions:
REMARK  status: ('A' for Active; 'I' for Inactive)
REMARK    1  A    between atoms: C_1  and  S_2
REMARK    2  A    between atoms: S_2  and  N_5
REMARK    3  A    between atoms: N_5  and  C_6
REMARK    4  A    between atoms: C_10  and  C_11
REMARK    5  A    between atoms: N_13  and  C_14
REMARK    6  A    between atoms: C_19  and  N_20
REMARK                            x       y       z     vdW  Elec       q    Type
REMARK                         _______ _______ _______ _____ _____    ______ ____
ROOT
ATOM      1  C   UNL     1       2.110   6.544  19.619  0.00  0.00    +0.000 C 
ATOM      2  O   UNL     1       2.587   6.280  20.725  0.00  0.00    +0.000 OA
ATOM      3  N   UNL     1       1.931   5.683  18.558  0.00  0.00    +0.000 N 
ATOM      4  H   UNL     1       1.391   5.975  17.748  0.00  0.00    +0.000 HD
ENDROOT
BRANCH   1   9
ATOM      5  C   UNL     1       0.959   9.999  20.380  0.00  0.00    +0.000 A 
ATOM      6  C   UNL     1       1.061  10.636  19.143  0.00  0.00    +0.000 A 
ATOM      7  C   UNL     1       1.502   9.922  18.022  0.00  0.00    +0.000 A 
ATOM      8  C   UNL     1       1.842   8.571  18.136  0.00  0.00    +0.000 A 
ATOM      9  C   UNL     1       1.729   7.946  19.380  0.00  0.00    +0.000 A 
ATOM     10  C   UNL     1       1.257   8.650  20.492  0.00  0.00    +0.000 A 
BRANCH   5  11
ATOM     11  N   UNL     1       0.568  10.707  21.547  0.00  0.00    +0.000 N 
ATOM     12  H   UNL     1       1.256  11.352  21.936  0.00  0.00    +0.000 HD
BRANCH  11  14
ATOM     13  C   UNL     1      -1.529  11.076  23.232  0.00  0.00    +0.000 C 
ATOM     14  S   UNL     1      -0.275   9.899  22.759  0.00  0.00    +0.000 S 
ATOM     15  O   UNL     1       0.605   9.678  23.881  0.00  0.00    +0.000 OA
ATOM     16  O   UNL     1      -0.944   8.802  22.097  0.00  0.00    +0.000 OA
ENDBRANCH  11  14
ENDBRANCH   5  11
ENDBRANCH   1   9
BRANCH   3  17
ATOM     17  C   UNL     1       2.248   4.307  18.551  0.00  0.00    +0.000 A 
ATOM     18  C   UNL     1       1.286   3.324  18.797  0.00  0.00    +0.000 A 
ATOM     19  C   UNL     1       1.575   1.987  18.568  0.00  0.00    +0.000 A 
ATOM     20  C   UNL     1       2.837   1.618  18.133  0.00  0.00    +0.000 A 
ATOM     21  C   UNL     1       3.841   2.584  17.992  0.00  0.00    +0.000 A 
ATOM     22  C   UNL     1       3.576   3.944  18.208  0.00  0.00    +0.000 A 
BRANCH  22  23
ATOM     23  N   UNL     1       4.563   4.937  18.069  0.00  0.00    +0.000 N 
ATOM     24  C   UNL     1       4.384   5.930  16.971  0.00  0.00    +0.000 C 
ATOM     25  C   UNL     1       5.649   6.115  16.105  0.00  0.00    +0.000 C 
ATOM     26  C   UNL     1       6.773   6.446  17.055  0.00  0.00    +0.000 A 
ATOM     27  C   UNL     1       7.543   7.603  16.947  0.00  0.00    +0.000 A 
ATOM     28  C   UNL     1       8.363   7.974  18.011  0.00  0.00    +0.000 A 
ATOM     29  C   UNL     1       8.435   7.177  19.158  0.00  0.00    +0.000 A 
ATOM     30  C   UNL     1       7.714   5.984  19.240  0.00  0.00    +0.000 A 
ATOM     31  C   UNL     1       6.878   5.613  18.188  0.00  0.00    +0.000 A 
ATOM     32  C   UNL     1       5.941   4.423  18.246  0.00  0.00    +0.000 C 
ENDBRANCH  22  23
ENDBRANCH   3  17
TORSDOF 5
ENDMDL
MODEL 2
REMARK VINA RESULT:      -8.5      2.583      4.879
REMARK  Name = 
REMARK  6 active torsions:
REMARK  status: ('A' for Active; 'I' for Inactive)
REMARK    1  A    between atoms: C_1  and  S_2
REMARK    2  A    between atoms: S_2  and  N_5
REMARK    3  A    between atoms: N_5  and  C_6
REMARK    4  A    between atoms: C_10  and  C_11
REMARK    5  A    between atoms: N_13  and  C_14
REMARK    6  A    between atoms: C_19  and  N_20
REMARK                            x       y       z     vdW  Elec       q    Type
REMARK                         _______ _______ _______ _____ _____    ______ ____
ROOT
ATOM      1  C   UNL     1       2.571   6.921  17.818  0.00  0.00    +0.000 C 
ATOM      2  O   UNL     1       1.751   6.150  17.315  0.00  0.00    +0.000 OA
ATOM      3  N   UNL     1       3.930   6.960  17.594  0.00  0.00    +0.000 N 
ATOM      4  H   UNL     1       4.485   7.734  17.948  0.00  0.00    +0.000 HD
ENDROOT
BRANCH   1   9
ATOM      5  C   UNL     1       1.000  10.025  19.137  0.00  0.00    +0.000 A 
ATOM      6  C   UNL     1       0.946   9.781  20.510  0.00  0.00    +0.000 A 
ATOM      7  C   UNL     1       1.447   8.581  21.029  0.00  0.00    +0.000 A 
ATOM      8  C   UNL     1       2.002   7.622  20.177  0.00  0.00    +0.000 A 
ATOM      9  C   UNL     1       2.055   7.884  18.806  0.00  0.00    +0.000 A 
ATOM     10  C   UNL     1       1.585   9.095  18.291  0.00  0.00    +0.000 A 
BRANCH   5  11
ATOM     11  N   UNL     1       0.453  11.207  18.572  0.00  0.00    +0.000 N 
ATOM     12  H   UNL     1       0.902  12.083  18.838  0.00  0.00    +0.000 HD
BRANCH  11  14
ATOM     13  C   UNL     1      -1.638  12.186  20.002  0.00  0.00    +0.000 C 
ATOM     14  S   UNL     1      -1.218  11.375  18.469  0.00  0.00    +0.000 S 
ATOM     15  O   UNL     1      -1.826  10.067  18.451  0.00  0.00    +0.000 OA
ATOM     16  O   UNL     1      -1.444  12.326  17.405  0.00  0.00    +0.000 OA
ENDBRANCH  11  14
ENDBRANCH   5  11
ENDBRANCH   1   9
BRANCH   3  17
ATOM     17  C   UNL     1       4.644   6.118  16.713  0.00  0.00    +0.000 A 
ATOM     18  C   UNL     1       5.189   6.591  15.516  0.00  0.00    +0.000 A 
ATOM     19  C   UNL     1       6.065   5.802  14.785  0.00  0.00    +0.000 A 
ATOM     20  C   UNL     1       6.371   4.523  15.220  0.00  0.00    +0.000 A 
ATOM     21  C   UNL     1       5.742   4.000  16.357  0.00  0.00    +0.000 A 
ATOM     22  C   UNL     1       4.859   4.776  17.120  0.00  0.00    +0.000 A 
BRANCH  22  23
ATOM     23  N   UNL     1       4.217   4.279  18.271  0.00  0.00    +0.000 N 
ATOM     24  C   UNL     1       5.081   3.893  19.423  0.00  0.00    +0.000 C 
ATOM     25  C   UNL     1       4.754   2.493  19.986  0.00  0.00    +0.000 C 
ATOM     26  C   UNL     1       3.278   2.491  20.297  0.00  0.00    +0.000 A 
ATOM     27  C   UNL     1       2.769   2.203  21.563  0.00  0.00    +0.000 A 
ATOM     28  C   UNL     1       1.434   2.495  21.839  0.00  0.00    +0.000 A 
ATOM     29  C   UNL     1       0.610   3.038  20.848  0.00  0.00    +0.000 A 
ATOM     30  C   UNL     1       1.103   3.265  19.561  0.00  0.00    +0.000 A 
ATOM     31  C   UNL     1       2.440   2.993  19.279  0.00  0.00    +0.000 A 
ATOM     32  C   UNL     1       3.106   3.348  17.965  0.00  0.00    +0.000 C 
ENDBRANCH  22  23
ENDBRANCH   3  17
TORSDOF 5
ENDMDL
MODEL 3
REMARK VINA RESULT:      -8.4      1.099      1.272
REMARK  Name = 
REMARK  6 active torsions:
REMARK  status: ('A' for Active; 'I' for Inactive)
REMARK    1  A    between atoms: C_1  and  S_2
REMARK    2  A    between atoms: S_2  and  N_5
REMARK    3  A    between atoms: N_5  and  C_6
REMARK    4  A    between atoms: C_10  and  C_11
REMARK    5  A    between atoms: N_13  and  C_14
REMARK    6  A    between atoms: C_19  and  N_20
REMARK                            x       y       z     vdW  Elec       q    Type
REMARK                         _______ _______ _______ _____ _____    ______ ____
ROOT
ATOM      1  C   UNL     1       1.837   6.554  19.907  0.00  0.00    +0.000 C 
ATOM      2  O   UNL     1       2.031   6.173  21.063  0.00  0.00    +0.000 OA
ATOM      3  N   UNL     1       1.902   5.801  18.755  0.00  0.00    +0.000 N 
ATOM      4  H   UNL     1       1.577   6.186  17.872  0.00  0.00    +0.000 HD
ENDROOT
BRANCH   1   9
ATOM      5  C   UNL     1       0.722  10.001  20.756  0.00  0.00    +0.000 A 
ATOM      6  C   UNL     1       1.021  10.715  19.596  0.00  0.00    +0.000 A 
ATOM      7  C   UNL     1       1.587  10.059  18.496  0.00  0.00    +0.000 A 
ATOM      8  C   UNL     1       1.857   8.689  18.555  0.00  0.00    +0.000 A 
ATOM      9  C   UNL     1       1.546   7.987  19.723  0.00  0.00    +0.000 A 
ATOM     10  C   UNL     1       0.950   8.634  20.808  0.00  0.00    +0.000 A 
BRANCH   5  11
ATOM     11  N   UNL     1       0.198  10.646  21.908  0.00  0.00    +0.000 N 
ATOM     12  H   UNL     1      -0.067  10.038  22.684  0.00  0.00    +0.000 HD
BRANCH  11  14
ATOM     13  C   UNL     1      -1.978  11.727  23.120  0.00  0.00    +0.000 C 
ATOM     14  S   UNL     1      -0.888  11.916  21.721  0.00  0.00    +0.000 S 
ATOM     15  O   UNL     1      -1.646  11.717  20.508  0.00  0.00    +0.000 OA
ATOM     16  O   UNL     1      -0.116  13.118  21.938  0.00  0.00    +0.000 OA
ENDBRANCH  11  14
ENDBRANCH   5  11
ENDBRANCH   1   9
BRANCH   3  17
ATOM     17  C   UNL     1       2.190   4.420  18.688  0.00  0.00    +0.000 A 
ATOM     18  C   UNL     1       1.218   3.449  18.940  0.00  0.00    +0.000 A 
ATOM     19  C   UNL     1       1.470   2.115  18.655  0.00  0.00    +0.000 A 
ATOM     20  C   UNL     1       2.706   1.736  18.158  0.00  0.00    +0.000 A 
ATOM     21  C   UNL     1       3.723   2.687  18.010  0.00  0.00    +0.000 A 
ATOM     22  C   UNL     1       3.496   4.043  18.282  0.00  0.00    +0.000 A 
BRANCH  22  23
ATOM     23  N   UNL     1       4.498   5.021  18.137  0.00  0.00    +0.000 N 
ATOM     24  C   UNL     1       4.296   6.056  17.081  0.00  0.00    +0.000 C 
ATOM     25  C   UNL     1       5.529   6.246  16.172  0.00  0.00    +0.000 C 
ATOM     26  C   UNL     1       6.697   6.520  17.087  0.00  0.00    +0.000 A 
ATOM     27  C   UNL     1       7.486   7.666  16.987  0.00  0.00    +0.000 A 
ATOM     28  C   UNL     1       8.356   7.983  18.029  0.00  0.00    +0.000 A 
ATOM     29  C   UNL     1       8.457   7.144  19.144  0.00  0.00    +0.000 A 
ATOM     30  C   UNL     1       7.714   5.964  19.215  0.00  0.00    +0.000 A 
ATOM     31  C   UNL     1       6.830   5.646  18.185  0.00  0.00    +0.000 A 
ATOM     32  C   UNL     1       5.871   4.473  18.240  0.00  0.00    +0.000 C 
ENDBRANCH  22  23
ENDBRANCH   3  17
TORSDOF 5
ENDMDL
MODEL 4
REMARK VINA RESULT:      -8.4      1.584      1.669
REMARK  Name = 
REMARK  6 active torsions:
REMARK  status: ('A' for Active; 'I' for Inactive)
REMARK    1  A    between atoms: C_1  and  S_2
REMARK    2  A    between atoms: S_2  and  N_5
REMARK    3  A    between atoms: N_5  and  C_6
REMARK    4  A    between atoms: C_10  and  C_11
REMARK    5  A    between atoms: N_13  and  C_14
REMARK    6  A    between atoms: C_19  and  N_20
REMARK                            x       y       z     vdW  Elec       q    Type
REMARK                         _______ _______ _______ _____ _____    ______ ____
ROOT
ATOM      1  C   UNL     1       1.601   7.348  20.408  0.00  0.00    +0.000 C 
ATOM      2  O   UNL     1       1.791   7.383  21.625  0.00  0.00    +0.000 OA
ATOM      3  N   UNL     1       1.668   6.248  19.580  0.00  0.00    +0.000 N 
ATOM      4  H   UNL     1       1.345   6.311  18.618  0.00  0.00    +0.000 HD
ENDROOT
BRANCH   1   9
ATOM      5  C   UNL     1       0.070  10.695  19.856  0.00  0.00    +0.000 A 
ATOM      6  C   UNL     1       0.712  11.139  18.700  0.00  0.00    +0.000 A 
ATOM      7  C   UNL     1       1.659  10.324  18.068  0.00  0.00    +0.000 A 
ATOM      8  C   UNL     1       1.968   9.066  18.591  0.00  0.00    +0.000 A 
ATOM      9  C   UNL     1       1.312   8.633  19.747  0.00  0.00    +0.000 A 
ATOM     10  C   UNL     1       0.342   9.431  20.358  0.00  0.00    +0.000 A 
BRANCH   5  11
ATOM     11  N   UNL     1      -0.855  11.517  20.552  0.00  0.00    +0.000 N 
ATOM     12  H   UNL     1      -1.483  12.077  19.976  0.00  0.00    +0.000 HD
BRANCH  11  14
ATOM     13  C   UNL     1      -1.586  13.635  22.087  0.00  0.00    +0.000 C 
ATOM     14  S   UNL     1      -0.346  12.365  21.913  0.00  0.00    +0.000 S 
ATOM     15  O   UNL     1       0.925  12.989  21.634  0.00  0.00    +0.000 OA
ATOM     16  O   UNL     1      -0.510  11.450  23.020  0.00  0.00    +0.000 OA
ENDBRANCH  11  14
ENDBRANCH   5  11
ENDBRANCH   1   9
BRANCH   3  17
ATOM     17  C   UNL     1       1.954   4.927  19.988  0.00  0.00    +0.000 A 
ATOM     18  C   UNL     1       1.012   4.137  20.652  0.00  0.00    +0.000 A 
ATOM     19  C   UNL     1       1.243   2.782  20.843  0.00  0.00    +0.000 A 
ATOM     20  C   UNL     1       2.430   2.217  20.410  0.00  0.00    +0.000 A 
ATOM     21  C   UNL     1       3.427   3.023  19.846  0.00  0.00    +0.000 A 
ATOM     22  C   UNL     1       3.220   4.392  19.634  0.00  0.00    +0.000 A 
BRANCH  22  23
ATOM     23  N   UNL     1       4.200   5.226  19.063  0.00  0.00    +0.000 N 
ATOM     24  C   UNL     1       3.821   5.992  17.842  0.00  0.00    +0.000 C 
ATOM     25  C   UNL     1       4.850   5.862  16.698  0.00  0.00    +0.000 C 
ATOM     26  C   UNL     1       6.187   6.253  17.279  0.00  0.00    +0.000 A 
ATOM     27  C   UNL     1       6.974   7.276  16.750  0.00  0.00    +0.000 A 
ATOM     28  C   UNL     1       8.045   7.762  17.498  0.00  0.00    +0.000 A 
ATOM     29  C   UNL     1       8.344   7.208  18.747  0.00  0.00    +0.000 A 
ATOM     30  C   UNL     1       7.595   6.141  19.247  0.00  0.00    +0.000 A 
ATOM     31  C   UNL     1       6.512   5.658  18.515  0.00  0.00    +0.000 A 
ATOM     32  C   UNL     1       5.549   4.612  19.040  0.00  0.00    +0.000 C 
ENDBRANCH  22  23
ENDBRANCH   3  17
TORSDOF 5
ENDMDL
MODEL 5
REMARK VINA RESULT:      -8.3      2.627      4.995
REMARK  Name = 
REMARK  6 active torsions:
REMARK  status: ('A' for Active; 'I' for Inactive)
REMARK    1  A    between atoms: C_1  and  S_2
REMARK    2  A    between atoms: S_2  and  N_5
REMARK    3  A    between atoms: N_5  and  C_6
REMARK    4  A    between atoms: C_10  and  C_11
REMARK    5  A    between atoms: N_13  and  C_14
REMARK    6  A    between atoms: C_19  and  N_20
REMARK                            x       y       z     vdW  Elec       q    Type
REMARK                         _______ _______ _______ _____ _____    ______ ____
ROOT
ATOM      1  C   UNL     1       2.571   6.954  17.850  0.00  0.00    +0.000 C 
ATOM      2  O   UNL     1       1.749   6.190  17.340  0.00  0.00    +0.000 OA
ATOM      3  N   UNL     1       3.930   6.992  17.626  0.00  0.00    +0.000 N 
ATOM      4  H   UNL     1       4.487   7.762  17.987  0.00  0.00    +0.000 HD
ENDROOT
BRANCH   1   9
ATOM      5  C   UNL     1       1.135  10.105  19.210  0.00  0.00    +0.000 A 
ATOM      6  C   UNL     1       0.970   9.808  20.563  0.00  0.00    +0.000 A 
ATOM      7  C   UNL     1       1.350   8.554  21.056  0.00  0.00    +0.000 A 
ATOM      8  C   UNL     1       1.893   7.594  20.198  0.00  0.00    +0.000 A 
ATOM      9  C   UNL     1       2.057   7.909  18.847  0.00  0.00    +0.000 A 
ATOM     10  C   UNL     1       1.710   9.172  18.361  0.00  0.00    +0.000 A 
BRANCH   5  11
ATOM     11  N   UNL     1       0.710  11.347  18.667  0.00  0.00    +0.000 N 
ATOM     12  H   UNL     1       0.318  11.317  17.726  0.00  0.00    +0.000 HD
BRANCH  11  14
ATOM     13  C   UNL     1       0.530  14.054  18.555  0.00  0.00    +0.000 C 
ATOM     14  S   UNL     1       1.659  12.716  18.899  0.00  0.00    +0.000 S 
ATOM     15  O   UNL     1       2.715  12.733  17.915  0.00  0.00    +0.000 OA
ATOM     16  O   UNL     1       1.947  12.750  20.315  0.00  0.00    +0.000 OA
ENDBRANCH  11  14
ENDBRANCH   5  11
ENDBRANCH   1   9
BRANCH   3  17
ATOM     17  C   UNL     1       4.643   6.157  16.737  0.00  0.00    +0.000 A 
ATOM     18  C   UNL     1       5.187   6.639  15.544  0.00  0.00    +0.000 A 
ATOM     19  C   UNL     1       6.062   5.855  14.806  0.00  0.00    +0.000 A 
ATOM     20  C   UNL     1       6.365   4.572  15.229  0.00  0.00    +0.000 A 
ATOM     21  C   UNL     1       5.736   4.040  16.362  0.00  0.00    +0.000 A 
ATOM     22  C   UNL     1       4.855   4.811  17.133  0.00  0.00    +0.000 A 
BRANCH  22  23
ATOM     23  N   UNL     1       4.213   4.305  18.279  0.00  0.00    +0.000 N 
ATOM     24  C   UNL     1       5.075   3.932  19.437  0.00  0.00    +0.000 C 
ATOM     25  C   UNL     1       4.765   2.528  19.999  0.00  0.00    +0.000 C 
ATOM     26  C   UNL     1       3.286   2.504  20.300  0.00  0.00    +0.000 A 
ATOM     27  C   UNL     1       2.774   2.210  21.563  0.00  0.00    +0.000 A 
ATOM     28  C   UNL     1       1.433   2.482  21.830  0.00  0.00    +0.000 A 
ATOM     29  C   UNL     1       0.608   3.012  20.833  0.00  0.00    +0.000 A 
ATOM     30  C   UNL     1       1.105   3.247  19.550  0.00  0.00    +0.000 A 
ATOM     31  C   UNL     1       2.448   2.994  19.277  0.00  0.00    +0.000 A 
ATOM     32  C   UNL     1       3.117   3.358  17.966  0.00  0.00    +0.000 C 
ENDBRANCH  22  23
ENDBRANCH   3  17
TORSDOF 5
ENDMDL
MODEL 6
REMARK VINA RESULT:      -8.3      6.352     10.249
REMARK  Name = 
REMARK  6 active torsions:
REMARK  status: ('A' for Active; 'I' for Inactive)
REMARK    1  A    between atoms: C_1  and  S_2
REMARK    2  A    between atoms: S_2  and  N_5
REMARK    3  A    between atoms: N_5  and  C_6
REMARK    4  A    between atoms: C_10  and  C_11
REMARK    5  A    between atoms: N_13  and  C_14
REMARK    6  A    between atoms: C_19  and  N_20
REMARK                            x       y       z     vdW  Elec       q    Type
REMARK                         _______ _______ _______ _____ _____    ______ ____
ROOT
ATOM      1  C   UNL     1      -5.041  12.904  21.928  0.00  0.00    +0.000 C 
ATOM      2  O   UNL     1      -5.491  12.521  23.009  0.00  0.00    +0.000 OA
ATOM      3  N   UNL     1      -4.045  13.834  21.718  0.00  0.00    +0.000 N 
ATOM      4  H   UNL     1      -3.651  13.962  20.789  0.00  0.00    +0.000 HD
ENDROOT
BRANCH   1   9
ATOM      5  C   UNL     1      -5.432  11.980  18.346  0.00  0.00    +0.000 A 
ATOM      6  C   UNL     1      -6.630  11.267  18.342  0.00  0.00    +0.000 A 
ATOM      7  C   UNL     1      -7.345  11.092  19.533  0.00  0.00    +0.000 A 
ATOM      8  C   UNL     1      -6.862  11.627  20.730  0.00  0.00    +0.000 A 
ATOM      9  C   UNL     1      -5.663  12.344  20.716  0.00  0.00    +0.000 A 
ATOM     10  C   UNL     1      -4.967  12.548  19.522  0.00  0.00    +0.000 A 
BRANCH   5  11
ATOM     11  N   UNL     1      -4.655  12.129  17.166  0.00  0.00    +0.000 N 
ATOM     12  H   UNL     1      -5.161  12.410  16.326  0.00  0.00    +0.000 HD
BRANCH  11  14
ATOM     13  C   UNL     1      -1.980  11.771  17.459  0.00  0.00    +0.000 C 
ATOM     14  S   UNL     1      -3.456  11.002  16.818  0.00  0.00    +0.000 S 
ATOM     15  O   UNL     1      -3.330  10.870  15.386  0.00  0.00    +0.000 OA
ATOM     16  O   UNL     1      -3.746   9.861  17.658  0.00  0.00    +0.000 OA
ENDBRANCH  11  14
ENDBRANCH   5  11
ENDBRANCH   1   9
BRANCH   3  17
ATOM     17  C   UNL     1      -3.330  14.517  22.726  0.00  0.00    +0.000 A 
ATOM     18  C   UNL     1      -3.830  15.671  23.335  0.00  0.00    +0.000 A 
ATOM     19  C   UNL     1      -3.214  16.191  24.465  0.00  0.00    +0.000 A 
ATOM     20  C   UNL     1      -2.073  15.588  24.968  0.00  0.00    +0.000 A 
ATOM     21  C   UNL     1      -1.501  14.499  24.298  0.00  0.00    +0.000 A 
ATOM     22  C   UNL     1      -2.105  13.948  23.160  0.00  0.00    +0.000 A 
BRANCH  22  23
ATOM     23  N   UNL     1      -1.556  12.851  22.469  0.00  0.00    +0.000 N 
ATOM     24  C   UNL     1      -1.897  11.488  22.969  0.00  0.00    +0.000 C 
ATOM     25  C   UNL     1      -0.663  10.578  23.146  0.00  0.00    +0.000 C 
ATOM     26  C   UNL     1       0.067  10.584  21.826  0.00  0.00    +0.000 A 
ATOM     27  C   UNL     1       0.351   9.421  21.110  0.00  0.00    +0.000 A 
ATOM     28  C   UNL     1       0.768   9.526  19.784  0.00  0.00    +0.000 A 
ATOM     29  C   UNL     1       0.930  10.782  19.192  0.00  0.00    +0.000 A 
ATOM     30  C   UNL     1       0.707  11.948  19.928  0.00  0.00    +0.000 A 
ATOM     31  C   UNL     1       0.274  11.855  21.249  0.00  0.00    +0.000 A 
ATOM     32  C   UNL     1      -0.141  13.053  22.079  0.00  0.00    +0.000 C 
ENDBRANCH  22  23
ENDBRANCH   3  17
TORSDOF 5
ENDMDL
MODEL 7
REMARK VINA RESULT:      -8.3      1.853      2.354
REMARK  Name = 
REMARK  6 active torsions:
REMARK  status: ('A' for Active; 'I' for Inactive)
REMARK    1  A    between atoms: C_1  and  S_2
REMARK    2  A    between atoms: S_2  and  N_5
REMARK    3  A    between atoms: N_5  and  C_6
REMARK    4  A    between atoms: C_10  and  C_11
REMARK    5  A    between atoms: N_13  and  C_14
REMARK    6  A    between atoms: C_19  and  N_20
REMARK                            x       y       z     vdW  Elec       q    Type
REMARK                         _______ _______ _______ _____ _____    ______ ____
ROOT
ATOM      1  C   UNL     1       1.860   6.258  20.421  0.00  0.00    +0.000 C 
ATOM      2  O   UNL     1       2.096   5.686  21.487  0.00  0.00    +0.000 OA
ATOM      3  N   UNL     1       1.886   5.715  19.155  0.00  0.00    +0.000 N 
ATOM      4  H   UNL     1       1.527   6.243  18.364  0.00  0.00    +0.000 HD
ENDROOT
BRANCH   1   9
ATOM      5  C   UNL     1       0.777   9.635  19.294  0.00  0.00    +0.000 A 
ATOM      6  C   UNL     1       0.845  10.386  20.467  0.00  0.00    +0.000 A 
ATOM      7  C   UNL     1       1.269   9.787  21.659  0.00  0.00    +0.000 A 
ATOM      8  C   UNL     1       1.625   8.436  21.681  0.00  0.00    +0.000 A 
ATOM      9  C   UNL     1       1.557   7.698  20.496  0.00  0.00    +0.000 A 
ATOM     10  C   UNL     1       1.166   8.304  19.299  0.00  0.00    +0.000 A 
BRANCH   5  11
ATOM     11  N   UNL     1       0.299  10.197  18.080  0.00  0.00    +0.000 N 
ATOM     12  H   UNL     1       0.876  10.928  17.664  0.00  0.00    +0.000 HD
BRANCH  11  14
ATOM     13  C   UNL     1      -1.398  12.316  18.011  0.00  0.00    +0.000 C 
ATOM     14  S   UNL     1      -1.340  10.535  17.916  0.00  0.00    +0.000 S 
ATOM     15  O   UNL     1      -2.053   9.984  19.043  0.00  0.00    +0.000 OA
ATOM     16  O   UNL     1      -1.675  10.166  16.559  0.00  0.00    +0.000 OA
ENDBRANCH  11  14
ENDBRANCH   5  11
ENDBRANCH   1   9
BRANCH   3  17
ATOM     17  C   UNL     1       2.176   4.369  18.842  0.00  0.00    +0.000 A 
ATOM     18  C   UNL     1       1.244   3.346  19.037  0.00  0.00    +0.000 A 
ATOM     19  C   UNL     1       1.474   2.080  18.520  0.00  0.00    +0.000 A 
ATOM     20  C   UNL     1       2.653   1.814  17.844  0.00  0.00    +0.000 A 
ATOM     21  C   UNL     1       3.641   2.801  17.742  0.00  0.00    +0.000 A 
ATOM     22  C   UNL     1       3.434   4.092  18.247  0.00  0.00    +0.000 A 
BRANCH  22  23
ATOM     23  N   UNL     1       4.407   5.105  18.154  0.00  0.00    +0.000 N 
ATOM     24  C   UNL     1       4.092   6.278  17.289  0.00  0.00    +0.000 C 
ATOM     25  C   UNL     1       5.228   6.630  16.305  0.00  0.00    +0.000 C 
ATOM     26  C   UNL     1       6.477   6.796  17.135  0.00  0.00    +0.000 A 
ATOM     27  C   UNL     1       7.242   7.962  17.132  0.00  0.00    +0.000 A 
ATOM     28  C   UNL     1       8.205   8.143  18.123  0.00  0.00    +0.000 A 
ATOM     29  C   UNL     1       8.423   7.153  19.085  0.00  0.00    +0.000 A 
ATOM     30  C   UNL     1       7.703   5.957  19.050  0.00  0.00    +0.000 A 
ATOM     31  C   UNL     1       6.726   5.773  18.074  0.00  0.00    +0.000 A 
ATOM     32  C   UNL     1       5.789   4.582  18.044  0.00  0.00    +0.000 C 
ENDBRANCH  22  23
ENDBRANCH   3  17
TORSDOF 5
ENDMDL
MODEL 8
REMARK VINA RESULT:      -8.0      1.695      1.837
REMARK  Name = 
REMARK  6 active torsions:
REMARK  status: ('A' for Active; 'I' for Inactive)
REMARK    1  A    between atoms: C_1  and  S_2
REMARK    2  A    between atoms: S_2  and  N_5
REMARK    3  A    between atoms: N_5  and  C_6
REMARK    4  A    between atoms: C_10  and  C_11
REMARK    5  A    between atoms: N_13  and  C_14
REMARK    6  A    between atoms: C_19  and  N_20
REMARK                            x       y       z     vdW  Elec       q    Type
REMARK                         _______ _______ _______ _____ _____    ______ ____
ROOT
ATOM      1  C   UNL     1       1.579   7.187  20.312  0.00  0.00    +0.000 C 
ATOM      2  O   UNL     1       1.635   7.080  21.538  0.00  0.00    +0.000 OA
ATOM      3  N   UNL     1       1.696   6.181  19.377  0.00  0.00    +0.000 N 
ATOM      4  H   UNL     1       1.483   6.363  18.400  0.00  0.00    +0.000 HD
ENDROOT
BRANCH   1   9
ATOM      5  C   UNL     1       0.739  10.811  20.254  0.00  0.00    +0.000 A 
ATOM      6  C   UNL     1       1.119  11.193  18.967  0.00  0.00    +0.000 A 
ATOM      7  C   UNL     1       1.649  10.246  18.083  0.00  0.00    +0.000 A 
ATOM      8  C   UNL     1       1.803   8.916  18.484  0.00  0.00    +0.000 A 
ATOM      9  C   UNL     1       1.412   8.548  19.774  0.00  0.00    +0.000 A 
ATOM     10  C   UNL     1       0.851   9.485  20.645  0.00  0.00    +0.000 A 
BRANCH   5  11
ATOM     11  N   UNL     1       0.248  11.757  21.193  0.00  0.00    +0.000 N 
ATOM     12  H   UNL     1       0.238  11.459  22.169  0.00  0.00    +0.000 HD
BRANCH  11  14
ATOM     13  C   UNL     1      -1.870  12.951  22.400  0.00  0.00    +0.000 C 
ATOM     14  S   UNL     1      -1.111  12.670  20.811  0.00  0.00    +0.000 S 
ATOM     15  O   UNL     1      -2.004  11.877  20.000  0.00  0.00    +0.000 OA
ATOM     16  O   UNL     1      -0.602  13.942  20.348  0.00  0.00    +0.000 OA
ENDBRANCH  11  14
ENDBRANCH   5  11
ENDBRANCH   1   9
BRANCH   3  17
ATOM     17  C   UNL     1       1.887   4.811  19.661  0.00  0.00    +0.000 A 
ATOM     18  C   UNL     1       0.887   4.031  20.248  0.00  0.00    +0.000 A 
ATOM     19  C   UNL     1       1.022   2.651  20.312  0.00  0.00    +0.000 A 
ATOM     20  C   UNL     1       2.170   2.046  19.830  0.00  0.00    +0.000 A 
ATOM     21  C   UNL     1       3.224   2.830  19.343  0.00  0.00    +0.000 A 
ATOM     22  C   UNL     1       3.114   4.224  19.259  0.00  0.00    +0.000 A 
BRANCH  22  23
ATOM     23  N   UNL     1       4.155   5.036  18.768  0.00  0.00    +0.000 N 
ATOM     24  C   UNL     1       3.927   5.727  17.467  0.00  0.00    +0.000 C 
ATOM     25  C   UNL     1       5.093   5.546  16.470  0.00  0.00    +0.000 C 
ATOM     26  C   UNL     1       6.344   5.986  17.190  0.00  0.00    +0.000 A 
ATOM     27  C   UNL     1       7.186   6.986  16.706  0.00  0.00    +0.000 A 
ATOM     28  C   UNL     1       8.152   7.527  17.552  0.00  0.00    +0.000 A 
ATOM     29  C   UNL     1       8.294   7.048  18.858  0.00  0.00    +0.000 A 
ATOM     30  C   UNL     1       7.495   6.002  19.322  0.00  0.00    +0.000 A 
ATOM     31  C   UNL     1       6.514   5.465  18.490  0.00  0.00    +0.000 A 
ATOM     32  C   UNL     1       5.498   4.438  18.949  0.00  0.00    +0.000 C 
ENDBRANCH  22  23
ENDBRANCH   3  17
TORSDOF 5
ENDMDL
MODEL 9
REMARK VINA RESULT:      -8.0      1.524      1.643
REMARK  Name = 
REMARK  6 active torsions:
REMARK  status: ('A' for Active; 'I' for Inactive)
REMARK    1  A    between atoms: C_1  and  S_2
REMARK    2  A    between atoms: S_2  and  N_5
REMARK    3  A    between atoms: N_5  and  C_6
REMARK    4  A    between atoms: C_10  and  C_11
REMARK    5  A    between atoms: N_13  and  C_14
REMARK    6  A    between atoms: C_19  and  N_20
REMARK                            x       y       z     vdW  Elec       q    Type
REMARK                         _______ _______ _______ _____ _____    ______ ____
ROOT
ATOM      1  C   UNL     1       1.580   7.225  20.368  0.00  0.00    +0.000 C 
ATOM      2  O   UNL     1       1.431   7.191  21.591  0.00  0.00    +0.000 OA
ATOM      3  N   UNL     1       1.838   6.165  19.527  0.00  0.00    +0.000 N 
ATOM      4  H   UNL     1       1.792   6.288  18.519  0.00  0.00    +0.000 HD
ENDROOT
BRANCH   1   9
ATOM      5  C   UNL     1       1.162  10.910  20.069  0.00  0.00    +0.000 A 
ATOM      6  C   UNL     1       1.460  11.144  18.727  0.00  0.00    +0.000 A 
ATOM      7  C   UNL     1       1.793  10.076  17.886  0.00  0.00    +0.000 A 
ATOM      8  C   UNL     1       1.829   8.771  18.386  0.00  0.00    +0.000 A 
ATOM      9  C   UNL     1       1.521   8.552  19.731  0.00  0.00    +0.000 A 
ATOM     10  C   UNL     1       1.157   9.614  20.562  0.00  0.00    +0.000 A 
BRANCH   5  11
ATOM     11  N   UNL     1       0.874  11.977  20.962  0.00  0.00    +0.000 N 
ATOM     12  H   UNL     1       1.655  12.322  21.519  0.00  0.00    +0.000 HD
BRANCH  11  14
ATOM     13  C   UNL     1      -0.725  13.636  22.397  0.00  0.00    +0.000 C 
ATOM     14  S   UNL     1      -0.553  11.947  21.851  0.00  0.00    +0.000 S 
ATOM     15  O   UNL     1      -0.375  11.098  23.005  0.00  0.00    +0.000 OA
ATOM     16  O   UNL     1      -1.602  11.698  20.887  0.00  0.00    +0.000 OA
ENDBRANCH  11  14
ENDBRANCH   5  11
ENDBRANCH   1   9
BRANCH   3  17
ATOM     17  C   UNL     1       1.962   4.813  19.918  0.00  0.00    +0.000 A 
ATOM     18  C   UNL     1       1.034   4.199  20.763  0.00  0.00    +0.000 A 
ATOM     19  C   UNL     1       1.060   2.825  20.951  0.00  0.00    +0.000 A 
ATOM     20  C   UNL     1       2.036   2.062  20.334  0.00  0.00    +0.000 A 
ATOM     21  C   UNL     1       3.038   2.682  19.577  0.00  0.00    +0.000 A 
ATOM     22  C   UNL     1       3.033   4.067  19.362  0.00  0.00    +0.000 A 
BRANCH  22  23
ATOM     23  N   UNL     1       4.024   4.717  18.602  0.00  0.00    +0.000 N 
ATOM     24  C   UNL     1       3.872   4.696  17.119  0.00  0.00    +0.000 C 
ATOM     25  C   UNL     1       5.158   4.265  16.382  0.00  0.00    +0.000 C 
ATOM     26  C   UNL     1       6.258   5.171  16.874  0.00  0.00    +0.000 A 
ATOM     27  C   UNL     1       7.031   5.959  16.021  0.00  0.00    +0.000 A 
ATOM     28  C   UNL     1       7.824   6.969  16.564  0.00  0.00    +0.000 A 
ATOM     29  C   UNL     1       7.868   7.165  17.948  0.00  0.00    +0.000 A 
ATOM     30  C   UNL     1       7.144   6.334  18.806  0.00  0.00    +0.000 A 
ATOM     31  C   UNL     1       6.335   5.333  18.273  0.00  0.00    +0.000 A 
ATOM     32  C   UNL     1       5.397   4.484  19.107  0.00  0.00    +0.000 C 
ENDBRANCH  22  23
ENDBRANCH   3  17
TORSDOF 5
ENDMDL
