MODEL 1
REMARK VINA RESULT:      -9.2      0.000      0.000
REMARK  Name = 
REMARK  6 active torsions:
REMARK  status: ('A' for Active; 'I' for Inactive)
REMARK    1  A    between atoms: C_1  and  C_2
REMARK    2  A    between atoms: C_4  and  N_5
REMARK    3  A    between atoms: C_6  and  C_8
REMARK    4  A    between atoms: C_8  and  C_9
REMARK    5  A    between atoms: N_12  and  C_13
REMARK    6  A    between atoms: N_21  and  C_22
REMARK                            x       y       z     vdW  Elec       q    Type
REMARK                         _______ _______ _______ _____ _____    ______ ____
ROOT
ATOM      1  N   UNL     1       2.463   6.490  18.283  0.00  0.00    +0.000 N 
ATOM      2  C   UNL     1       2.185   7.785  18.833  0.00  0.00    +0.000 C 
ATOM      3  O   UNL     1       2.086   7.929  20.044  0.00  0.00    +0.000 OA
ATOM      4  H   UNL     1       2.811   6.452  17.327  0.00  0.00    +0.000 HD
ENDROOT
BRANCH   1   8
ATOM      5  C   UNL     1       1.673   2.800  21.551  0.00  0.00    +0.000 C 
ATOM      6  C   UNL     1       2.256   3.743  20.562  0.00  0.00    +0.000 A 
ATOM      7  C   UNL     1       1.684   4.907  20.007  0.00  0.00    +0.000 A 
ATOM      8  C   UNL     1       2.595   5.358  19.083  0.00  0.00    +0.000 A 
ATOM      9  N   UNL     1       3.678   4.475  19.135  0.00  0.00    +0.000 N 
ATOM     10  N   UNL     1       3.480   3.516  20.071  0.00  0.00    +0.000 NA
BRANCH   9  11
ATOM     11  C   UNL     1       4.919   4.560  18.458  0.00  0.00    +0.000 A 
ATOM     12  C   UNL     1       6.042   5.044  19.145  0.00  0.00    +0.000 A 
ATOM     13  C   UNL     1       7.252   5.226  18.471  0.00  0.00    +0.000 A 
ATOM     14  C   UNL     1       7.362   4.883  17.124  0.00  0.00    +0.000 A 
ATOM     15  C   UNL     1       6.265   4.339  16.464  0.00  0.00    +0.000 A 
ATOM     16  C   UNL     1       5.051   4.196  17.121  0.00  0.00    +0.000 A 
ATOM     17  F   UNL     1       4.040   3.636  16.440  0.00  0.00    +0.000 F 
ENDBRANCH   9  11
ENDBRANCH   1   8
BRANCH   2  18
ATOM     18  C   UNL     1       2.061   8.898  17.826  0.00  0.00    +0.000 C 
BRANCH  18  19
ATOM     19  C   UNL     1       1.005   9.882  18.184  0.00  0.00    +0.000 A 
ATOM     20  C   UNL     1       1.162  11.049  18.967  0.00  0.00    +0.000 A 
ATOM     21  C   UNL     1      -0.080  11.626  19.003  0.00  0.00    +0.000 A 
ATOM     22  N   UNL     1      -0.927  10.817  18.280  0.00  0.00    +0.000 N 
ATOM     23  N   UNL     1      -0.277   9.698  17.828  0.00  0.00    +0.000 NA
BRANCH  22  24
ATOM     24  C   UNL     1      -2.282  11.076  17.955  0.00  0.00    +0.000 A 
ATOM     25  C   UNL     1      -3.133  11.688  18.893  0.00  0.00    +0.000 A 
ATOM     26  C   UNL     1      -4.441  12.025  18.533  0.00  0.00    +0.000 A 
ATOM     27  C   UNL     1      -4.906  11.721  17.258  0.00  0.00    +0.000 A 
ATOM     28  F   UNL     1      -6.149  12.068  16.907  0.00  0.00    +0.000 F 
ATOM     29  C   UNL     1      -4.089  11.071  16.339  0.00  0.00    +0.000 A 
ATOM     30  C   UNL     1      -2.773  10.755  16.685  0.00  0.00    +0.000 A 
ENDBRANCH  22  24
ENDBRANCH  18  19
ENDBRANCH   2  18
TORSDOF 5
ENDMDL
MODEL 2
REMARK VINA RESULT:      -9.2      0.877      1.254
REMARK  Name = 
REMARK  6 active torsions:
REMARK  status: ('A' for Active; 'I' for Inactive)
REMARK    1  A    between atoms: C_1  and  C_2
REMARK    2  A    between atoms: C_4  and  N_5
REMARK    3  A    between atoms: C_6  and  C_8
REMARK    4  A    between atoms: C_8  and  C_9
REMARK    5  A    between atoms: N_12  and  C_13
REMARK    6  A    between atoms: N_21  and  C_22
REMARK                            x       y       z     vdW  Elec       q    Type
REMARK                         _______ _______ _______ _____ _____    ______ ____
ROOT
ATOM      1  N   UNL     1       2.560   6.545  18.206  0.00  0.00    +0.000 N 
ATOM      2  C   UNL     1       2.228   7.809  18.797  0.00  0.00    +0.000 C 
ATOM      3  O   UNL     1       2.123   7.910  20.011  0.00  0.00    +0.000 OA
ATOM      4  H   UNL     1       2.909   6.553  17.250  0.00  0.00    +0.000 HD
ENDROOT
BRANCH   1   8
ATOM      5  C   UNL     1       2.025   2.846  21.515  0.00  0.00    +0.000 C 
ATOM      6  C   UNL     1       2.518   3.775  20.465  0.00  0.00    +0.000 A 
ATOM      7  C   UNL     1       1.939   4.976  20.005  0.00  0.00    +0.000 A 
ATOM      8  C   UNL     1       2.739   5.395  18.969  0.00  0.00    +0.000 A 
ATOM      9  N   UNL     1       3.769   4.456  18.864  0.00  0.00    +0.000 N 
ATOM     10  N   UNL     1       3.649   3.493  19.810  0.00  0.00    +0.000 NA
BRANCH   9  11
ATOM     11  C   UNL     1       4.909   4.488  18.025  0.00  0.00    +0.000 A 
ATOM     12  C   UNL     1       4.797   4.048  16.698  0.00  0.00    +0.000 A 
ATOM     13  C   UNL     1       5.930   3.981  15.883  0.00  0.00    +0.000 A 
ATOM     14  C   UNL     1       7.168   4.395  16.369  0.00  0.00    +0.000 A 
ATOM     15  C   UNL     1       7.264   4.896  17.664  0.00  0.00    +0.000 A 
ATOM     16  C   UNL     1       6.148   4.925  18.488  0.00  0.00    +0.000 A 
ATOM     17  F   UNL     1       6.298   5.447  19.715  0.00  0.00    +0.000 F 
ENDBRANCH   9  11
ENDBRANCH   1   8
BRANCH   2  18
ATOM     18  C   UNL     1       2.058   8.948  17.826  0.00  0.00    +0.000 C 
BRANCH  18  19
ATOM     19  C   UNL     1       0.978   9.889  18.226  0.00  0.00    +0.000 A 
ATOM     20  C   UNL     1       1.092  10.986  19.110  0.00  0.00    +0.000 A 
ATOM     21  C   UNL     1      -0.158  11.547  19.149  0.00  0.00    +0.000 A 
ATOM     22  N   UNL     1      -0.968  10.794  18.329  0.00  0.00    +0.000 N 
ATOM     23  N   UNL     1      -0.288   9.723  17.809  0.00  0.00    +0.000 NA
BRANCH  22  24
ATOM     24  C   UNL     1      -2.314  11.067  17.976  0.00  0.00    +0.000 A 
ATOM     25  C   UNL     1      -3.177  11.689  18.897  0.00  0.00    +0.000 A 
ATOM     26  C   UNL     1      -4.473  12.040  18.510  0.00  0.00    +0.000 A 
ATOM     27  C   UNL     1      -4.916  11.739  17.226  0.00  0.00    +0.000 A 
ATOM     28  F   UNL     1      -6.149  12.099  16.851  0.00  0.00    +0.000 F 
ATOM     29  C   UNL     1      -4.088  11.079  16.325  0.00  0.00    +0.000 A 
ATOM     30  C   UNL     1      -2.783  10.749  16.698  0.00  0.00    +0.000 A 
ENDBRANCH  22  24
ENDBRANCH  18  19
ENDBRANCH   2  18
TORSDOF 5
ENDMDL
MODEL 3
REMARK VINA RESULT:      -8.8      2.493      4.110
REMARK  Name = 
REMARK  6 active torsions:
REMARK  status: ('A' for Active; 'I' for Inactive)
REMARK    1  A    between atoms: C_1  and  C_2
REMARK    2  A    between atoms: C_4  and  N_5
REMARK    3  A    between atoms: C_6  and  C_8
REMARK    4  A    between atoms: C_8  and  C_9
REMARK    5  A    between atoms: N_12  and  C_13
REMARK    6  A    between atoms: N_21  and  C_22
REMARK                            x       y       z     vdW  Elec       q    Type
REMARK                         _______ _______ _______ _____ _____    ______ ____
ROOT
ATOM      1  N   UNL     1       3.227   7.125  17.452  0.00  0.00    +0.000 N 
ATOM      2  C   UNL     1       2.427   7.857  18.391  0.00  0.00    +0.000 C 
ATOM      3  O   UNL     1       2.654   7.769  19.589  0.00  0.00    +0.000 OA
ATOM      4  H   UNL     1       3.201   7.427  16.480  0.00  0.00    +0.000 HD
ENDROOT
BRANCH   1   8
ATOM      5  C   UNL     1       7.681   5.044  18.316  0.00  0.00    +0.000 C 
ATOM      6  C   UNL     1       6.228   5.335  18.205  0.00  0.00    +0.000 A 
ATOM      7  C   UNL     1       5.592   6.443  17.607  0.00  0.00    +0.000 A 
ATOM      8  C   UNL     1       4.251   6.274  17.856  0.00  0.00    +0.000 A 
ATOM      9  N   UNL     1       4.131   5.074  18.563  0.00  0.00    +0.000 N 
ATOM     10  N   UNL     1       5.340   4.486  18.734  0.00  0.00    +0.000 NA
BRANCH   9  11
ATOM     11  C   UNL     1       2.952   4.399  18.962  0.00  0.00    +0.000 A 
ATOM     12  C   UNL     1       2.493   4.540  20.280  0.00  0.00    +0.000 A 
ATOM     13  C   UNL     1       1.388   3.808  20.720  0.00  0.00    +0.000 A 
ATOM     14  C   UNL     1       0.707   2.970  19.839  0.00  0.00    +0.000 A 
ATOM     15  C   UNL     1       1.122   2.886  18.514  0.00  0.00    +0.000 A 
ATOM     16  C   UNL     1       2.245   3.580  18.086  0.00  0.00    +0.000 A 
ATOM     17  F   UNL     1       2.576   3.482  16.790  0.00  0.00    +0.000 F 
ENDBRANCH   9  11
ENDBRANCH   1   8
BRANCH   2  18
ATOM     18  C   UNL     1       1.354   8.722  17.784  0.00  0.00    +0.000 C 
BRANCH  18  19
ATOM     19  C   UNL     1       1.049   9.922  18.608  0.00  0.00    +0.000 A 
ATOM     20  C   UNL     1       1.685  11.183  18.540  0.00  0.00    +0.000 A 
ATOM     21  C   UNL     1       1.053  11.956  19.478  0.00  0.00    +0.000 A 
ATOM     22  N   UNL     1       0.096  11.168  20.077  0.00  0.00    +0.000 N 
ATOM     23  N   UNL     1       0.136   9.886  19.592  0.00  0.00    +0.000 NA
BRANCH  22  24
ATOM     24  C   UNL     1      -0.872  11.577  21.028  0.00  0.00    +0.000 A 
ATOM     25  C   UNL     1      -1.936  12.413  20.644  0.00  0.00    +0.000 A 
ATOM     26  C   UNL     1      -2.938  12.734  21.563  0.00  0.00    +0.000 A 
ATOM     27  C   UNL     1      -2.858  12.255  22.867  0.00  0.00    +0.000 A 
ATOM     28  F   UNL     1      -3.831  12.543  23.739  0.00  0.00    +0.000 F 
ATOM     29  C   UNL     1      -1.785  11.469  23.271  0.00  0.00    +0.000 A 
ATOM     30  C   UNL     1      -0.794  11.123  22.349  0.00  0.00    +0.000 A 
ENDBRANCH  22  24
ENDBRANCH  18  19
ENDBRANCH   2  18
TORSDOF 5
ENDMDL
MODEL 4
REMARK VINA RESULT:      -8.8      2.583      3.089
REMARK  Name = 
REMARK  6 active torsions:
REMARK  status: ('A' for Active; 'I' for Inactive)
REMARK    1  A    between atoms: C_1  and  C_2
REMARK    2  A    between atoms: C_4  and  N_5
REMARK    3  A    between atoms: C_6  and  C_8
REMARK    4  A    between atoms: C_8  and  C_9
REMARK    5  A    between atoms: N_12  and  C_13
REMARK    6  A    between atoms: N_21  and  C_22
REMARK                            x       y       z     vdW  Elec       q    Type
REMARK                         _______ _______ _______ _____ _____    ______ ____
ROOT
ATOM      1  N   UNL     1       2.403   6.283  18.229  0.00  0.00    +0.000 N 
ATOM      2  C   UNL     1       2.239   7.570  18.843  0.00  0.00    +0.000 C 
ATOM      3  O   UNL     1       2.356   7.691  20.054  0.00  0.00    +0.000 OA
ATOM      4  H   UNL     1       2.578   6.262  17.226  0.00  0.00    +0.000 HD
ENDROOT
BRANCH   1   8
ATOM      5  C   UNL     1       2.141   2.516  21.494  0.00  0.00    +0.000 C 
ATOM      6  C   UNL     1       2.561   3.485  20.449  0.00  0.00    +0.000 A 
ATOM      7  C   UNL     1       1.906   4.657  20.015  0.00  0.00    +0.000 A 
ATOM      8  C   UNL     1       2.662   5.136  18.973  0.00  0.00    +0.000 A 
ATOM      9  N   UNL     1       3.743   4.260  18.838  0.00  0.00    +0.000 N 
ATOM     10  N   UNL     1       3.696   3.279  19.771  0.00  0.00    +0.000 NA
BRANCH   9  11
ATOM     11  C   UNL     1       4.865   4.369  17.981  0.00  0.00    +0.000 A 
ATOM     12  C   UNL     1       4.748   3.966  16.642  0.00  0.00    +0.000 A 
ATOM     13  C   UNL     1       5.867   3.975  15.806  0.00  0.00    +0.000 A 
ATOM     14  C   UNL     1       7.094   4.429  16.284  0.00  0.00    +0.000 A 
ATOM     15  C   UNL     1       7.192   4.894  17.592  0.00  0.00    +0.000 A 
ATOM     16  C   UNL     1       6.091   4.847  18.436  0.00  0.00    +0.000 A 
ATOM     17  F   UNL     1       6.240   5.337  19.676  0.00  0.00    +0.000 F 
ENDBRANCH   9  11
ENDBRANCH   1   8
BRANCH   2  18
ATOM     18  C   UNL     1       1.953   8.703  17.893  0.00  0.00    +0.000 C 
BRANCH  18  19
ATOM     19  C   UNL     1       1.456   9.922  18.585  0.00  0.00    +0.000 A 
ATOM     20  C   UNL     1       1.759  11.264  18.262  0.00  0.00    +0.000 A 
ATOM     21  C   UNL     1       1.060  12.017  19.169  0.00  0.00    +0.000 A 
ATOM     22  N   UNL     1       0.390  11.143  19.995  0.00  0.00    +0.000 N 
ATOM     23  N   UNL     1       0.687   9.841  19.683  0.00  0.00    +0.000 NA
BRANCH  22  24
ATOM     24  C   UNL     1      -0.543  11.474  21.010  0.00  0.00    +0.000 A 
ATOM     25  C   UNL     1      -1.553  12.421  20.764  0.00  0.00    +0.000 A 
ATOM     26  C   UNL     1      -2.526  12.672  21.736  0.00  0.00    +0.000 A 
ATOM     27  C   UNL     1      -2.468  12.009  22.957  0.00  0.00    +0.000 A 
ATOM     28  F   UNL     1      -3.414  12.232  23.877  0.00  0.00    +0.000 F 
ATOM     29  C   UNL     1      -1.445  11.108  23.230  0.00  0.00    +0.000 A 
ATOM     30  C   UNL     1      -0.485  10.835  22.252  0.00  0.00    +0.000 A 
ENDBRANCH  22  24
ENDBRANCH  18  19
ENDBRANCH   2  18
TORSDOF 5
ENDMDL
MODEL 5
REMARK VINA RESULT:      -8.7      2.380      3.025
REMARK  Name = 
REMARK  6 active torsions:
REMARK  status: ('A' for Active; 'I' for Inactive)
REMARK    1  A    between atoms: C_1  and  C_2
REMARK    2  A    between atoms: C_4  and  N_5
REMARK    3  A    between atoms: C_6  and  C_8
REMARK    4  A    between atoms: C_8  and  C_9
REMARK    5  A    between atoms: N_12  and  C_13
REMARK    6  A    between atoms: N_21  and  C_22
REMARK                            x       y       z     vdW  Elec       q    Type
REMARK                         _______ _______ _______ _____ _____    ______ ____
ROOT
ATOM      1  N   UNL     1       2.787   6.914  19.599  0.00  0.00    +0.000 N 
ATOM      2  C   UNL     1       2.331   7.341  18.307  0.00  0.00    +0.000 C 
ATOM      3  O   UNL     1       1.891   6.523  17.512  0.00  0.00    +0.000 OA
ATOM      4  H   UNL     1       2.879   7.625  20.322  0.00  0.00    +0.000 HD
ENDROOT
BRANCH   1   8
ATOM      5  C   UNL     1       1.656   2.515  21.669  0.00  0.00    +0.000 C 
ATOM      6  C   UNL     1       2.299   3.633  20.931  0.00  0.00    +0.000 A 
ATOM      7  C   UNL     1       1.909   4.987  20.863  0.00  0.00    +0.000 A 
ATOM      8  C   UNL     1       2.783   5.576  19.981  0.00  0.00    +0.000 A 
ATOM      9  N   UNL     1       3.669   4.573  19.577  0.00  0.00    +0.000 N 
ATOM     10  N   UNL     1       3.392   3.399  20.195  0.00  0.00    +0.000 NA
BRANCH   9  11
ATOM     11  C   UNL     1       4.819   4.689  18.759  0.00  0.00    +0.000 A 
ATOM     12  C   UNL     1       6.004   5.199  19.311  0.00  0.00    +0.000 A 
ATOM     13  C   UNL     1       7.121   5.412  18.499  0.00  0.00    +0.000 A 
ATOM     14  C   UNL     1       7.079   5.074  17.148  0.00  0.00    +0.000 A 
ATOM     15  C   UNL     1       5.926   4.503  16.619  0.00  0.00    +0.000 A 
ATOM     16  C   UNL     1       4.802   4.330  17.414  0.00  0.00    +0.000 A 
ATOM     17  F   UNL     1       3.731   3.746  16.855  0.00  0.00    +0.000 F 
ENDBRANCH   9  11
ENDBRANCH   1   8
BRANCH   2  18
ATOM     18  C   UNL     1       2.415   8.823  18.053  0.00  0.00    +0.000 C 
BRANCH  18  19
ATOM     19  C   UNL     1       1.171   9.543  18.435  0.00  0.00    +0.000 A 
ATOM     20  C   UNL     1      -0.035   9.602  17.700  0.00  0.00    +0.000 A 
ATOM     21  C   UNL     1      -0.881  10.366  18.460  0.00  0.00    +0.000 A 
ATOM     22  N   UNL     1      -0.186  10.748  19.585  0.00  0.00    +0.000 N 
ATOM     23  N   UNL     1       1.109  10.300  19.542  0.00  0.00    +0.000 NA
BRANCH  22  24
ATOM     24  C   UNL     1      -0.695  11.455  20.703  0.00  0.00    +0.000 A 
ATOM     25  C   UNL     1      -0.763  10.835  21.965  0.00  0.00    +0.000 A 
ATOM     26  C   UNL     1      -1.177  11.568  23.080  0.00  0.00    +0.000 A 
ATOM     27  C   UNL     1      -1.555  12.899  22.931  0.00  0.00    +0.000 A 
ATOM     28  F   UNL     1      -1.927  13.605  24.004  0.00  0.00    +0.000 F 
ATOM     29  C   UNL     1      -1.540  13.506  21.680  0.00  0.00    +0.000 A 
ATOM     30  C   UNL     1      -1.103  12.786  20.566  0.00  0.00    +0.000 A 
ENDBRANCH  22  24
ENDBRANCH  18  19
ENDBRANCH   2  18
TORSDOF 5
ENDMDL
MODEL 6
REMARK VINA RESULT:      -8.6      2.762      3.512
REMARK  Name = 
REMARK  6 active torsions:
REMARK  status: ('A' for Active; 'I' for Inactive)
REMARK    1  A    between atoms: C_1  and  C_2
REMARK    2  A    between atoms: C_4  and  N_5
REMARK    3  A    between atoms: C_6  and  C_8
REMARK    4  A    between atoms: C_8  and  C_9
REMARK    5  A    between atoms: N_12  and  C_13
REMARK    6  A    between atoms: N_21  and  C_22
REMARK                            x       y       z     vdW  Elec       q    Type
REMARK                         _______ _______ _______ _____ _____    ______ ____
ROOT
ATOM      1  N   UNL     1       2.600   6.954  17.589  0.00  0.00    +0.000 N 
ATOM      2  C   UNL     1       2.290   7.941  18.582  0.00  0.00    +0.000 C 
ATOM      3  O   UNL     1       2.190   7.619  19.757  0.00  0.00    +0.000 OA
ATOM      4  H   UNL     1       2.946   7.285  16.691  0.00  0.00    +0.000 HD
ENDROOT
BRANCH   1   8
ATOM      5  C   UNL     1       1.808   2.132  18.613  0.00  0.00    +0.000 C 
ATOM      6  C   UNL     1       2.403   3.477  18.398  0.00  0.00    +0.000 A 
ATOM      7  C   UNL     1       1.754   4.692  18.092  0.00  0.00    +0.000 A 
ATOM      8  C   UNL     1       2.761   5.608  17.907  0.00  0.00    +0.000 A 
ATOM      9  N   UNL     1       3.960   4.925  18.131  0.00  0.00    +0.000 N 
ATOM     10  N   UNL     1       3.729   3.634  18.472  0.00  0.00    +0.000 NA
BRANCH   9  11
ATOM     11  C   UNL     1       5.277   5.444  18.170  0.00  0.00    +0.000 A 
ATOM     12  C   UNL     1       6.072   5.211  19.302  0.00  0.00    +0.000 A 
ATOM     13  C   UNL     1       7.338   5.794  19.402  0.00  0.00    +0.000 A 
ATOM     14  C   UNL     1       7.836   6.571  18.358  0.00  0.00    +0.000 A 
ATOM     15  C   UNL     1       7.073   6.743  17.207  0.00  0.00    +0.000 A 
ATOM     16  C   UNL     1       5.799   6.199  17.123  0.00  0.00    +0.000 A 
ATOM     17  F   UNL     1       5.125   6.373  15.976  0.00  0.00    +0.000 F 
ENDBRANCH   9  11
ENDBRANCH   1   8
BRANCH   2  18
ATOM     18  C   UNL     1       2.137   9.348  18.064  0.00  0.00    +0.000 C 
BRANCH  18  19
ATOM     19  C   UNL     1       0.947  10.040  18.626  0.00  0.00    +0.000 A 
ATOM     20  C   UNL     1      -0.389   9.932  18.176  0.00  0.00    +0.000 A 
ATOM     21  C   UNL     1      -1.115  10.741  19.009  0.00  0.00    +0.000 A 
ATOM     22  N   UNL     1      -0.231  11.308  19.899  0.00  0.00    +0.000 N 
ATOM     23  N   UNL     1       1.059  10.933  19.622  0.00  0.00    +0.000 NA
BRANCH  22  24
ATOM     24  C   UNL     1      -0.548  12.128  21.011  0.00  0.00    +0.000 A 
ATOM     25  C   UNL     1      -1.482  11.694  21.969  0.00  0.00    +0.000 A 
ATOM     26  C   UNL     1      -1.719  12.464  23.111  0.00  0.00    +0.000 A 
ATOM     27  C   UNL     1      -1.055  13.676  23.276  0.00  0.00    +0.000 A 
ATOM     28  F   UNL     1      -1.264  14.399  24.382  0.00  0.00    +0.000 F 
ATOM     29  C   UNL     1      -0.167  14.137  22.312  0.00  0.00    +0.000 A 
ATOM     30  C   UNL     1       0.092  13.360  21.181  0.00  0.00    +0.000 A 
ENDBRANCH  22  24
ENDBRANCH  18  19
ENDBRANCH   2  18
TORSDOF 5
ENDMDL
MODEL 7
REMARK VINA RESULT:      -8.6      2.343      3.061
REMARK  Name = 
REMARK  6 active torsions:
REMARK  status: ('A' for Active; 'I' for Inactive)
REMARK    1  A    between atoms: C_1  and  C_2
REMARK    2  A    between atoms: C_4  and  N_5
REMARK    3  A    between atoms: C_6  and  C_8
REMARK    4  A    between atoms: C_8  and  C_9
REMARK    5  A    between atoms: N_12  and  C_13
REMARK    6  A    between atoms: N_21  and  C_22
REMARK                            x       y       z     vdW  Elec       q    Type
REMARK                         _______ _______ _______ _____ _____    ______ ____
ROOT
ATOM      1  N   UNL     1       2.479   6.500  18.363  0.00  0.00    +0.000 N 
ATOM      2  C   UNL     1       2.166   7.734  19.023  0.00  0.00    +0.000 C 
ATOM      3  O   UNL     1       2.122   7.783  20.244  0.00  0.00    +0.000 OA
ATOM      4  H   UNL     1       2.780   6.551  17.392  0.00  0.00    +0.000 HD
ENDROOT
BRANCH   1   8
ATOM      5  C   UNL     1       2.137   2.653  21.526  0.00  0.00    +0.000 C 
ATOM      6  C   UNL     1       2.572   3.633  20.498  0.00  0.00    +0.000 A 
ATOM      7  C   UNL     1       1.957   4.845  20.116  0.00  0.00    +0.000 A 
ATOM      8  C   UNL     1       2.706   5.321  19.067  0.00  0.00    +0.000 A 
ATOM      9  N   UNL     1       3.744   4.403  18.877  0.00  0.00    +0.000 N 
ATOM     10  N   UNL     1       3.678   3.398  19.783  0.00  0.00    +0.000 NA
BRANCH   9  11
ATOM     11  C   UNL     1       4.846   4.489  17.993  0.00  0.00    +0.000 A 
ATOM     12  C   UNL     1       4.687   4.089  16.657  0.00  0.00    +0.000 A 
ATOM     13  C   UNL     1       5.786   4.075  15.794  0.00  0.00    +0.000 A 
ATOM     14  C   UNL     1       7.034   4.502  16.242  0.00  0.00    +0.000 A 
ATOM     15  C   UNL     1       7.174   4.963  17.547  0.00  0.00    +0.000 A 
ATOM     16  C   UNL     1       6.094   4.939  18.418  0.00  0.00    +0.000 A 
ATOM     17  F   UNL     1       6.283   5.425  19.654  0.00  0.00    +0.000 F 
ENDBRANCH   9  11
ENDBRANCH   1   8
BRANCH   2  18
ATOM     18  C   UNL     1       1.938   8.911  18.111  0.00  0.00    +0.000 C 
BRANCH  18  19
ATOM     19  C   UNL     1       0.700   9.665  18.444  0.00  0.00    +0.000 A 
ATOM     20  C   UNL     1      -0.487   9.727  17.678  0.00  0.00    +0.000 A 
ATOM     21  C   UNL     1      -1.336  10.527  18.398  0.00  0.00    +0.000 A 
ATOM     22  N   UNL     1      -0.661  10.924  19.530  0.00  0.00    +0.000 N 
ATOM     23  N   UNL     1       0.626  10.450  19.530  0.00  0.00    +0.000 NA
BRANCH  22  24
ATOM     24  C   UNL     1      -1.183  11.669  20.617  0.00  0.00    +0.000 A 
ATOM     25  C   UNL     1      -0.781  11.380  21.934  0.00  0.00    +0.000 A 
ATOM     26  C   UNL     1      -1.226  12.179  22.990  0.00  0.00    +0.000 A 
ATOM     27  C   UNL     1      -2.095  13.235  22.738  0.00  0.00    +0.000 A 
ATOM     28  F   UNL     1      -2.500  14.014  23.747  0.00  0.00    +0.000 F 
ATOM     29  C   UNL     1      -2.538  13.499  21.446  0.00  0.00    +0.000 A 
ATOM     30  C   UNL     1      -2.076  12.719  20.384  0.00  0.00    +0.000 A 
ENDBRANCH  22  24
ENDBRANCH  18  19
ENDBRANCH   2  18
TORSDOF 5
ENDMDL
MODEL 8
REMARK VINA RESULT:      -8.6      2.259      2.692
REMARK  Name = 
REMARK  6 active torsions:
REMARK  status: ('A' for Active; 'I' for Inactive)
REMARK    1  A    between atoms: C_1  and  C_2
REMARK    2  A    between atoms: C_4  and  N_5
REMARK    3  A    between atoms: C_6  and  C_8
REMARK    4  A    between atoms: C_8  and  C_9
REMARK    5  A    between atoms: N_12  and  C_13
REMARK    6  A    between atoms: N_21  and  C_22
REMARK                            x       y       z     vdW  Elec       q    Type
REMARK                         _______ _______ _______ _____ _____    ______ ____
ROOT
ATOM      1  N   UNL     1       2.204   6.224  18.351  0.00  0.00    +0.000 N 
ATOM      2  C   UNL     1       2.169   7.548  18.903  0.00  0.00    +0.000 C 
ATOM      3  O   UNL     1       2.378   7.721  20.095  0.00  0.00    +0.000 OA
ATOM      4  H   UNL     1       2.305   6.140  17.342  0.00  0.00    +0.000 HD
ENDROOT
BRANCH   1   8
ATOM      5  C   UNL     1       1.740   2.434  21.567  0.00  0.00    +0.000 C 
ATOM      6  C   UNL     1       2.239   3.441  20.595  0.00  0.00    +0.000 A 
ATOM      7  C   UNL     1       1.564   4.553  20.049  0.00  0.00    +0.000 A 
ATOM      8  C   UNL     1       2.436   5.100  19.139  0.00  0.00    +0.000 A 
ATOM      9  N   UNL     1       3.596   4.322  19.189  0.00  0.00    +0.000 N 
ATOM     10  N   UNL     1       3.482   3.336  20.112  0.00  0.00    +0.000 NA
BRANCH   9  11
ATOM     11  C   UNL     1       4.829   4.532  18.525  0.00  0.00    +0.000 A 
ATOM     12  C   UNL     1       5.899   5.102  19.230  0.00  0.00    +0.000 A 
ATOM     13  C   UNL     1       7.092   5.406  18.569  0.00  0.00    +0.000 A 
ATOM     14  C   UNL     1       7.241   5.101  17.217  0.00  0.00    +0.000 A 
ATOM     15  C   UNL     1       6.203   4.473  16.538  0.00  0.00    +0.000 A 
ATOM     16  C   UNL     1       5.002   4.208  17.182  0.00  0.00    +0.000 A 
ATOM     17  F   UNL     1       4.051   3.572  16.482  0.00  0.00    +0.000 F 
ENDBRANCH   9  11
ENDBRANCH   1   8
BRANCH   2  18
ATOM     18  C   UNL     1       1.894   8.650  17.913  0.00  0.00    +0.000 C 
BRANCH  18  19
ATOM     19  C   UNL     1       1.422   9.901  18.563  0.00  0.00    +0.000 A 
ATOM     20  C   UNL     1       1.830  11.221  18.260  0.00  0.00    +0.000 A 
ATOM     21  C   UNL     1       1.112  12.021  19.110  0.00  0.00    +0.000 A 
ATOM     22  N   UNL     1       0.330  11.196  19.885  0.00  0.00    +0.000 N 
ATOM     23  N   UNL     1       0.569   9.876  19.599  0.00  0.00    +0.000 NA
BRANCH  22  24
ATOM     24  C   UNL     1      -0.655  11.590  20.825  0.00  0.00    +0.000 A 
ATOM     25  C   UNL     1      -1.745  12.384  20.421  0.00  0.00    +0.000 A 
ATOM     26  C   UNL     1      -2.760  12.689  21.332  0.00  0.00    +0.000 A 
ATOM     27  C   UNL     1      -2.670  12.236  22.644  0.00  0.00    +0.000 A 
ATOM     28  F   UNL     1      -3.655  12.508  23.507  0.00  0.00    +0.000 F 
ATOM     29  C   UNL     1      -1.573  11.493  23.066  0.00  0.00    +0.000 A 
ATOM     30  C   UNL     1      -0.568  11.164  22.154  0.00  0.00    +0.000 A 
ENDBRANCH  22  24
ENDBRANCH  18  19
ENDBRANCH   2  18
TORSDOF 5
ENDMDL
MODEL 9
REMARK VINA RESULT:      -8.6      2.425      3.049
REMARK  Name = 
REMARK  6 active torsions:
REMARK  status: ('A' for Active; 'I' for Inactive)
REMARK    1  A    between atoms: C_1  and  C_2
REMARK    2  A    between atoms: C_4  and  N_5
REMARK    3  A    between atoms: C_6  and  C_8
REMARK    4  A    between atoms: C_8  and  C_9
REMARK    5  A    between atoms: N_12  and  C_13
REMARK    6  A    between atoms: N_21  and  C_22
REMARK                            x       y       z     vdW  Elec       q    Type
REMARK                         _______ _______ _______ _____ _____    ______ ____
ROOT
ATOM      1  N   UNL     1       2.499   6.440  17.705  0.00  0.00    +0.000 N 
ATOM      2  C   UNL     1       2.388   7.455  18.713  0.00  0.00    +0.000 C 
ATOM      3  O   UNL     1       2.351   7.144  19.895  0.00  0.00    +0.000 OA
ATOM      4  H   UNL     1       2.804   6.731  16.779  0.00  0.00    +0.000 HD
ENDROOT
BRANCH   1   8
ATOM      5  C   UNL     1       1.252   1.734  18.809  0.00  0.00    +0.000 C 
ATOM      6  C   UNL     1       1.975   3.005  18.547  0.00  0.00    +0.000 A 
ATOM      7  C   UNL     1       1.445   4.285  18.278  0.00  0.00    +0.000 A 
ATOM      8  C   UNL     1       2.532   5.085  18.020  0.00  0.00    +0.000 A 
ATOM      9  N   UNL     1       3.661   4.273  18.167  0.00  0.00    +0.000 N 
ATOM     10  N   UNL     1       3.313   3.015  18.530  0.00  0.00    +0.000 NA
BRANCH   9  11
ATOM     11  C   UNL     1       5.027   4.643  18.114  0.00  0.00    +0.000 A 
ATOM     12  C   UNL     1       5.638   5.174  19.260  0.00  0.00    +0.000 A 
ATOM     13  C   UNL     1       6.956   5.635  19.202  0.00  0.00    +0.000 A 
ATOM     14  C   UNL     1       7.685   5.525  18.020  0.00  0.00    +0.000 A 
ATOM     15  C   UNL     1       7.098   4.935  16.905  0.00  0.00    +0.000 A 
ATOM     16  C   UNL     1       5.776   4.515  16.948  0.00  0.00    +0.000 A 
ATOM     17  F   UNL     1       5.278   3.926  15.851  0.00  0.00    +0.000 F 
ENDBRANCH   9  11
ENDBRANCH   1   8
BRANCH   2  18
ATOM     18  C   UNL     1       2.354   8.870  18.198  0.00  0.00    +0.000 C 
BRANCH  18  19
ATOM     19  C   UNL     1       1.093   9.578  18.547  0.00  0.00    +0.000 A 
ATOM     20  C   UNL     1      -0.080   9.659  17.762  0.00  0.00    +0.000 A 
ATOM     21  C   UNL     1      -0.960  10.399  18.508  0.00  0.00    +0.000 A 
ATOM     22  N   UNL     1      -0.315  10.745  19.674  0.00  0.00    +0.000 N 
ATOM     23  N   UNL     1       0.981  10.300  19.674  0.00  0.00    +0.000 NA
BRANCH  22  24
ATOM     24  C   UNL     1      -0.874  11.417  20.790  0.00  0.00    +0.000 A 
ATOM     25  C   UNL     1      -1.555  12.636  20.617  0.00  0.00    +0.000 A 
ATOM     26  C   UNL     1      -2.185  13.243  21.707  0.00  0.00    +0.000 A 
ATOM     27  C   UNL     1      -2.104  12.657  22.966  0.00  0.00    +0.000 A 
ATOM     28  F   UNL     1      -2.728  13.228  24.003  0.00  0.00    +0.000 F 
ATOM     29  C   UNL     1      -1.391  11.479  23.157  0.00  0.00    +0.000 A 
ATOM     30  C   UNL     1      -0.781  10.854  22.067  0.00  0.00    +0.000 A 
ENDBRANCH  22  24
ENDBRANCH  18  19
ENDBRANCH   2  18
TORSDOF 5
ENDMDL
