MODEL 1
REMARK VINA RESULT:      -8.6      0.000      0.000
REMARK  Name = 
REMARK  8 active torsions:
REMARK  status: ('A' for Active; 'I' for Inactive)
REMARK    1  A    between atoms: C_1  and  C_2
REMARK    2  A    between atoms: C_2  and  C_3
REMARK    3  A    between atoms: C_2  and  C_4
REMARK    4  A    between atoms: C_4  and  N_5
REMARK    5  A    between atoms: C_4  and  C_9
REMARK    6  A    between atoms: N_11  and  C_12
REMARK    7  A    between atoms: C_15  and  C_16
REMARK    8  A    between atoms: N_24  and  C_25
REMARK                            x       y       z     vdW  Elec       q    Type
REMARK                         _______ _______ _______ _____ _____    ______ ____
ROOT
ATOM      1  C   UNL     1       2.452   7.142  18.552  0.00  0.00    +0.000 A 
ATOM      2  C   UNL     1       2.024   8.269  17.846  0.00  0.00    +0.000 A 
ATOM      3  C   UNL     1       1.332   9.310  18.464  0.00  0.00    +0.000 A 
ATOM      4  C   UNL     1       0.967   9.206  19.799  0.00  0.00    +0.000 A 
ATOM      5  C   UNL     1       1.489   8.129  20.547  0.00  0.00    +0.000 A 
ATOM      6  C   UNL     1       2.221   7.101  19.927  0.00  0.00    +0.000 A 
ENDROOT
BRANCH   4   7
ATOM      7  C   UNL     1      -0.267   9.902  20.291  0.00  0.00    +0.000 A 
ATOM      8  N   UNL     1      -1.038  10.555  19.423  0.00  0.00    +0.000 NA
ATOM      9  C   UNL     1      -0.496  11.818  19.507  0.00  0.00    +0.000 A 
ATOM     10  C   UNL     1      -0.368  12.808  18.533  0.00  0.00    +0.000 A 
ATOM     11  C   UNL     1       0.441  13.912  18.833  0.00  0.00    +0.000 A 
ATOM     12  C   UNL     1       1.011  14.071  20.103  0.00  0.00    +0.000 A 
ATOM     13  C   UNL     1       0.804  13.139  21.129  0.00  0.00    +0.000 A 
ATOM     14  C   UNL     1       0.085  12.001  20.763  0.00  0.00    +0.000 A 
ATOM     15  N   UNL     1      -0.196  10.794  21.359  0.00  0.00    +0.000 N 
BRANCH  15  16
ATOM     16  C   UNL     1      -0.443  10.531  22.754  0.00  0.00    +0.000 C 
ATOM     17  F   UNL     1      -1.681  10.928  23.145  0.00  0.00    +0.000 F 
ATOM     18  F   UNL     1      -0.356   9.203  23.039  0.00  0.00    +0.000 F 
ENDBRANCH  15  16
ENDBRANCH   4   7
BRANCH   1  21
ATOM     19  C   UNL     1       4.327   6.045  17.346  0.00  0.00    +0.000 C 
ATOM     20  O   UNL     1       5.132   6.977  17.390  0.00  0.00    +0.000 OA
ATOM     21  N   UNL     1       3.066   6.033  17.914  0.00  0.00    +0.000 N 
ATOM     22  H   UNL     1       2.532   5.163  17.859  0.00  0.00    +0.000 HD
BRANCH  19  23
ATOM     23  C   UNL     1       4.816   4.729  16.715  0.00  0.00    +0.000 C 
BRANCH  23  24
ATOM     24  N   UNL     1       4.821   3.642  17.697  0.00  0.00    +0.000 N 
ATOM     25  C   UNL     1       3.789   2.794  17.932  0.00  0.00    +0.000 C 
ATOM     26  N   UNL     1       4.098   1.839  18.841  0.00  0.00    +0.000 N 
ATOM     27  O   UNL     1       2.701   2.835  17.381  0.00  0.00    +0.000 OA
ATOM     28  H   UNL     1       5.734   3.251  17.897  0.00  0.00    +0.000 HD
ATOM     29  H   UNL     1       4.837   2.005  19.509  0.00  0.00    +0.000 HD
ATOM     30  H   UNL     1       3.306   1.308  19.181  0.00  0.00    +0.000 HD
ENDBRANCH  23  24
BRANCH  23  32
ATOM     31  C   UNL     1       7.353   4.522  16.642  0.00  0.00    +0.000 C 
ATOM     32  C   UNL     1       6.100   4.962  15.882  0.00  0.00    +0.000 C 
ATOM     33  C   UNL     1       6.053   4.190  14.550  0.00  0.00    +0.000 C 
ENDBRANCH  23  32
ENDBRANCH  19  23
ENDBRANCH   1  21
TORSDOF 6
ENDMDL
MODEL 2
REMARK VINA RESULT:      -8.5      0.997      1.293
REMARK  Name = 
REMARK  8 active torsions:
REMARK  status: ('A' for Active; 'I' for Inactive)
REMARK    1  A    between atoms: C_1  and  C_2
REMARK    2  A    between atoms: C_2  and  C_3
REMARK    3  A    between atoms: C_2  and  C_4
REMARK    4  A    between atoms: C_4  and  N_5
REMARK    5  A    between atoms: C_4  and  C_9
REMARK    6  A    between atoms: N_11  and  C_12
REMARK    7  A    between atoms: C_15  and  C_16
REMARK    8  A    between atoms: N_24  and  C_25
REMARK                            x       y       z     vdW  Elec       q    Type
REMARK                         _______ _______ _______ _____ _____    ______ ____
ROOT
ATOM      1  C   UNL     1       2.470   7.044  18.729  0.00  0.00    +0.000 A 
ATOM      2  C   UNL     1       2.173   8.146  17.924  0.00  0.00    +0.000 A 
ATOM      3  C   UNL     1       1.499   9.262  18.417  0.00  0.00    +0.000 A 
ATOM      4  C   UNL     1       1.019   9.264  19.720  0.00  0.00    +0.000 A 
ATOM      5  C   UNL     1       1.409   8.210  20.572  0.00  0.00    +0.000 A 
ATOM      6  C   UNL     1       2.124   7.104  20.080  0.00  0.00    +0.000 A 
ENDROOT
BRANCH   4   7
ATOM      7  C   UNL     1      -0.206  10.061  20.062  0.00  0.00    +0.000 A 
ATOM      8  N   UNL     1      -0.778  10.813  19.124  0.00  0.00    +0.000 NA
ATOM      9  C   UNL     1      -0.142  12.014  19.343  0.00  0.00    +0.000 A 
ATOM     10  C   UNL     1       0.217  13.019  18.444  0.00  0.00    +0.000 A 
ATOM     11  C   UNL     1       1.070  14.028  18.908  0.00  0.00    +0.000 A 
ATOM     12  C   UNL     1       1.460  14.090  20.252  0.00  0.00    +0.000 A 
ATOM     13  C   UNL     1       1.020  13.150  21.193  0.00  0.00    +0.000 A 
ATOM     14  C   UNL     1       0.263  12.100  20.676  0.00  0.00    +0.000 A 
ATOM     15  N   UNL     1      -0.211  10.906  21.169  0.00  0.00    +0.000 N 
BRANCH  15  16
ATOM     16  C   UNL     1      -0.683  10.623  22.501  0.00  0.00    +0.000 C 
ATOM     17  F   UNL     1       0.220   9.922  23.233  0.00  0.00    +0.000 F 
ATOM     18  F   UNL     1      -0.940  11.764  23.198  0.00  0.00    +0.000 F 
ENDBRANCH  15  16
ENDBRANCH   4   7
BRANCH   1  21
ATOM     19  C   UNL     1       4.379   5.484  18.416  0.00  0.00    +0.000 C 
ATOM     20  O   UNL     1       5.193   6.057  19.141  0.00  0.00    +0.000 OA
ATOM     21  N   UNL     1       3.064   5.863  18.213  0.00  0.00    +0.000 N 
ATOM     22  H   UNL     1       2.480   5.252  17.637  0.00  0.00    +0.000 HD
BRANCH  19  23
ATOM     23  C   UNL     1       4.823   4.155  17.780  0.00  0.00    +0.000 C 
BRANCH  23  24
ATOM     24  N   UNL     1       5.284   3.209  18.799  0.00  0.00    +0.000 N 
ATOM     25  C   UNL     1       4.480   2.442  19.576  0.00  0.00    +0.000 C 
ATOM     26  N   UNL     1       5.179   1.605  20.379  0.00  0.00    +0.000 N 
ATOM     27  O   UNL     1       3.260   2.453  19.558  0.00  0.00    +0.000 OA
ATOM     28  H   UNL     1       6.201   2.813  18.630  0.00  0.00    +0.000 HD
ATOM     29  H   UNL     1       6.132   1.830  20.626  0.00  0.00    +0.000 HD
ATOM     30  H   UNL     1       4.630   1.156  21.101  0.00  0.00    +0.000 HD
ENDBRANCH  23  24
BRANCH  23  32
ATOM     31  C   UNL     1       5.357   5.697  15.824  0.00  0.00    +0.000 C 
ATOM     32  C   UNL     1       5.738   4.409  16.557  0.00  0.00    +0.000 C 
ATOM     33  C   UNL     1       7.216   4.516  16.974  0.00  0.00    +0.000 C 
ENDBRANCH  23  32
ENDBRANCH  19  23
ENDBRANCH   1  21
TORSDOF 6
ENDMDL
MODEL 3
REMARK VINA RESULT:      -8.5      3.428      8.731
REMARK  Name = 
REMARK  8 active torsions:
REMARK  status: ('A' for Active; 'I' for Inactive)
REMARK    1  A    between atoms: C_1  and  C_2
REMARK    2  A    between atoms: C_2  and  C_3
REMARK    3  A    between atoms: C_2  and  C_4
REMARK    4  A    between atoms: C_4  and  N_5
REMARK    5  A    between atoms: C_4  and  C_9
REMARK    6  A    between atoms: N_11  and  C_12
REMARK    7  A    between atoms: C_15  and  C_16
REMARK    8  A    between atoms: N_24  and  C_25
REMARK                            x       y       z     vdW  Elec       q    Type
REMARK                         _______ _______ _______ _____ _____    ______ ____
ROOT
ATOM      1  C   UNL     1       1.065   9.151  19.113  0.00  0.00    +0.000 A 
ATOM      2  C   UNL     1       1.244   8.467  20.319  0.00  0.00    +0.000 A 
ATOM      3  C   UNL     1       2.115   7.384  20.433  0.00  0.00    +0.000 A 
ATOM      4  C   UNL     1       2.767   6.896  19.308  0.00  0.00    +0.000 A 
ATOM      5  C   UNL     1       2.682   7.644  18.116  0.00  0.00    +0.000 A 
ATOM      6  C   UNL     1       1.833   8.760  18.016  0.00  0.00    +0.000 A 
ENDROOT
BRANCH   4   7
ATOM      7  C   UNL     1       3.133   5.443  19.232  0.00  0.00    +0.000 A 
ATOM      8  N   UNL     1       4.260   5.022  19.803  0.00  0.00    +0.000 NA
ATOM      9  C   UNL     1       5.132   5.124  18.741  0.00  0.00    +0.000 A 
ATOM     10  C   UNL     1       6.492   5.432  18.722  0.00  0.00    +0.000 A 
ATOM     11  C   UNL     1       7.078   5.701  17.479  0.00  0.00    +0.000 A 
ATOM     12  C   UNL     1       6.353   5.560  16.288  0.00  0.00    +0.000 A 
ATOM     13  C   UNL     1       5.014   5.147  16.282  0.00  0.00    +0.000 A 
ATOM     14  C   UNL     1       4.433   4.993  17.540  0.00  0.00    +0.000 A 
ATOM     15  N   UNL     1       3.155   4.785  18.004  0.00  0.00    +0.000 N 
BRANCH  15  16
ATOM     16  C   UNL     1       2.110   3.999  17.398  0.00  0.00    +0.000 C 
ATOM     17  F   UNL     1       1.761   2.929  18.157  0.00  0.00    +0.000 F 
ATOM     18  F   UNL     1       0.975   4.726  17.213  0.00  0.00    +0.000 F 
ENDBRANCH  15  16
ENDBRANCH   4   7
BRANCH   1  21
ATOM     19  C   UNL     1       0.284  11.495  19.375  0.00  0.00    +0.000 C 
ATOM     20  O   UNL     1       1.318  11.972  19.844  0.00  0.00    +0.000 OA
ATOM     21  N   UNL     1       0.107  10.187  18.962  0.00  0.00    +0.000 N 
ATOM     22  H   UNL     1      -0.786   9.946  18.526  0.00  0.00    +0.000 HD
BRANCH  19  23
ATOM     23  C   UNL     1      -0.875  12.470  19.104  0.00  0.00    +0.000 C 
BRANCH  23  24
ATOM     24  N   UNL     1      -1.346  12.360  17.720  0.00  0.00    +0.000 N 
ATOM     25  C   UNL     1      -2.238  11.444  17.267  0.00  0.00    +0.000 C 
ATOM     26  N   UNL     1      -2.547  11.622  15.961  0.00  0.00    +0.000 N 
ATOM     27  O   UNL     1      -2.750  10.564  17.940  0.00  0.00    +0.000 OA
ATOM     28  H   UNL     1      -1.337  13.227  17.196  0.00  0.00    +0.000 HD
ATOM     29  H   UNL     1      -1.900  12.107  15.356  0.00  0.00    +0.000 HD
ATOM     30  H   UNL     1      -3.057  10.857  15.540  0.00  0.00    +0.000 HD
ENDBRANCH  23  24
BRANCH  23  32
ATOM     31  C   UNL     1      -0.236  14.865  18.518  0.00  0.00    +0.000 C 
ATOM     32  C   UNL     1      -0.546  13.881  19.649  0.00  0.00    +0.000 C 
ATOM     33  C   UNL     1      -1.715  14.452  20.472  0.00  0.00    +0.000 C 
ENDBRANCH  23  32
ENDBRANCH  19  23
ENDBRANCH   1  21
TORSDOF 6
ENDMDL
MODEL 4
REMARK VINA RESULT:      -8.4      3.519      8.610
REMARK  Name = 
REMARK  8 active torsions:
REMARK  status: ('A' for Active; 'I' for Inactive)
REMARK    1  A    between atoms: C_1  and  C_2
REMARK    2  A    between atoms: C_2  and  C_3
REMARK    3  A    between atoms: C_2  and  C_4
REMARK    4  A    between atoms: C_4  and  N_5
REMARK    5  A    between atoms: C_4  and  C_9
REMARK    6  A    between atoms: N_11  and  C_12
REMARK    7  A    between atoms: C_15  and  C_16
REMARK    8  A    between atoms: N_24  and  C_25
REMARK                            x       y       z     vdW  Elec       q    Type
REMARK                         _______ _______ _______ _____ _____    ______ ____
ROOT
ATOM      1  C   UNL     1       1.220   9.433  18.597  0.00  0.00    +0.000 A 
ATOM      2  C   UNL     1       1.173   8.893  19.885  0.00  0.00    +0.000 A 
ATOM      3  C   UNL     1       1.874   7.738  20.229  0.00  0.00    +0.000 A 
ATOM      4  C   UNL     1       2.575   7.036  19.258  0.00  0.00    +0.000 A 
ATOM      5  C   UNL     1       2.722   7.630  17.987  0.00  0.00    +0.000 A 
ATOM      6  C   UNL     1       2.044   8.817  17.656  0.00  0.00    +0.000 A 
ENDROOT
BRANCH   4   7
ATOM      7  C   UNL     1       2.751   5.552  19.392  0.00  0.00    +0.000 A 
ATOM      8  N   UNL     1       3.775   5.077  20.100  0.00  0.00    +0.000 NA
ATOM      9  C   UNL     1       4.718   4.929  19.107  0.00  0.00    +0.000 A 
ATOM     10  C   UNL     1       6.106   5.063  19.158  0.00  0.00    +0.000 A 
ATOM     11  C   UNL     1       6.799   5.090  17.942  0.00  0.00    +0.000 A 
ATOM     12  C   UNL     1       6.139   4.881  16.724  0.00  0.00    +0.000 A 
ATOM     13  C   UNL     1       4.760   4.637  16.663  0.00  0.00    +0.000 A 
ATOM     14  C   UNL     1       4.086   4.725  17.880  0.00  0.00    +0.000 A 
ATOM     15  N   UNL     1       2.765   4.738  18.262  0.00  0.00    +0.000 N 
BRANCH  15  16
ATOM     16  C   UNL     1       1.666   4.011  17.677  0.00  0.00    +0.000 C 
ATOM     17  F   UNL     1       0.942   3.333  18.604  0.00  0.00    +0.000 F 
ATOM     18  F   UNL     1       0.795   4.840  17.040  0.00  0.00    +0.000 F 
ENDBRANCH  15  16
ENDBRANCH   4   7
BRANCH   1  21
ATOM     19  C   UNL     1      -0.305  11.335  19.079  0.00  0.00    +0.000 C 
ATOM     20  O   UNL     1      -0.311  11.247  20.307  0.00  0.00    +0.000 OA
ATOM     21  N   UNL     1       0.430  10.547  18.211  0.00  0.00    +0.000 N 
ATOM     22  H   UNL     1       0.391  10.777  17.216  0.00  0.00    +0.000 HD
BRANCH  19  23
ATOM     23  C   UNL     1      -1.085  12.507  18.458  0.00  0.00    +0.000 C 
BRANCH  23  24
ATOM     24  N   UNL     1      -1.637  12.142  17.151  0.00  0.00    +0.000 N 
ATOM     25  C   UNL     1      -2.781  11.441  16.952  0.00  0.00    +0.000 C 
ATOM     26  N   UNL     1      -3.090  11.314  15.640  0.00  0.00    +0.000 N 
ATOM     27  O   UNL     1      -3.494  10.989  17.832  0.00  0.00    +0.000 OA
ATOM     28  H   UNL     1      -1.400  12.775  16.395  0.00  0.00    +0.000 HD
ATOM     29  H   UNL     1      -2.361  11.386  14.945  0.00  0.00    +0.000 HD
ATOM     30  H   UNL     1      -3.823  10.645  15.442  0.00  0.00    +0.000 HD
ENDBRANCH  23  24
BRANCH  23  32
ATOM     31  C   UNL     1      -0.613  14.594  19.841  0.00  0.00    +0.000 C 
ATOM     32  C   UNL     1      -0.275  13.823  18.563  0.00  0.00    +0.000 C 
ATOM     33  C   UNL     1       1.241  13.552  18.555  0.00  0.00    +0.000 C 
ENDBRANCH  23  32
ENDBRANCH  19  23
ENDBRANCH   1  21
TORSDOF 6
ENDMDL
MODEL 5
REMARK VINA RESULT:      -8.4      3.955      8.863
REMARK  Name = 
REMARK  8 active torsions:
REMARK  status: ('A' for Active; 'I' for Inactive)
REMARK    1  A    between atoms: C_1  and  C_2
REMARK    2  A    between atoms: C_2  and  C_3
REMARK    3  A    between atoms: C_2  and  C_4
REMARK    4  A    between atoms: C_4  and  N_5
REMARK    5  A    between atoms: C_4  and  C_9
REMARK    6  A    between atoms: N_11  and  C_12
REMARK    7  A    between atoms: C_15  and  C_16
REMARK    8  A    between atoms: N_24  and  C_25
REMARK                            x       y       z     vdW  Elec       q    Type
REMARK                         _______ _______ _______ _____ _____    ______ ____
ROOT
ATOM      1  C   UNL     1       1.228   9.146  19.125  0.00  0.00    +0.000 A 
ATOM      2  C   UNL     1       1.433   8.141  20.074  0.00  0.00    +0.000 A 
ATOM      3  C   UNL     1       2.306   7.077  19.849  0.00  0.00    +0.000 A 
ATOM      4  C   UNL     1       2.933   6.943  18.617  0.00  0.00    +0.000 A 
ATOM      5  C   UNL     1       2.823   8.006  17.697  0.00  0.00    +0.000 A 
ATOM      6  C   UNL     1       1.972   9.097  17.946  0.00  0.00    +0.000 A 
ENDROOT
BRANCH   4   7
ATOM      7  C   UNL     1       3.297   5.578  18.112  0.00  0.00    +0.000 A 
ATOM      8  N   UNL     1       2.335   4.762  17.684  0.00  0.00    +0.000 NA
ATOM      9  C   UNL     1       2.056   4.074  18.844  0.00  0.00    +0.000 A 
ATOM     10  C   UNL     1       0.851   3.543  19.306  0.00  0.00    +0.000 A 
ATOM     11  C   UNL     1       0.807   3.100  20.634  0.00  0.00    +0.000 A 
ATOM     12  C   UNL     1       1.956   3.086  21.435  0.00  0.00    +0.000 A 
ATOM     13  C   UNL     1       3.199   3.515  20.951  0.00  0.00    +0.000 A 
ATOM     14  C   UNL     1       3.184   4.051  19.664  0.00  0.00    +0.000 A 
ATOM     15  N   UNL     1       4.090   4.729  18.881  0.00  0.00    +0.000 N 
BRANCH  15  16
ATOM     16  C   UNL     1       5.517   4.542  18.814  0.00  0.00    +0.000 C 
ATOM     17  F   UNL     1       5.978   4.524  17.537  0.00  0.00    +0.000 F 
ATOM     18  F   UNL     1       6.186   5.542  19.450  0.00  0.00    +0.000 F 
ENDBRANCH  15  16
ENDBRANCH   4   7
BRANCH   1  21
ATOM     19  C   UNL     1      -0.786  10.431  18.444  0.00  0.00    +0.000 C 
ATOM     20  O   UNL     1      -1.098   9.757  17.461  0.00  0.00    +0.000 OA
ATOM     21  N   UNL     1       0.267  10.175  19.303  0.00  0.00    +0.000 N 
ATOM     22  H   UNL     1       0.367  10.780  20.121  0.00  0.00    +0.000 HD
BRANCH  19  23
ATOM     23  C   UNL     1      -1.727  11.586  18.826  0.00  0.00    +0.000 C 
BRANCH  23  24
ATOM     24  N   UNL     1      -2.620  11.931  17.716  0.00  0.00    +0.000 N 
ATOM     25  C   UNL     1      -3.905  11.518  17.588  0.00  0.00    +0.000 C 
ATOM     26  N   UNL     1      -4.515  12.050  16.502  0.00  0.00    +0.000 N 
ATOM     27  O   UNL     1      -4.490  10.777  18.361  0.00  0.00    +0.000 OA
ATOM     28  H   UNL     1      -2.420  12.818  17.268  0.00  0.00    +0.000 HD
ATOM     29  H   UNL     1      -3.958  12.369  15.722  0.00  0.00    +0.000 HD
ATOM     30  H   UNL     1      -5.403  11.626  16.267  0.00  0.00    +0.000 HD
ENDBRANCH  23  24
BRANCH  23  32
ATOM     31  C   UNL     1      -0.314  13.677  18.483  0.00  0.00    +0.000 C 
ATOM     32  C   UNL     1      -0.942  12.732  19.510  0.00  0.00    +0.000 C 
ATOM     33  C   UNL     1      -1.852  13.565  20.432  0.00  0.00    +0.000 C 
ENDBRANCH  23  32
ENDBRANCH  19  23
ENDBRANCH   1  21
TORSDOF 6
ENDMDL
MODEL 6
REMARK VINA RESULT:      -8.4      3.416      8.904
REMARK  Name = 
REMARK  8 active torsions:
REMARK  status: ('A' for Active; 'I' for Inactive)
REMARK    1  A    between atoms: C_1  and  C_2
REMARK    2  A    between atoms: C_2  and  C_3
REMARK    3  A    between atoms: C_2  and  C_4
REMARK    4  A    between atoms: C_4  and  N_5
REMARK    5  A    between atoms: C_4  and  C_9
REMARK    6  A    between atoms: N_11  and  C_12
REMARK    7  A    between atoms: C_15  and  C_16
REMARK    8  A    between atoms: N_24  and  C_25
REMARK                            x       y       z     vdW  Elec       q    Type
REMARK                         _______ _______ _______ _____ _____    ______ ____
ROOT
ATOM      1  C   UNL     1       1.795   8.421  18.861  0.00  0.00    +0.000 A 
ATOM      2  C   UNL     1       1.828   7.626  20.009  0.00  0.00    +0.000 A 
ATOM      3  C   UNL     1       2.661   6.513  20.114  0.00  0.00    +0.000 A 
ATOM      4  C   UNL     1       3.423   6.110  19.025  0.00  0.00    +0.000 A 
ATOM      5  C   UNL     1       3.482   6.966  17.905  0.00  0.00    +0.000 A 
ATOM      6  C   UNL     1       2.670   8.110  17.820  0.00  0.00    +0.000 A 
ENDROOT
BRANCH   4   7
ATOM      7  C   UNL     1       3.767   4.661  18.852  0.00  0.00    +0.000 A 
ATOM      8  N   UNL     1       4.974   4.228  19.215  0.00  0.00    +0.000 NA
ATOM      9  C   UNL     1       5.655   4.358  18.026  0.00  0.00    +0.000 A 
ATOM     10  C   UNL     1       6.994   4.669  17.786  0.00  0.00    +0.000 A 
ATOM     11  C   UNL     1       7.362   4.970  16.469  0.00  0.00    +0.000 A 
ATOM     12  C   UNL     1       6.448   4.857  15.413  0.00  0.00    +0.000 A 
ATOM     13  C   UNL     1       5.126   4.441  15.622  0.00  0.00    +0.000 A 
ATOM     14  C   UNL     1       4.765   4.255  16.956  0.00  0.00    +0.000 A 
ATOM     15  N   UNL     1       3.582   4.033  17.622  0.00  0.00    +0.000 N 
BRANCH  15  16
ATOM     16  C   UNL     1       2.448   3.259  17.181  0.00  0.00    +0.000 C 
ATOM     17  F   UNL     1       2.433   2.011  17.716  0.00  0.00    +0.000 F 
ATOM     18  F   UNL     1       1.271   3.844  17.535  0.00  0.00    +0.000 F 
ENDBRANCH  15  16
ENDBRANCH   4   7
BRANCH   1  21
ATOM     19  C   UNL     1       0.583  10.430  19.680  0.00  0.00    +0.000 C 
ATOM     20  O   UNL     1       1.132  10.528  20.778  0.00  0.00    +0.000 OA
ATOM     21  N   UNL     1       0.878   9.494  18.705  0.00  0.00    +0.000 N 
ATOM     22  H   UNL     1       0.390   9.574  17.810  0.00  0.00    +0.000 HD
BRANCH  19  23
ATOM     23  C   UNL     1      -0.431  11.525  19.304  0.00  0.00    +0.000 C 
BRANCH  23  24
ATOM     24  N   UNL     1      -0.882  11.375  17.918  0.00  0.00    +0.000 N 
ATOM     25  C   UNL     1      -2.166  11.482  17.496  0.00  0.00    +0.000 C 
ATOM     26  N   UNL     1      -2.283  11.371  16.152  0.00  0.00    +0.000 N 
ATOM     27  O   UNL     1      -3.131  11.687  18.215  0.00  0.00    +0.000 OA
ATOM     28  H   UNL     1      -0.192  11.616  17.216  0.00  0.00    +0.000 HD
ATOM     29  H   UNL     1      -1.570  10.885  15.627  0.00  0.00    +0.000 HD
ATOM     30  H   UNL     1      -3.231  11.257  15.819  0.00  0.00    +0.000 HD
ENDBRANCH  23  24
BRANCH  23  32
ATOM     31  C   UNL     1       0.331  13.841  18.566  0.00  0.00    +0.000 C 
ATOM     32  C   UNL     1       0.070  12.918  19.758  0.00  0.00    +0.000 C 
ATOM     33  C   UNL     1      -0.950  13.608  20.682  0.00  0.00    +0.000 C 
ENDBRANCH  23  32
ENDBRANCH  19  23
ENDBRANCH   1  21
TORSDOF 6
ENDMDL
MODEL 7
REMARK VINA RESULT:      -8.4      3.701      9.061
REMARK  Name = 
REMARK  8 active torsions:
REMARK  status: ('A' for Active; 'I' for Inactive)
REMARK    1  A    between atoms: C_1  and  C_2
REMARK    2  A    between atoms: C_2  and  C_3
REMARK    3  A    between atoms: C_2  and  C_4
REMARK    4  A    between atoms: C_4  and  N_5
REMARK    5  A    between atoms: C_4  and  C_9
REMARK    6  A    between atoms: N_11  and  C_12
REMARK    7  A    between atoms: C_15  and  C_16
REMARK    8  A    between atoms: N_24  and  C_25
REMARK                            x       y       z     vdW  Elec       q    Type
REMARK                         _______ _______ _______ _____ _____    ______ ____
ROOT
ATOM      1  C   UNL     1       1.101   9.023  19.624  0.00  0.00    +0.000 A 
ATOM      2  C   UNL     1       1.472   7.988  20.486  0.00  0.00    +0.000 A 
ATOM      3  C   UNL     1       2.335   6.968  20.087  0.00  0.00    +0.000 A 
ATOM      4  C   UNL     1       2.781   6.909  18.774  0.00  0.00    +0.000 A 
ATOM      5  C   UNL     1       2.505   8.006  17.930  0.00  0.00    +0.000 A 
ATOM      6  C   UNL     1       1.666   9.053  18.349  0.00  0.00    +0.000 A 
ENDROOT
BRANCH   4   7
ATOM      7  C   UNL     1       3.109   5.581  18.157  0.00  0.00    +0.000 A 
ATOM      8  N   UNL     1       2.119   4.771  17.785  0.00  0.00    +0.000 NA
ATOM      9  C   UNL     1       1.971   4.016  18.927  0.00  0.00    +0.000 A 
ATOM     10  C   UNL     1       0.829   3.437  19.480  0.00  0.00    +0.000 A 
ATOM     11  C   UNL     1       0.928   2.921  20.778  0.00  0.00    +0.000 A 
ATOM     12  C   UNL     1       2.154   2.886  21.455  0.00  0.00    +0.000 A 
ATOM     13  C   UNL     1       3.334   3.365  20.871  0.00  0.00    +0.000 A 
ATOM     14  C   UNL     1       3.179   3.970  19.624  0.00  0.00    +0.000 A 
ATOM     15  N   UNL     1       3.989   4.707  18.792  0.00  0.00    +0.000 N 
BRANCH  15  16
ATOM     16  C   UNL     1       5.404   4.553  18.568  0.00  0.00    +0.000 C 
ATOM     17  F   UNL     1       5.739   4.685  17.259  0.00  0.00    +0.000 F 
ATOM     18  F   UNL     1       6.126   5.486  19.246  0.00  0.00    +0.000 F 
ENDBRANCH  15  16
ENDBRANCH   4   7
BRANCH   1  21
ATOM     19  C   UNL     1       0.397  11.093  20.807  0.00  0.00    +0.000 C 
ATOM     20  O   UNL     1       1.495  11.414  21.263  0.00  0.00    +0.000 OA
ATOM     21  N   UNL     1       0.144  10.008  19.987  0.00  0.00    +0.000 N 
ATOM     22  H   UNL     1      -0.806   9.901  19.625  0.00  0.00    +0.000 HD
BRANCH  19  23
ATOM     23  C   UNL     1      -0.776  12.054  21.065  0.00  0.00    +0.000 C 
BRANCH  23  24
ATOM     24  N   UNL     1      -0.577  13.329  20.370  0.00  0.00    +0.000 N 
ATOM     25  C   UNL     1      -0.670  13.514  19.030  0.00  0.00    +0.000 C 
ATOM     26  N   UNL     1      -0.512  14.810  18.672  0.00  0.00    +0.000 N 
ATOM     27  O   UNL     1      -0.901  12.639  18.211  0.00  0.00    +0.000 OA
ATOM     28  H   UNL     1      -0.793  14.153  20.920  0.00  0.00    +0.000 HD
ATOM     29  H   UNL     1      -0.008  15.438  19.281  0.00  0.00    +0.000 HD
ATOM     30  H   UNL     1      -0.387  14.961  17.679  0.00  0.00    +0.000 HD
ENDBRANCH  23  24
BRANCH  23  32
ATOM     31  C   UNL     1      -2.506  12.728  22.809  0.00  0.00    +0.000 C 
ATOM     32  C   UNL     1      -1.133  12.096  22.571  0.00  0.00    +0.000 C 
ATOM     33  C   UNL     1      -1.145  10.683  23.185  0.00  0.00    +0.000 C 
ENDBRANCH  23  32
ENDBRANCH  19  23
ENDBRANCH   1  21
TORSDOF 6
ENDMDL
MODEL 8
REMARK VINA RESULT:      -8.3      1.040      1.180
REMARK  Name = 
REMARK  8 active torsions:
REMARK  status: ('A' for Active; 'I' for Inactive)
REMARK    1  A    between atoms: C_1  and  C_2
REMARK    2  A    between atoms: C_2  and  C_3
REMARK    3  A    between atoms: C_2  and  C_4
REMARK    4  A    between atoms: C_4  and  N_5
REMARK    5  A    between atoms: C_4  and  C_9
REMARK    6  A    between atoms: N_11  and  C_12
REMARK    7  A    between atoms: C_15  and  C_16
REMARK    8  A    between atoms: N_24  and  C_25
REMARK                            x       y       z     vdW  Elec       q    Type
REMARK                         _______ _______ _______ _____ _____    ______ ____
ROOT
ATOM      1  C   UNL     1       2.748   7.318  18.587  0.00  0.00    +0.000 A 
ATOM      2  C   UNL     1       2.249   8.405  17.866  0.00  0.00    +0.000 A 
ATOM      3  C   UNL     1       1.420   9.362  18.450  0.00  0.00    +0.000 A 
ATOM      4  C   UNL     1       0.991   9.203  19.761  0.00  0.00    +0.000 A 
ATOM      5  C   UNL     1       1.577   8.175  20.529  0.00  0.00    +0.000 A 
ATOM      6  C   UNL     1       2.444   7.235  19.946  0.00  0.00    +0.000 A 
ENDROOT
BRANCH   4   7
ATOM      7  C   UNL     1      -0.334   9.763  20.185  0.00  0.00    +0.000 A 
ATOM      8  N   UNL     1      -1.128  10.324  19.274  0.00  0.00    +0.000 NA
ATOM      9  C   UNL     1      -0.730  11.639  19.371  0.00  0.00    +0.000 A 
ATOM     10  C   UNL     1      -0.663  12.632  18.393  0.00  0.00    +0.000 A 
ATOM     11  C   UNL     1       0.006  13.818  18.721  0.00  0.00    +0.000 A 
ATOM     12  C   UNL     1       0.493  14.046  20.015  0.00  0.00    +0.000 A 
ATOM     13  C   UNL     1       0.337  13.102  21.039  0.00  0.00    +0.000 A 
ATOM     14  C   UNL     1      -0.235  11.891  20.651  0.00  0.00    +0.000 A 
ATOM     15  N   UNL     1      -0.413  10.663  21.245  0.00  0.00    +0.000 N 
BRANCH  15  16
ATOM     16  C   UNL     1      -0.698  10.383  22.630  0.00  0.00    +0.000 C 
ATOM     17  F   UNL     1      -1.821  11.010  23.065  0.00  0.00    +0.000 F 
ATOM     18  F   UNL     1      -0.892   9.053  22.844  0.00  0.00    +0.000 F 
ENDBRANCH  15  16
ENDBRANCH   4   7
BRANCH   1  21
ATOM     19  C   UNL     1       3.019   5.035  17.643  0.00  0.00    +0.000 C 
ATOM     20  O   UNL     1       1.847   4.668  17.738  0.00  0.00    +0.000 OA
ATOM     21  N   UNL     1       3.508   6.286  17.977  0.00  0.00    +0.000 N 
ATOM     22  H   UNL     1       4.493   6.475  17.781  0.00  0.00    +0.000 HD
BRANCH  19  23
ATOM     23  C   UNL     1       4.005   4.062  16.974  0.00  0.00    +0.000 C 
BRANCH  23  24
ATOM     24  N   UNL     1       4.338   2.949  17.867  0.00  0.00    +0.000 N 
ATOM     25  C   UNL     1       4.538   3.051  19.204  0.00  0.00    +0.000 C 
ATOM     26  N   UNL     1       4.758   1.850  19.790  0.00  0.00    +0.000 N 
ATOM     27  O   UNL     1       4.498   4.087  19.848  0.00  0.00    +0.000 OA
ATOM     28  H   UNL     1       4.001   2.043  17.564  0.00  0.00    +0.000 HD
ATOM     29  H   UNL     1       5.112   1.082  19.237  0.00  0.00    +0.000 HD
ATOM     30  H   UNL     1       5.094   1.900  20.743  0.00  0.00    +0.000 HD
ENDBRANCH  23  24
BRANCH  23  32
ATOM     31  C   UNL     1       6.513   4.507  16.965  0.00  0.00    +0.000 C 
ATOM     32  C   UNL     1       5.170   4.832  16.306  0.00  0.00    +0.000 C 
ATOM     33  C   UNL     1       5.280   4.495  14.807  0.00  0.00    +0.000 C 
ENDBRANCH  23  32
ENDBRANCH  19  23
ENDBRANCH   1  21
TORSDOF 6
ENDMDL
MODEL 9
REMARK VINA RESULT:      -8.3      0.992      1.157
REMARK  Name = 
REMARK  8 active torsions:
REMARK  status: ('A' for Active; 'I' for Inactive)
REMARK    1  A    between atoms: C_1  and  C_2
REMARK    2  A    between atoms: C_2  and  C_3
REMARK    3  A    between atoms: C_2  and  C_4
REMARK    4  A    between atoms: C_4  and  N_5
REMARK    5  A    between atoms: C_4  and  C_9
REMARK    6  A    between atoms: N_11  and  C_12
REMARK    7  A    between atoms: C_15  and  C_16
REMARK    8  A    between atoms: N_24  and  C_25
REMARK                            x       y       z     vdW  Elec       q    Type
REMARK                         _______ _______ _______ _____ _____    ______ ____
ROOT
ATOM      1  C   UNL     1       2.737   7.394  18.597  0.00  0.00    +0.000 A 
ATOM      2  C   UNL     1       2.281   8.517  17.901  0.00  0.00    +0.000 A 
ATOM      3  C   UNL     1       1.453   9.468  18.495  0.00  0.00    +0.000 A 
ATOM      4  C   UNL     1       0.981   9.270  19.786  0.00  0.00    +0.000 A 
ATOM      5  C   UNL     1       1.523   8.203  20.533  0.00  0.00    +0.000 A 
ATOM      6  C   UNL     1       2.390   7.268  19.942  0.00  0.00    +0.000 A 
ENDROOT
BRANCH   4   7
ATOM      7  C   UNL     1      -0.346   9.841  20.190  0.00  0.00    +0.000 A 
ATOM      8  N   UNL     1      -1.099  10.453  19.278  0.00  0.00    +0.000 NA
ATOM      9  C   UNL     1      -0.679  11.754  19.438  0.00  0.00    +0.000 A 
ATOM     10  C   UNL     1      -0.562  12.782  18.502  0.00  0.00    +0.000 A 
ATOM     11  C   UNL     1       0.120  13.941  18.895  0.00  0.00    +0.000 A 
ATOM     12  C   UNL     1       0.569  14.109  20.211  0.00  0.00    +0.000 A 
ATOM     13  C   UNL     1       0.363  13.130  21.193  0.00  0.00    +0.000 A 
ATOM     14  C   UNL     1      -0.220  11.947  20.741  0.00  0.00    +0.000 A 
ATOM     15  N   UNL     1      -0.440  10.702  21.282  0.00  0.00    +0.000 N 
BRANCH  15  16
ATOM     16  C   UNL     1      -0.774  10.375  22.645  0.00  0.00    +0.000 C 
ATOM     17  F   UNL     1       0.261   9.798  23.308  0.00  0.00    +0.000 F 
ATOM     18  F   UNL     1      -1.120  11.481  23.359  0.00  0.00    +0.000 F 
ENDBRANCH  15  16
ENDBRANCH   4   7
BRANCH   1  21
ATOM     19  C   UNL     1       3.027   5.099  17.690  0.00  0.00    +0.000 C 
ATOM     20  O   UNL     1       1.872   4.702  17.850  0.00  0.00    +0.000 OA
ATOM     21  N   UNL     1       3.495   6.370  17.972  0.00  0.00    +0.000 N 
ATOM     22  H   UNL     1       4.464   6.582  17.723  0.00  0.00    +0.000 HD
BRANCH  19  23
ATOM     23  C   UNL     1       4.006   4.138  16.993  0.00  0.00    +0.000 C 
BRANCH  23  24
ATOM     24  N   UNL     1       4.334   3.000  17.856  0.00  0.00    +0.000 N 
ATOM     25  C   UNL     1       3.577   1.884  18.002  0.00  0.00    +0.000 C 
ATOM     26  N   UNL     1       4.160   0.963  18.805  0.00  0.00    +0.000 N 
ATOM     27  O   UNL     1       2.502   1.685  17.461  0.00  0.00    +0.000 OA
ATOM     28  H   UNL     1       5.325   2.854  18.012  0.00  0.00    +0.000 HD
ATOM     29  H   UNL     1       4.846   1.256  19.486  0.00  0.00    +0.000 HD
ATOM     30  H   UNL     1       3.551   0.206  19.089  0.00  0.00    +0.000 HD
ENDBRANCH  23  24
BRANCH  23  32
ATOM     31  C   UNL     1       6.500   4.650  17.062  0.00  0.00    +0.000 C 
ATOM     32  C   UNL     1       5.176   4.919  16.345  0.00  0.00    +0.000 C 
ATOM     33  C   UNL     1       5.350   4.541  14.862  0.00  0.00    +0.000 C 
ENDBRANCH  23  32
ENDBRANCH  19  23
ENDBRANCH   1  21
TORSDOF 6
ENDMDL
