MODEL 1
REMARK VINA RESULT:      -9.1      0.000      0.000
REMARK  Name = 
REMARK  6 active torsions:
REMARK  status: ('A' for Active; 'I' for Inactive)
REMARK    1  A    between atoms: C_1  and  C_2
REMARK    2  A    between atoms: C_5  and  C_6
REMARK    3  A    between atoms: C_10  and  N_11
REMARK    4  A    between atoms: C_12  and  C_14
REMARK    5  A    between atoms: N_17  and  C_18
REMARK    6  A    between atoms: C_24  and  C_25
REMARK                            x       y       z     vdW  Elec       q    Type
REMARK                         _______ _______ _______ _____ _____    ______ ____
ROOT
ATOM      1  N   UNL     1       1.767   6.896  20.838  0.00  0.00    +0.000 N 
ATOM      2  C   UNL     1       1.490   8.135  20.284  0.00  0.00    +0.000 C 
ATOM      3  O   UNL     1       1.796   8.485  19.151  0.00  0.00    +0.000 OA
ATOM      4  H   UNL     1       1.560   6.781  21.820  0.00  0.00    +0.000 HD
ENDROOT
BRANCH   1   9
ATOM      5  C   UNL     1       3.964   4.647  18.826  0.00  0.00    +0.000 A 
ATOM      6  C   UNL     1       3.187   3.479  18.800  0.00  0.00    +0.000 A 
ATOM      7  C   UNL     1       1.953   3.430  19.435  0.00  0.00    +0.000 A 
ATOM      8  C   UNL     1       1.468   4.557  20.091  0.00  0.00    +0.000 A 
ATOM      9  C   UNL     1       2.206   5.745  20.132  0.00  0.00    +0.000 A 
ATOM     10  C   UNL     1       3.457   5.783  19.489  0.00  0.00    +0.000 A 
BRANCH   5  15
ATOM     11  C   UNL     1       7.043   4.707  15.103  0.00  0.00    +0.000 C 
ATOM     12  C   UNL     1       6.652   4.656  16.519  0.00  0.00    +0.000 A 
ATOM     13  C   UNL     1       7.342   4.648  17.705  0.00  0.00    +0.000 A 
ATOM     14  N   UNL     1       6.464   4.617  18.752  0.00  0.00    +0.000 NA
ATOM     15  C   UNL     1       5.273   4.605  18.179  0.00  0.00    +0.000 A 
ATOM     16  O   UNL     1       5.313   4.621  16.809  0.00  0.00    +0.000 OA
ENDBRANCH   5  15
ENDBRANCH   1   9
BRANCH   2  17
ATOM     17  C   UNL     1       0.811   9.097  21.143  0.00  0.00    +0.000 A 
ATOM     18  C   UNL     1       0.941   9.068  22.548  0.00  0.00    +0.000 A 
ATOM     19  N   UNL     1       0.332  10.076  23.158  0.00  0.00    +0.000 NA
ATOM     20  N   UNL     1      -0.254  10.783  22.156  0.00  0.00    +0.000 N 
ATOM     21  C   UNL     1       0.016  10.214  20.902  0.00  0.00    +0.000 A 
BRANCH  20  22
ATOM     22  C   UNL     1      -0.921  11.998  22.488  0.00  0.00    +0.000 A 
ATOM     23  C   UNL     1      -2.208  11.933  23.055  0.00  0.00    +0.000 A 
ATOM     24  C   UNL     1      -2.871  13.099  23.439  0.00  0.00    +0.000 A 
ATOM     25  C   UNL     1      -2.272  14.339  23.232  0.00  0.00    +0.000 A 
ATOM     26  C   UNL     1      -1.016  14.413  22.633  0.00  0.00    +0.000 A 
ATOM     27  C   UNL     1      -0.342  13.247  22.262  0.00  0.00    +0.000 A 
ENDBRANCH  20  22
BRANCH  21  28
ATOM     28  C   UNL     1      -0.344  10.821  19.549  0.00  0.00    +0.000 C 
ATOM     29  C   UNL     1      -1.655  11.483  19.242  0.00  0.00    +0.000 C 
ATOM     30  C   UNL     1      -1.354  10.123  18.678  0.00  0.00    +0.000 C 
ENDBRANCH  21  28
ENDBRANCH   2  17
TORSDOF 5
ENDMDL
MODEL 2
REMARK VINA RESULT:      -8.6      1.044      1.044
REMARK  Name = 
REMARK  6 active torsions:
REMARK  status: ('A' for Active; 'I' for Inactive)
REMARK    1  A    between atoms: C_1  and  C_2
REMARK    2  A    between atoms: C_5  and  C_6
REMARK    3  A    between atoms: C_10  and  N_11
REMARK    4  A    between atoms: C_12  and  C_14
REMARK    5  A    between atoms: N_17  and  C_18
REMARK    6  A    between atoms: C_24  and  C_25
REMARK                            x       y       z     vdW  Elec       q    Type
REMARK                         _______ _______ _______ _____ _____    ______ ____
ROOT
ATOM      1  N   UNL     1       1.501   7.192  20.989  0.00  0.00    +0.000 N 
ATOM      2  C   UNL     1       1.193   8.447  20.490  0.00  0.00    +0.000 C 
ATOM      3  O   UNL     1       1.505   8.859  19.379  0.00  0.00    +0.000 OA
ATOM      4  H   UNL     1       1.284   7.025  21.961  0.00  0.00    +0.000 HD
ENDROOT
BRANCH   1   9
ATOM      5  C   UNL     1       3.431   5.270  18.438  0.00  0.00    +0.000 A 
ATOM      6  C   UNL     1       3.060   3.956  18.766  0.00  0.00    +0.000 A 
ATOM      7  C   UNL     1       2.184   3.704  19.813  0.00  0.00    +0.000 A 
ATOM      8  C   UNL     1       1.650   4.765  20.538  0.00  0.00    +0.000 A 
ATOM      9  C   UNL     1       1.984   6.090  20.237  0.00  0.00    +0.000 A 
ATOM     10  C   UNL     1       2.877   6.334  19.176  0.00  0.00    +0.000 A 
BRANCH   5  15
ATOM     11  C   UNL     1       5.851   4.047  14.438  0.00  0.00    +0.000 C 
ATOM     12  C   UNL     1       5.462   4.917  15.557  0.00  0.00    +0.000 A 
ATOM     13  C   UNL     1       5.776   6.201  15.927  0.00  0.00    +0.000 A 
ATOM     14  N   UNL     1       5.098   6.534  17.066  0.00  0.00    +0.000 NA
ATOM     15  C   UNL     1       4.397   5.452  17.357  0.00  0.00    +0.000 A 
ATOM     16  O   UNL     1       4.577   4.417  16.476  0.00  0.00    +0.000 OA
ENDBRANCH   5  15
ENDBRANCH   1   9
BRANCH   2  17
ATOM     17  C   UNL     1       0.473   9.347  21.382  0.00  0.00    +0.000 A 
ATOM     18  C   UNL     1       0.532   9.214  22.786  0.00  0.00    +0.000 A 
ATOM     19  N   UNL     1      -0.105  10.177  23.437  0.00  0.00    +0.000 NA
ATOM     20  N   UNL     1      -0.638  10.959  22.463  0.00  0.00    +0.000 N 
ATOM     21  C   UNL     1      -0.306  10.482  21.185  0.00  0.00    +0.000 A 
BRANCH  20  22
ATOM     22  C   UNL     1      -1.320  12.150  22.850  0.00  0.00    +0.000 A 
ATOM     23  C   UNL     1      -2.672  12.065  23.229  0.00  0.00    +0.000 A 
ATOM     24  C   UNL     1      -3.358  13.201  23.663  0.00  0.00    +0.000 A 
ATOM     25  C   UNL     1      -2.711  14.434  23.689  0.00  0.00    +0.000 A 
ATOM     26  C   UNL     1      -1.385  14.533  23.275  0.00  0.00    +0.000 A 
ATOM     27  C   UNL     1      -0.690  13.395  22.856  0.00  0.00    +0.000 A 
ENDBRANCH  20  22
BRANCH  21  28
ATOM     28  C   UNL     1      -0.597  11.190  19.864  0.00  0.00    +0.000 C 
ATOM     29  C   UNL     1      -1.916  11.813  19.512  0.00  0.00    +0.000 C 
ATOM     30  C   UNL     1      -1.501  10.525  18.860  0.00  0.00    +0.000 C 
ENDBRANCH  21  28
ENDBRANCH   2  17
TORSDOF 5
ENDMDL
MODEL 3
REMARK VINA RESULT:      -8.5      0.896      1.330
REMARK  Name = 
REMARK  6 active torsions:
REMARK  status: ('A' for Active; 'I' for Inactive)
REMARK    1  A    between atoms: C_1  and  C_2
REMARK    2  A    between atoms: C_5  and  C_6
REMARK    3  A    between atoms: C_10  and  N_11
REMARK    4  A    between atoms: C_12  and  C_14
REMARK    5  A    between atoms: N_17  and  C_18
REMARK    6  A    between atoms: C_24  and  C_25
REMARK                            x       y       z     vdW  Elec       q    Type
REMARK                         _______ _______ _______ _____ _____    ______ ____
ROOT
ATOM      1  N   UNL     1       1.423   7.148  21.120  0.00  0.00    +0.000 N 
ATOM      2  C   UNL     1       1.168   8.406  20.597  0.00  0.00    +0.000 C 
ATOM      3  O   UNL     1       1.540   8.800  19.499  0.00  0.00    +0.000 OA
ATOM      4  H   UNL     1       1.157   6.994  22.083  0.00  0.00    +0.000 HD
ENDROOT
BRANCH   1   9
ATOM      5  C   UNL     1       3.679   5.066  18.998  0.00  0.00    +0.000 A 
ATOM      6  C   UNL     1       3.006   3.834  19.033  0.00  0.00    +0.000 A 
ATOM      7  C   UNL     1       1.823   3.689  19.745  0.00  0.00    +0.000 A 
ATOM      8  C   UNL     1       1.283   4.781  20.419  0.00  0.00    +0.000 A 
ATOM      9  C   UNL     1       1.916   6.028  20.401  0.00  0.00    +0.000 A 
ATOM     10  C   UNL     1       3.117   6.164  19.679  0.00  0.00    +0.000 A 
BRANCH   5  15
ATOM     11  C   UNL     1       7.665   7.172  17.259  0.00  0.00    +0.000 C 
ATOM     12  C   UNL     1       6.737   6.060  17.513  0.00  0.00    +0.000 A 
ATOM     13  C   UNL     1       6.763   4.712  17.256  0.00  0.00    +0.000 A 
ATOM     14  N   UNL     1       5.626   4.127  17.739  0.00  0.00    +0.000 NA
ATOM     15  C   UNL     1       4.944   5.127  18.270  0.00  0.00    +0.000 A 
ATOM     16  O   UNL     1       5.564   6.344  18.162  0.00  0.00    +0.000 OA
ENDBRANCH   5  15
ENDBRANCH   1   9
BRANCH   2  17
ATOM     17  C   UNL     1       0.428   9.329  21.448  0.00  0.00    +0.000 A 
ATOM     18  C   UNL     1       0.455   9.235  22.856  0.00  0.00    +0.000 A 
ATOM     19  N   UNL     1      -0.197  10.216  23.466  0.00  0.00    +0.000 NA
ATOM     20  N   UNL     1      -0.708  10.969  22.458  0.00  0.00    +0.000 N 
ATOM     21  C   UNL     1      -0.347  10.458  21.202  0.00  0.00    +0.000 A 
BRANCH  20  22
ATOM     22  C   UNL     1      -1.398  12.170  22.796  0.00  0.00    +0.000 A 
ATOM     23  C   UNL     1      -0.707  13.394  22.723  0.00  0.00    +0.000 A 
ATOM     24  C   UNL     1      -1.364  14.594  22.997  0.00  0.00    +0.000 A 
ATOM     25  C   UNL     1      -2.703  14.582  23.378  0.00  0.00    +0.000 A 
ATOM     26  C   UNL     1      -3.383  13.371  23.492  0.00  0.00    +0.000 A 
ATOM     27  C   UNL     1      -2.734  12.168  23.202  0.00  0.00    +0.000 A 
ENDBRANCH  20  22
BRANCH  21  28
ATOM     28  C   UNL     1      -0.608  11.129  19.856  0.00  0.00    +0.000 C 
ATOM     29  C   UNL     1      -1.919  11.739  19.455  0.00  0.00    +0.000 C 
ATOM     30  C   UNL     1      -1.486  10.434  18.849  0.00  0.00    +0.000 C 
ENDBRANCH  21  28
ENDBRANCH   2  17
TORSDOF 5
ENDMDL
MODEL 4
REMARK VINA RESULT:      -8.2      0.912      1.301
REMARK  Name = 
REMARK  6 active torsions:
REMARK  status: ('A' for Active; 'I' for Inactive)
REMARK    1  A    between atoms: C_1  and  C_2
REMARK    2  A    between atoms: C_5  and  C_6
REMARK    3  A    between atoms: C_10  and  N_11
REMARK    4  A    between atoms: C_12  and  C_14
REMARK    5  A    between atoms: N_17  and  C_18
REMARK    6  A    between atoms: C_24  and  C_25
REMARK                            x       y       z     vdW  Elec       q    Type
REMARK                         _______ _______ _______ _____ _____    ______ ____
ROOT
ATOM      1  N   UNL     1       1.823   7.241  20.612  0.00  0.00    +0.000 N 
ATOM      2  C   UNL     1       1.519   8.345  19.831  0.00  0.00    +0.000 C 
ATOM      3  O   UNL     1       1.839   8.487  18.658  0.00  0.00    +0.000 OA
ATOM      4  H   UNL     1       1.599   7.304  21.595  0.00  0.00    +0.000 HD
ENDROOT
BRANCH   1   9
ATOM      5  C   UNL     1       4.078   4.754  18.981  0.00  0.00    +0.000 A 
ATOM      6  C   UNL     1       3.396   3.560  19.261  0.00  0.00    +0.000 A 
ATOM      7  C   UNL     1       2.206   3.571  19.977  0.00  0.00    +0.000 A 
ATOM      8  C   UNL     1       1.670   4.781  20.408  0.00  0.00    +0.000 A 
ATOM      9  C   UNL     1       2.313   5.994  20.141  0.00  0.00    +0.000 A 
ATOM     10  C   UNL     1       3.521   5.971  19.418  0.00  0.00    +0.000 A 
BRANCH   5  15
ATOM     11  C   UNL     1       6.964   4.698  15.106  0.00  0.00    +0.000 C 
ATOM     12  C   UNL     1       6.643   4.655  16.540  0.00  0.00    +0.000 A 
ATOM     13  C   UNL     1       7.392   4.608  17.690  0.00  0.00    +0.000 A 
ATOM     14  N   UNL     1       6.568   4.610  18.780  0.00  0.00    +0.000 NA
ATOM     15  C   UNL     1       5.350   4.656  18.268  0.00  0.00    +0.000 A 
ATOM     16  O   UNL     1       5.321   4.679  16.898  0.00  0.00    +0.000 OA
ENDBRANCH   5  15
ENDBRANCH   1   9
BRANCH   2  17
ATOM     17  C   UNL     1       0.793   9.426  20.485  0.00  0.00    +0.000 A 
ATOM     18  C   UNL     1       0.863   9.641  21.878  0.00  0.00    +0.000 A 
ATOM     19  N   UNL     1       0.216  10.726  22.280  0.00  0.00    +0.000 NA
ATOM     20  N   UNL     1      -0.334  11.239  21.150  0.00  0.00    +0.000 N 
ATOM     21  C   UNL     1      -0.004  10.469  20.024  0.00  0.00    +0.000 A 
BRANCH  20  22
ATOM     22  C   UNL     1      -1.030  12.480  21.241  0.00  0.00    +0.000 A 
ATOM     23  C   UNL     1      -0.329  13.672  20.981  0.00  0.00    +0.000 A 
ATOM     24  C   UNL     1      -0.989  14.902  21.011  0.00  0.00    +0.000 A 
ATOM     25  C   UNL     1      -2.343  14.955  21.332  0.00  0.00    +0.000 A 
ATOM     26  C   UNL     1      -3.034  13.783  21.631  0.00  0.00    +0.000 A 
ATOM     27  C   UNL     1      -2.381  12.548  21.586  0.00  0.00    +0.000 A 
ENDBRANCH  20  22
BRANCH  21  28
ATOM     28  C   UNL     1      -0.314  10.829  18.574  0.00  0.00    +0.000 C 
ATOM     29  C   UNL     1      -1.533  11.585  18.132  0.00  0.00    +0.000 C 
ATOM     30  C   UNL     1      -1.430  10.110  17.863  0.00  0.00    +0.000 C 
ENDBRANCH  21  28
ENDBRANCH   2  17
TORSDOF 5
ENDMDL
MODEL 5
REMARK VINA RESULT:      -8.2      2.492      4.601
REMARK  Name = 
REMARK  6 active torsions:
REMARK  status: ('A' for Active; 'I' for Inactive)
REMARK    1  A    between atoms: C_1  and  C_2
REMARK    2  A    between atoms: C_5  and  C_6
REMARK    3  A    between atoms: C_10  and  N_11
REMARK    4  A    between atoms: C_12  and  C_14
REMARK    5  A    between atoms: N_17  and  C_18
REMARK    6  A    between atoms: C_24  and  C_25
REMARK                            x       y       z     vdW  Elec       q    Type
REMARK                         _______ _______ _______ _____ _____    ______ ____
ROOT
ATOM      1  N   UNL     1       4.468   6.925  17.534  0.00  0.00    +0.000 N 
ATOM      2  C   UNL     1       3.141   6.686  17.855  0.00  0.00    +0.000 C 
ATOM      3  O   UNL     1       2.515   5.677  17.556  0.00  0.00    +0.000 OA
ATOM      4  H   UNL     1       4.826   7.846  17.742  0.00  0.00    +0.000 HD
ENDROOT
BRANCH   1   9
ATOM      5  C   UNL     1       6.177   4.585  15.181  0.00  0.00    +0.000 A 
ATOM      6  C   UNL     1       7.244   4.146  15.980  0.00  0.00    +0.000 A 
ATOM      7  C   UNL     1       7.400   4.611  17.279  0.00  0.00    +0.000 A 
ATOM      8  C   UNL     1       6.479   5.511  17.806  0.00  0.00    +0.000 A 
ATOM      9  C   UNL     1       5.395   5.967  17.047  0.00  0.00    +0.000 A 
ATOM     10  C   UNL     1       5.249   5.492  15.730  0.00  0.00    +0.000 A 
BRANCH   5  15
ATOM     11  C   UNL     1       3.994   3.035  11.159  0.00  0.00    +0.000 C 
ATOM     12  C   UNL     1       5.134   3.420  12.003  0.00  0.00    +0.000 A 
ATOM     13  C   UNL     1       6.485   3.545  11.791  0.00  0.00    +0.000 A 
ATOM     14  N   UNL     1       7.096   3.971  12.937  0.00  0.00    +0.000 NA
ATOM     15  C   UNL     1       6.109   4.091  13.808  0.00  0.00    +0.000 A 
ATOM     16  O   UNL     1       4.877   3.763  13.304  0.00  0.00    +0.000 OA
ENDBRANCH   5  15
ENDBRANCH   1   9
BRANCH   2  17
ATOM     17  C   UNL     1       2.443   7.743  18.575  0.00  0.00    +0.000 A 
ATOM     18  C   UNL     1       2.104   8.969  17.962  0.00  0.00    +0.000 A 
ATOM     19  N   UNL     1       1.388   9.770  18.739  0.00  0.00    +0.000 NA
ATOM     20  N   UNL     1       1.268   9.097  19.912  0.00  0.00    +0.000 N 
ATOM     21  C   UNL     1       1.903   7.847  19.853  0.00  0.00    +0.000 A 
BRANCH  20  22
ATOM     22  C   UNL     1       0.461   9.668  20.939  0.00  0.00    +0.000 A 
ATOM     23  C   UNL     1      -0.250  10.851  20.664  0.00  0.00    +0.000 A 
ATOM     24  C   UNL     1      -1.091  11.411  21.627  0.00  0.00    +0.000 A 
ATOM     25  C   UNL     1      -1.202  10.817  22.882  0.00  0.00    +0.000 A 
ATOM     26  C   UNL     1      -0.469   9.669  23.175  0.00  0.00    +0.000 A 
ATOM     27  C   UNL     1       0.360   9.095  22.208  0.00  0.00    +0.000 A 
ENDBRANCH  20  22
BRANCH  21  28
ATOM     28  C   UNL     1       1.840   6.761  20.924  0.00  0.00    +0.000 C 
ATOM     29  C   UNL     1       2.567   5.451  20.845  0.00  0.00    +0.000 C 
ATOM     30  C   UNL     1       1.079   5.494  20.638  0.00  0.00    +0.000 C 
ENDBRANCH  21  28
ENDBRANCH   2  17
TORSDOF 5
ENDMDL
MODEL 6
REMARK VINA RESULT:      -8.0      2.216      3.503
REMARK  Name = 
REMARK  6 active torsions:
REMARK  status: ('A' for Active; 'I' for Inactive)
REMARK    1  A    between atoms: C_1  and  C_2
REMARK    2  A    between atoms: C_5  and  C_6
REMARK    3  A    between atoms: C_10  and  N_11
REMARK    4  A    between atoms: C_12  and  C_14
REMARK    5  A    between atoms: N_17  and  C_18
REMARK    6  A    between atoms: C_24  and  C_25
REMARK                            x       y       z     vdW  Elec       q    Type
REMARK                         _______ _______ _______ _____ _____    ______ ____
ROOT
ATOM      1  N   UNL     1       3.568   7.451  17.822  0.00  0.00    +0.000 N 
ATOM      2  C   UNL     1       2.563   7.478  18.774  0.00  0.00    +0.000 C 
ATOM      3  O   UNL     1       2.200   6.519  19.443  0.00  0.00    +0.000 OA
ATOM      4  H   UNL     1       3.687   8.284  17.262  0.00  0.00    +0.000 HD
ENDROOT
BRANCH   1   9
ATOM      5  C   UNL     1       5.910   5.112  16.097  0.00  0.00    +0.000 A 
ATOM      6  C   UNL     1       6.458   4.434  17.196  0.00  0.00    +0.000 A 
ATOM      7  C   UNL     1       6.061   4.739  18.491  0.00  0.00    +0.000 A 
ATOM      8  C   UNL     1       5.095   5.718  18.706  0.00  0.00    +0.000 A 
ATOM      9  C   UNL     1       4.516   6.411  17.637  0.00  0.00    +0.000 A 
ATOM     10  C   UNL     1       4.929   6.096  16.328  0.00  0.00    +0.000 A 
BRANCH   5  15
ATOM     11  C   UNL     1       5.892   2.866  11.819  0.00  0.00    +0.000 C 
ATOM     12  C   UNL     1       6.397   3.786  12.848  0.00  0.00    +0.000 A 
ATOM     13  C   UNL     1       7.425   4.695  12.903  0.00  0.00    +0.000 A 
ATOM     14  N   UNL     1       7.431   5.315  14.120  0.00  0.00    +0.000 NA
ATOM     15  C   UNL     1       6.416   4.771  14.769  0.00  0.00    +0.000 A 
ATOM     16  O   UNL     1       5.740   3.819  14.050  0.00  0.00    +0.000 OA
ENDBRANCH   5  15
ENDBRANCH   1   9
BRANCH   2  17
ATOM     17  C   UNL     1       1.869   8.747  18.955  0.00  0.00    +0.000 A 
ATOM     18  C   UNL     1       1.856   9.743  17.955  0.00  0.00    +0.000 A 
ATOM     19  N   UNL     1       1.096  10.787  18.257  0.00  0.00    +0.000 NA
ATOM     20  N   UNL     1       0.614  10.517  19.497  0.00  0.00    +0.000 N 
ATOM     21  C   UNL     1       1.065   9.272  19.962  0.00  0.00    +0.000 A 
BRANCH  20  22
ATOM     22  C   UNL     1      -0.324  11.426  20.069  0.00  0.00    +0.000 A 
ATOM     23  C   UNL     1      -1.634  11.461  19.557  0.00  0.00    +0.000 A 
ATOM     24  C   UNL     1      -2.593  12.301  20.125  0.00  0.00    +0.000 A 
ATOM     25  C   UNL     1      -2.245  13.135  21.185  0.00  0.00    +0.000 A 
ATOM     26  C   UNL     1      -0.940  13.135  21.670  0.00  0.00    +0.000 A 
ATOM     27  C   UNL     1       0.019  12.284  21.115  0.00  0.00    +0.000 A 
ENDBRANCH  20  22
BRANCH  21  28
ATOM     28  C   UNL     1       0.603   8.575  21.239  0.00  0.00    +0.000 C 
ATOM     29  C   UNL     1      -0.425   9.130  22.181  0.00  0.00    +0.000 C 
ATOM     30  C   UNL     1       1.026   9.133  22.572  0.00  0.00    +0.000 C 
ENDBRANCH  21  28
ENDBRANCH   2  17
TORSDOF 5
ENDMDL
MODEL 7
REMARK VINA RESULT:      -8.0      1.500      2.214
REMARK  Name = 
REMARK  6 active torsions:
REMARK  status: ('A' for Active; 'I' for Inactive)
REMARK    1  A    between atoms: C_1  and  C_2
REMARK    2  A    between atoms: C_5  and  C_6
REMARK    3  A    between atoms: C_10  and  N_11
REMARK    4  A    between atoms: C_12  and  C_14
REMARK    5  A    between atoms: N_17  and  C_18
REMARK    6  A    between atoms: C_24  and  C_25
REMARK                            x       y       z     vdW  Elec       q    Type
REMARK                         _______ _______ _______ _____ _____    ______ ____
ROOT
ATOM      1  N   UNL     1       2.194   7.812  19.408  0.00  0.00    +0.000 N 
ATOM      2  C   UNL     1       1.835   8.819  18.526  0.00  0.00    +0.000 C 
ATOM      3  O   UNL     1       2.015   8.791  17.315  0.00  0.00    +0.000 OA
ATOM      4  H   UNL     1       2.092   8.014  20.392  0.00  0.00    +0.000 HD
ENDROOT
BRANCH   1   9
ATOM      5  C   UNL     1       4.095   5.031  17.801  0.00  0.00    +0.000 A 
ATOM      6  C   UNL     1       3.472   3.918  18.385  0.00  0.00    +0.000 A 
ATOM      7  C   UNL     1       2.436   4.078  19.296  0.00  0.00    +0.000 A 
ATOM      8  C   UNL     1       1.995   5.357  19.623  0.00  0.00    +0.000 A 
ATOM      9  C   UNL     1       2.582   6.493  19.056  0.00  0.00    +0.000 A 
ATOM     10  C   UNL     1       3.634   6.319  18.137  0.00  0.00    +0.000 A 
BRANCH   5  15
ATOM     11  C   UNL     1       6.183   3.838  13.610  0.00  0.00    +0.000 C 
ATOM     12  C   UNL     1       6.145   4.274  15.014  0.00  0.00    +0.000 A 
ATOM     13  C   UNL     1       7.095   4.684  15.916  0.00  0.00    +0.000 A 
ATOM     14  N   UNL     1       6.497   5.007  17.102  0.00  0.00    +0.000 NA
ATOM     15  C   UNL     1       5.212   4.784  16.891  0.00  0.00    +0.000 A 
ATOM     16  O   UNL     1       4.924   4.326  15.632  0.00  0.00    +0.000 OA
ENDBRANCH   5  15
ENDBRANCH   1   9
BRANCH   2  17
ATOM     17  C   UNL     1       1.228  10.010  19.106  0.00  0.00    +0.000 A 
ATOM     18  C   UNL     1       1.224  11.251  18.434  0.00  0.00    +0.000 A 
ATOM     19  N   UNL     1       0.544  12.196  19.070  0.00  0.00    +0.000 NA
ATOM     20  N   UNL     1       0.110  11.601  20.211  0.00  0.00    +0.000 N 
ATOM     21  C   UNL     1       0.510  10.257  20.272  0.00  0.00    +0.000 A 
BRANCH  20  22
ATOM     22  C   UNL     1      -0.741  12.345  21.079  0.00  0.00    +0.000 A 
ATOM     23  C   UNL     1      -2.133  12.286  20.880  0.00  0.00    +0.000 A 
ATOM     24  C   UNL     1      -3.000  12.960  21.742  0.00  0.00    +0.000 A 
ATOM     25  C   UNL     1      -2.485  13.725  22.786  0.00  0.00    +0.000 A 
ATOM     26  C   UNL     1      -1.107  13.821  22.964  0.00  0.00    +0.000 A 
ATOM     27  C   UNL     1      -0.236  13.134  22.114  0.00  0.00    +0.000 A 
ENDBRANCH  20  22
BRANCH  21  28
ATOM     28  C   UNL     1       0.073   9.242  21.325  0.00  0.00    +0.000 C 
ATOM     29  C   UNL     1      -0.431   9.604  22.691  0.00  0.00    +0.000 C 
ATOM     30  C   UNL     1       0.944   9.019  22.533  0.00  0.00    +0.000 C 
ENDBRANCH  21  28
ENDBRANCH   2  17
TORSDOF 5
ENDMDL
MODEL 8
REMARK VINA RESULT:      -7.8      2.249      3.851
REMARK  Name = 
REMARK  6 active torsions:
REMARK  status: ('A' for Active; 'I' for Inactive)
REMARK    1  A    between atoms: C_1  and  C_2
REMARK    2  A    between atoms: C_5  and  C_6
REMARK    3  A    between atoms: C_10  and  N_11
REMARK    4  A    between atoms: C_12  and  C_14
REMARK    5  A    between atoms: N_17  and  C_18
REMARK    6  A    between atoms: C_24  and  C_25
REMARK                            x       y       z     vdW  Elec       q    Type
REMARK                         _______ _______ _______ _____ _____    ______ ____
ROOT
ATOM      1  N   UNL     1       1.974   9.148  19.011  0.00  0.00    +0.000 N 
ATOM      2  C   UNL     1       0.779   9.685  18.561  0.00  0.00    +0.000 C 
ATOM      3  O   UNL     1       0.199   9.353  17.535  0.00  0.00    +0.000 OA
ATOM      4  H   UNL     1       2.400   9.594  19.811  0.00  0.00    +0.000 HD
ENDROOT
BRANCH   1   9
ATOM      5  C   UNL     1       2.778   5.526  18.608  0.00  0.00    +0.000 A 
ATOM      6  C   UNL     1       3.704   5.580  17.554  0.00  0.00    +0.000 A 
ATOM      7  C   UNL     1       4.062   6.794  16.982  0.00  0.00    +0.000 A 
ATOM      8  C   UNL     1       3.512   7.976  17.469  0.00  0.00    +0.000 A 
ATOM      9  C   UNL     1       2.595   7.968  18.525  0.00  0.00    +0.000 A 
ATOM     10  C   UNL     1       2.235   6.731  19.095  0.00  0.00    +0.000 A 
BRANCH   5  15
ATOM     11  C   UNL     1       1.452   2.323  21.973  0.00  0.00    +0.000 C 
ATOM     12  C   UNL     1       1.798   2.780  20.620  0.00  0.00    +0.000 A 
ATOM     13  C   UNL     1       1.810   2.189  19.381  0.00  0.00    +0.000 A 
ATOM     14  N   UNL     1       2.199   3.098  18.437  0.00  0.00    +0.000 NA
ATOM     15  C   UNL     1       2.413   4.208  19.122  0.00  0.00    +0.000 A 
ATOM     16  O   UNL     1       2.192   4.084  20.470  0.00  0.00    +0.000 OA
ENDBRANCH   5  15
ENDBRANCH   1   9
BRANCH   2  17
ATOM     17  C   UNL     1       0.198  10.752  19.367  0.00  0.00    +0.000 A 
ATOM     18  C   UNL     1      -0.053  12.037  18.839  0.00  0.00    +0.000 A 
ATOM     19  N   UNL     1      -0.671  12.847  19.687  0.00  0.00    +0.000 NA
ATOM     20  N   UNL     1      -0.810  12.116  20.824  0.00  0.00    +0.000 N 
ATOM     21  C   UNL     1      -0.288  10.823  20.668  0.00  0.00    +0.000 A 
BRANCH  20  22
ATOM     22  C   UNL     1      -1.531  12.690  21.911  0.00  0.00    +0.000 A 
ATOM     23  C   UNL     1      -0.854  13.552  22.795  0.00  0.00    +0.000 A 
ATOM     24  C   UNL     1      -1.539  14.173  23.841  0.00  0.00    +0.000 A 
ATOM     25  C   UNL     1      -2.893  13.914  24.034  0.00  0.00    +0.000 A 
ATOM     26  C   UNL     1      -3.560  13.030  23.189  0.00  0.00    +0.000 A 
ATOM     27  C   UNL     1      -2.883  12.419  22.130  0.00  0.00    +0.000 A 
ENDBRANCH  20  22
BRANCH  21  28
ATOM     28  C   UNL     1      -0.410   9.683  21.677  0.00  0.00    +0.000 C 
ATOM     29  C   UNL     1      -0.341   9.860  23.165  0.00  0.00    +0.000 C 
ATOM     30  C   UNL     1       0.814   9.240  22.432  0.00  0.00    +0.000 C 
ENDBRANCH  21  28
ENDBRANCH   2  17
TORSDOF 5
ENDMDL
MODEL 9
REMARK VINA RESULT:      -7.7      2.342      3.814
REMARK  Name = 
REMARK  6 active torsions:
REMARK  status: ('A' for Active; 'I' for Inactive)
REMARK    1  A    between atoms: C_1  and  C_2
REMARK    2  A    between atoms: C_5  and  C_6
REMARK    3  A    between atoms: C_10  and  N_11
REMARK    4  A    between atoms: C_12  and  C_14
REMARK    5  A    between atoms: N_17  and  C_18
REMARK    6  A    between atoms: C_24  and  C_25
REMARK                            x       y       z     vdW  Elec       q    Type
REMARK                         _______ _______ _______ _____ _____    ______ ____
ROOT
ATOM      1  N   UNL     1       1.359   9.580  19.245  0.00  0.00    +0.000 N 
ATOM      2  C   UNL     1       0.123   9.972  18.756  0.00  0.00    +0.000 C 
ATOM      3  O   UNL     1      -0.373   9.587  17.705  0.00  0.00    +0.000 OA
ATOM      4  H   UNL     1       1.697  10.062  20.065  0.00  0.00    +0.000 HD
ENDROOT
BRANCH   1   9
ATOM      5  C   UNL     1       2.878   6.175  19.065  0.00  0.00    +0.000 A 
ATOM      6  C   UNL     1       3.575   6.264  17.851  0.00  0.00    +0.000 A 
ATOM      7  C   UNL     1       3.549   7.432  17.099  0.00  0.00    +0.000 A 
ATOM      8  C   UNL     1       2.838   8.535  17.560  0.00  0.00    +0.000 A 
ATOM      9  C   UNL     1       2.138   8.492  18.771  0.00  0.00    +0.000 A 
ATOM     10  C   UNL     1       2.168   7.302  19.523  0.00  0.00    +0.000 A 
BRANCH   5  15
ATOM     11  C   UNL     1       1.183   2.696  21.958  0.00  0.00    +0.000 C 
ATOM     12  C   UNL     1       2.146   3.332  21.047  0.00  0.00    +0.000 A 
ATOM     13  C   UNL     1       3.330   2.938  20.475  0.00  0.00    +0.000 A 
ATOM     14  N   UNL     1       3.808   3.933  19.669  0.00  0.00    +0.000 NA
ATOM     15  C   UNL     1       2.911   4.897  19.774  0.00  0.00    +0.000 A 
ATOM     16  O   UNL     1       1.865   4.599  20.609  0.00  0.00    +0.000 OA
ENDBRANCH   5  15
ENDBRANCH   1   9
BRANCH   2  17
ATOM     17  C   UNL     1      -0.613  10.947  19.550  0.00  0.00    +0.000 A 
ATOM     18  C   UNL     1      -1.567  11.814  18.975  0.00  0.00    +0.000 A 
ATOM     19  N   UNL     1      -2.205  12.564  19.863  0.00  0.00    +0.000 NA
ATOM     20  N   UNL     1      -1.653  12.230  21.058  0.00  0.00    +0.000 N 
ATOM     21  C   UNL     1      -0.670  11.240  20.909  0.00  0.00    +0.000 A 
BRANCH  20  22
ATOM     22  C   UNL     1      -2.199  12.811  22.240  0.00  0.00    +0.000 A 
ATOM     23  C   UNL     1      -3.498  12.442  22.640  0.00  0.00    +0.000 A 
ATOM     24  C   UNL     1      -4.045  12.951  23.818  0.00  0.00    +0.000 A 
ATOM     25  C   UNL     1      -3.318  13.855  24.589  0.00  0.00    +0.000 A 
ATOM     26  C   UNL     1      -2.049  14.255  24.178  0.00  0.00    +0.000 A 
ATOM     27  C   UNL     1      -1.490  13.736  23.007  0.00  0.00    +0.000 A 
ENDBRANCH  20  22
BRANCH  21  28
ATOM     28  C   UNL     1       0.046  10.514  22.045  0.00  0.00    +0.000 C 
ATOM     29  C   UNL     1      -0.064   9.041  22.310  0.00  0.00    +0.000 C 
ATOM     30  C   UNL     1      -0.758  10.016  23.217  0.00  0.00    +0.000 C 
ENDBRANCH  21  28
ENDBRANCH   2  17
TORSDOF 5
ENDMDL
