MODEL 1
REMARK VINA RESULT:      -8.4      0.000      0.000
REMARK  Name = 
REMARK  1 active torsions:
REMARK  status: ('A' for Active; 'I' for Inactive)
REMARK    1  A    between atoms: C_2  and  C_3
REMARK                            x       y       z     vdW  Elec       q    Type
REMARK                         _______ _______ _______ _____ _____    ______ ____
ROOT
ATOM      1  O   UNL     1       4.686   3.204  19.375  0.00  0.00    +0.000 OA
ATOM      2  C   UNL     1       4.305   4.098  18.619  0.00  0.00    +0.000 C 
ATOM      3  N   UNL     1       3.060   4.716  18.769  0.00  0.00    +0.000 N 
ATOM      4  C   UNL     1       2.186   4.300  19.867  0.00  0.00    +0.000 C 
ATOM      5  C   UNL     1       2.072   5.414  20.912  0.00  0.00    +0.000 C 
ATOM      6  C   UNL     1       1.782   6.763  20.286  0.00  0.00    +0.000 A 
ATOM      7  C   UNL     1       1.339   7.834  21.073  0.00  0.00    +0.000 A 
ATOM      8  C   UNL     1       1.128   9.092  20.502  0.00  0.00    +0.000 A 
ATOM      9  C   UNL     1       1.360   9.280  19.146  0.00  0.00    +0.000 A 
ATOM     10  F   UNL     1       1.169  10.487  18.599  0.00  0.00    +0.000 F 
ATOM     11  C   UNL     1       1.805   8.238  18.352  0.00  0.00    +0.000 A 
ATOM     12  C   UNL     1       2.039   6.976  18.919  0.00  0.00    +0.000 A 
ATOM     13  C   UNL     1       2.578   5.883  18.037  0.00  0.00    +0.000 C 
ENDROOT
BRANCH   2  14
ATOM     14  C   UNL     1       5.256   4.531  17.548  0.00  0.00    +0.000 A 
ATOM     15  C   UNL     1       6.261   5.484  17.767  0.00  0.00    +0.000 A 
ATOM     16  C   UNL     1       7.223   5.781  16.794  0.00  0.00    +0.000 A 
ATOM     17  C   UNL     1       7.053   5.176  15.551  0.00  0.00    +0.000 A 
ATOM     18  N   UNL     1       7.761   5.260  14.379  0.00  0.00    +0.000 N 
ATOM     19  C   UNL     1       7.106   4.517  13.439  0.00  0.00    +0.000 A 
ATOM     20  N   UNL     1       6.056   3.913  13.944  0.00  0.00    +0.000 NA
ATOM     21  C   UNL     1       6.005   4.308  15.260  0.00  0.00    +0.000 A 
ATOM     22  C   UNL     1       5.096   3.964  16.270  0.00  0.00    +0.000 A 
ATOM     23  H   UNL     1       8.600   5.801  14.228  0.00  0.00    +0.000 HD
ENDBRANCH   2  14
TORSDOF 1
ENDMDL
MODEL 2
REMARK VINA RESULT:      -7.8      3.480      6.925
REMARK  Name = 
REMARK  1 active torsions:
REMARK  status: ('A' for Active; 'I' for Inactive)
REMARK    1  A    between atoms: C_2  and  C_3
REMARK                            x       y       z     vdW  Elec       q    Type
REMARK                         _______ _______ _______ _____ _____    ______ ____
ROOT
ATOM      1  O   UNL     1       4.138   7.566  17.363  0.00  0.00    +0.000 OA
ATOM      2  C   UNL     1       3.111   7.153  17.902  0.00  0.00    +0.000 C 
ATOM      3  N   UNL     1       2.825   5.788  18.005  0.00  0.00    +0.000 N 
ATOM      4  C   UNL     1       3.780   4.818  17.470  0.00  0.00    +0.000 C 
ATOM      5  C   UNL     1       4.449   4.040  18.608  0.00  0.00    +0.000 C 
ATOM      6  C   UNL     1       3.445   3.520  19.616  0.00  0.00    +0.000 A 
ATOM      7  C   UNL     1       3.811   2.538  20.546  0.00  0.00    +0.000 A 
ATOM      8  C   UNL     1       2.899   2.103  21.512  0.00  0.00    +0.000 A 
ATOM      9  C   UNL     1       1.623   2.648  21.548  0.00  0.00    +0.000 A 
ATOM     10  F   UNL     1       0.752   2.241  22.480  0.00  0.00    +0.000 F 
ATOM     11  C   UNL     1       1.244   3.625  20.645  0.00  0.00    +0.000 A 
ATOM     12  C   UNL     1       2.157   4.083  19.685  0.00  0.00    +0.000 A 
ATOM     13  C   UNL     1       1.728   5.187  18.756  0.00  0.00    +0.000 C 
ENDROOT
BRANCH   2  14
ATOM     14  C   UNL     1       2.192   8.179  18.487  0.00  0.00    +0.000 A 
ATOM     15  C   UNL     1       1.606   9.195  17.718  0.00  0.00    +0.000 A 
ATOM     16  C   UNL     1       0.648  10.066  18.251  0.00  0.00    +0.000 A 
ATOM     17  C   UNL     1       0.401   9.953  19.617  0.00  0.00    +0.000 A 
ATOM     18  N   UNL     1      -0.425  10.645  20.466  0.00  0.00    +0.000 N 
ATOM     19  C   UNL     1      -0.216  10.175  21.731  0.00  0.00    +0.000 A 
ATOM     20  N   UNL     1       0.646   9.184  21.743  0.00  0.00    +0.000 NA
ATOM     21  C   UNL     1       1.041   9.028  20.436  0.00  0.00    +0.000 A 
ATOM     22  C   UNL     1       1.942   8.115  19.869  0.00  0.00    +0.000 A 
ATOM     23  H   UNL     1      -1.053  11.393  20.208  0.00  0.00    +0.000 HD
ENDBRANCH   2  14
TORSDOF 1
ENDMDL
MODEL 3
REMARK VINA RESULT:      -7.3      3.030      6.850
REMARK  Name = 
REMARK  1 active torsions:
REMARK  status: ('A' for Active; 'I' for Inactive)
REMARK    1  A    between atoms: C_2  and  C_3
REMARK                            x       y       z     vdW  Elec       q    Type
REMARK                         _______ _______ _______ _____ _____    ______ ____
ROOT
ATOM      1  O   UNL     1       1.677   5.246  20.317  0.00  0.00    +0.000 OA
ATOM      2  C   UNL     1       2.497   5.930  19.705  0.00  0.00    +0.000 C 
ATOM      3  N   UNL     1       3.725   5.414  19.280  0.00  0.00    +0.000 N 
ATOM      4  C   UNL     1       4.041   4.012  19.556  0.00  0.00    +0.000 C 
ATOM      5  C   UNL     1       4.054   3.199  18.258  0.00  0.00    +0.000 C 
ATOM      6  C   UNL     1       4.856   3.874  17.165  0.00  0.00    +0.000 A 
ATOM      7  C   UNL     1       5.246   3.162  16.023  0.00  0.00    +0.000 A 
ATOM      8  C   UNL     1       5.935   3.803  14.990  0.00  0.00    +0.000 A 
ATOM      9  C   UNL     1       6.235   5.154  15.098  0.00  0.00    +0.000 A 
ATOM     10  F   UNL     1       6.886   5.773  14.104  0.00  0.00    +0.000 F 
ATOM     11  C   UNL     1       5.853   5.878  16.213  0.00  0.00    +0.000 A 
ATOM     12  C   UNL     1       5.143   5.249  17.247  0.00  0.00    +0.000 A 
ATOM     13  C   UNL     1       4.694   6.081  18.417  0.00  0.00    +0.000 C 
ENDROOT
BRANCH   2  14
ATOM     14  C   UNL     1       2.105   7.340  19.393  0.00  0.00    +0.000 A 
ATOM     15  C   UNL     1       2.258   7.904  18.118  0.00  0.00    +0.000 A 
ATOM     16  C   UNL     1       1.768   9.179  17.809  0.00  0.00    +0.000 A 
ATOM     17  C   UNL     1       1.235   9.909  18.869  0.00  0.00    +0.000 A 
ATOM     18  N   UNL     1       0.708  11.174  18.945  0.00  0.00    +0.000 N 
ATOM     19  C   UNL     1       0.407  11.425  20.253  0.00  0.00    +0.000 A 
ATOM     20  N   UNL     1       0.650  10.383  21.015  0.00  0.00    +0.000 NA
ATOM     21  C   UNL     1       1.165   9.427  20.172  0.00  0.00    +0.000 A 
ATOM     22  C   UNL     1       1.591   8.119  20.446  0.00  0.00    +0.000 A 
ATOM     23  H   UNL     1       0.593  11.818  18.176  0.00  0.00    +0.000 HD
ENDBRANCH   2  14
TORSDOF 1
ENDMDL
MODEL 4
REMARK VINA RESULT:      -7.3      3.589      7.000
REMARK  Name = 
REMARK  1 active torsions:
REMARK  status: ('A' for Active; 'I' for Inactive)
REMARK    1  A    between atoms: C_2  and  C_3
REMARK                            x       y       z     vdW  Elec       q    Type
REMARK                         _______ _______ _______ _____ _____    ______ ____
ROOT
ATOM      1  O   UNL     1       3.816   7.882  17.543  0.00  0.00    +0.000 OA
ATOM      2  C   UNL     1       2.828   7.393  18.093  0.00  0.00    +0.000 C 
ATOM      3  N   UNL     1       2.607   6.013  18.130  0.00  0.00    +0.000 N 
ATOM      4  C   UNL     1       3.585   5.118  17.511  0.00  0.00    +0.000 C 
ATOM      5  C   UNL     1       4.329   4.313  18.581  0.00  0.00    +0.000 C 
ATOM      6  C   UNL     1       3.386   3.694  19.593  0.00  0.00    +0.000 A 
ATOM      7  C   UNL     1       3.828   2.681  20.454  0.00  0.00    +0.000 A 
ATOM      8  C   UNL     1       2.972   2.153  21.424  0.00  0.00    +0.000 A 
ATOM      9  C   UNL     1       1.675   2.636  21.533  0.00  0.00    +0.000 A 
ATOM     10  F   UNL     1       0.857   2.139  22.470  0.00  0.00    +0.000 F 
ATOM     11  C   UNL     1       1.220   3.641  20.699  0.00  0.00    +0.000 A 
ATOM     12  C   UNL     1       2.077   4.192  19.735  0.00  0.00    +0.000 A 
ATOM     13  C   UNL     1       1.566   5.322  18.883  0.00  0.00    +0.000 C 
ENDROOT
BRANCH   2  14
ATOM     14  C   UNL     1       1.886   8.342  18.763  0.00  0.00    +0.000 A 
ATOM     15  C   UNL     1       1.710   8.378  20.154  0.00  0.00    +0.000 A 
ATOM     16  C   UNL     1       0.925   9.358  20.775  0.00  0.00    +0.000 A 
ATOM     17  C   UNL     1       0.224  10.216  19.930  0.00  0.00    +0.000 A 
ATOM     18  N   UNL     1      -0.648  11.245  20.178  0.00  0.00    +0.000 N 
ATOM     19  C   UNL     1      -1.112  11.700  18.977  0.00  0.00    +0.000 A 
ATOM     20  N   UNL     1      -0.551  11.070  17.971  0.00  0.00    +0.000 NA
ATOM     21  C   UNL     1       0.287  10.142  18.542  0.00  0.00    +0.000 A 
ATOM     22  C   UNL     1       1.138   9.204  17.941  0.00  0.00    +0.000 A 
ATOM     23  H   UNL     1      -0.924  11.586  21.088  0.00  0.00    +0.000 HD
ENDBRANCH   2  14
TORSDOF 1
ENDMDL
MODEL 5
REMARK VINA RESULT:      -7.1      7.535     11.011
REMARK  Name = 
REMARK  1 active torsions:
REMARK  status: ('A' for Active; 'I' for Inactive)
REMARK    1  A    between atoms: C_2  and  C_3
REMARK                            x       y       z     vdW  Elec       q    Type
REMARK                         _______ _______ _______ _____ _____    ______ ____
ROOT
ATOM      1  O   UNL     1       1.037  11.525  21.730  0.00  0.00    +0.000 OA
ATOM      2  C   UNL     1       0.022  12.069  21.294  0.00  0.00    +0.000 C 
ATOM      3  N   UNL     1      -0.263  12.120  19.926  0.00  0.00    +0.000 N 
ATOM      4  C   UNL     1       0.664  11.495  18.982  0.00  0.00    +0.000 C 
ATOM      5  C   UNL     1       0.028  10.255  18.347  0.00  0.00    +0.000 C 
ATOM      6  C   UNL     1      -1.376  10.523  17.845  0.00  0.00    +0.000 A 
ATOM      7  C   UNL     1      -2.003   9.627  16.969  0.00  0.00    +0.000 A 
ATOM      8  C   UNL     1      -3.320   9.848  16.553  0.00  0.00    +0.000 A 
ATOM      9  C   UNL     1      -4.008  10.962  17.013  0.00  0.00    +0.000 A 
ATOM     10  F   UNL     1      -5.273  11.170  16.625  0.00  0.00    +0.000 F 
ATOM     11  C   UNL     1      -3.411  11.855  17.885  0.00  0.00    +0.000 A 
ATOM     12  C   UNL     1      -2.097  11.632  18.323  0.00  0.00    +0.000 A 
ATOM     13  C   UNL     1      -1.501  12.594  19.316  0.00  0.00    +0.000 C 
ENDROOT
BRANCH   2  14
ATOM     14  C   UNL     1      -0.925  12.643  22.300  0.00  0.00    +0.000 A 
ATOM     15  C   UNL     1      -0.745  13.912  22.871  0.00  0.00    +0.000 A 
ATOM     16  C   UNL     1      -1.707  14.489  23.709  0.00  0.00    +0.000 A 
ATOM     17  C   UNL     1      -2.793  13.684  24.050  0.00  0.00    +0.000 A 
ATOM     18  N   UNL     1      -3.881  13.897  24.857  0.00  0.00    +0.000 N 
ATOM     19  C   UNL     1      -4.600  12.737  24.906  0.00  0.00    +0.000 A 
ATOM     20  N   UNL     1      -4.079  11.811  24.135  0.00  0.00    +0.000 NA
ATOM     21  C   UNL     1      -2.952  12.381  23.591  0.00  0.00    +0.000 A 
ATOM     22  C   UNL     1      -2.017  11.848  22.691  0.00  0.00    +0.000 A 
ATOM     23  H   UNL     1      -4.096  14.749  25.355  0.00  0.00    +0.000 HD
ENDBRANCH   2  14
TORSDOF 1
ENDMDL
MODEL 6
REMARK VINA RESULT:      -7.0      3.659      7.237
REMARK  Name = 
REMARK  1 active torsions:
REMARK  status: ('A' for Active; 'I' for Inactive)
REMARK    1  A    between atoms: C_2  and  C_3
REMARK                            x       y       z     vdW  Elec       q    Type
REMARK                         _______ _______ _______ _____ _____    ______ ____
ROOT
ATOM      1  O   UNL     1       6.712   4.874  18.903  0.00  0.00    +0.000 OA
ATOM      2  C   UNL     1       5.779   4.718  18.116  0.00  0.00    +0.000 C 
ATOM      3  N   UNL     1       5.821   5.210  16.807  0.00  0.00    +0.000 N 
ATOM      4  C   UNL     1       7.018   5.918  16.352  0.00  0.00    +0.000 C 
ATOM      5  C   UNL     1       7.770   5.085  15.310  0.00  0.00    +0.000 C 
ATOM      6  C   UNL     1       6.851   4.543  14.235  0.00  0.00    +0.000 A 
ATOM      7  C   UNL     1       7.374   4.029  13.041  0.00  0.00    +0.000 A 
ATOM      8  C   UNL     1       6.527   3.477  12.076  0.00  0.00    +0.000 A 
ATOM      9  C   UNL     1       5.158   3.439  12.304  0.00  0.00    +0.000 A 
ATOM     10  F   UNL     1       4.345   2.900  11.386  0.00  0.00    +0.000 F 
ATOM     11  C   UNL     1       4.621   3.933  13.479  0.00  0.00    +0.000 A 
ATOM     12  C   UNL     1       5.464   4.472  14.462  0.00  0.00    +0.000 A 
ATOM     13  C   UNL     1       4.850   4.947  15.751  0.00  0.00    +0.000 C 
ENDROOT
BRANCH   2  14
ATOM     14  C   UNL     1       4.601   3.938  18.607  0.00  0.00    +0.000 A 
ATOM     15  C   UNL     1       4.145   2.775  17.969  0.00  0.00    +0.000 A 
ATOM     16  C   UNL     1       3.125   1.984  18.513  0.00  0.00    +0.000 A 
ATOM     17  C   UNL     1       2.500   2.481  19.655  0.00  0.00    +0.000 A 
ATOM     18  N   UNL     1       1.464   2.007  20.420  0.00  0.00    +0.000 N 
ATOM     19  C   UNL     1       1.195   2.937  21.383  0.00  0.00    +0.000 A 
ATOM     20  N   UNL     1       2.028   3.950  21.325  0.00  0.00    +0.000 NA
ATOM     21  C   UNL     1       2.851   3.685  20.256  0.00  0.00    +0.000 A 
ATOM     22  C   UNL     1       3.925   4.425  19.740  0.00  0.00    +0.000 A 
ATOM     23  H   UNL     1       0.967   1.140  20.277  0.00  0.00    +0.000 HD
ENDBRANCH   2  14
TORSDOF 1
ENDMDL
MODEL 7
REMARK VINA RESULT:      -7.0      3.203      6.723
REMARK  Name = 
REMARK  1 active torsions:
REMARK  status: ('A' for Active; 'I' for Inactive)
REMARK    1  A    between atoms: C_2  and  C_3
REMARK                            x       y       z     vdW  Elec       q    Type
REMARK                         _______ _______ _______ _____ _____    ______ ____
ROOT
ATOM      1  O   UNL     1       6.295   5.514  19.763  0.00  0.00    +0.000 OA
ATOM      2  C   UNL     1       5.438   5.473  18.880  0.00  0.00    +0.000 C 
ATOM      3  N   UNL     1       5.704   5.878  17.569  0.00  0.00    +0.000 N 
ATOM      4  C   UNL     1       7.046   6.353  17.229  0.00  0.00    +0.000 C 
ATOM      5  C   UNL     1       7.752   5.351  16.309  0.00  0.00    +0.000 C 
ATOM      6  C   UNL     1       6.873   4.911  15.156  0.00  0.00    +0.000 A 
ATOM      7  C   UNL     1       7.425   4.254  14.049  0.00  0.00    +0.000 A 
ATOM      8  C   UNL     1       6.604   3.798  13.014  0.00  0.00    +0.000 A 
ATOM      9  C   UNL     1       5.232   4.001  13.084  0.00  0.00    +0.000 A 
ATOM     10  F   UNL     1       4.442   3.556  12.099  0.00  0.00    +0.000 F 
ATOM     11  C   UNL     1       4.666   4.641  14.172  0.00  0.00    +0.000 A 
ATOM     12  C   UNL     1       5.479   5.084  15.226  0.00  0.00    +0.000 A 
ATOM     13  C   UNL     1       4.821   5.725  16.418  0.00  0.00    +0.000 C 
ENDROOT
BRANCH   2  14
ATOM     14  C   UNL     1       4.098   4.927  19.260  0.00  0.00    +0.000 A 
ATOM     15  C   UNL     1       3.199   5.629  20.076  0.00  0.00    +0.000 A 
ATOM     16  C   UNL     1       1.899   5.163  20.315  0.00  0.00    +0.000 A 
ATOM     17  C   UNL     1       1.590   3.904  19.805  0.00  0.00    +0.000 A 
ATOM     18  N   UNL     1       0.457   3.134  19.874  0.00  0.00    +0.000 N 
ATOM     19  C   UNL     1       0.723   1.940  19.267  0.00  0.00    +0.000 A 
ATOM     20  N   UNL     1       1.934   1.914  18.760  0.00  0.00    +0.000 NA
ATOM     21  C   UNL     1       2.491   3.129  19.083  0.00  0.00    +0.000 A 
ATOM     22  C   UNL     1       3.762   3.645  18.789  0.00  0.00    +0.000 A 
ATOM     23  H   UNL     1      -0.411   3.391  20.322  0.00  0.00    +0.000 HD
ENDBRANCH   2  14
TORSDOF 1
ENDMDL
MODEL 8
REMARK VINA RESULT:      -6.8      2.888      6.508
REMARK  Name = 
REMARK  1 active torsions:
REMARK  status: ('A' for Active; 'I' for Inactive)
REMARK    1  A    between atoms: C_2  and  C_3
REMARK                            x       y       z     vdW  Elec       q    Type
REMARK                         _______ _______ _______ _____ _____    ______ ____
ROOT
ATOM      1  O   UNL     1       1.121   4.381  19.689  0.00  0.00    +0.000 OA
ATOM      2  C   UNL     1       2.052   5.186  19.720  0.00  0.00    +0.000 C 
ATOM      3  N   UNL     1       3.381   4.792  19.535  0.00  0.00    +0.000 N 
ATOM      4  C   UNL     1       3.675   3.381  19.281  0.00  0.00    +0.000 C 
ATOM      5  C   UNL     1       4.160   3.185  17.841  0.00  0.00    +0.000 C 
ATOM      6  C   UNL     1       5.232   4.184  17.455  0.00  0.00    +0.000 A 
ATOM      7  C   UNL     1       6.015   3.983  16.311  0.00  0.00    +0.000 A 
ATOM      8  C   UNL     1       6.963   4.935  15.926  0.00  0.00    +0.000 A 
ATOM      9  C   UNL     1       7.128   6.087  16.683  0.00  0.00    +0.000 A 
ATOM     10  F   UNL     1       8.028   7.006  16.309  0.00  0.00    +0.000 F 
ATOM     11  C   UNL     1       6.359   6.309  17.811  0.00  0.00    +0.000 A 
ATOM     12  C   UNL     1       5.392   5.370  18.196  0.00  0.00    +0.000 A 
ATOM     13  C   UNL     1       4.535   5.673  19.396  0.00  0.00    +0.000 C 
ENDROOT
BRANCH   2  14
ATOM     14  C   UNL     1       1.698   6.626  19.925  0.00  0.00    +0.000 A 
ATOM     15  C   UNL     1       1.194   7.115  21.139  0.00  0.00    +0.000 A 
ATOM     16  C   UNL     1       0.991   8.484  21.356  0.00  0.00    +0.000 A 
ATOM     17  C   UNL     1       1.195   9.321  20.262  0.00  0.00    +0.000 A 
ATOM     18  N   UNL     1       1.061  10.677  20.099  0.00  0.00    +0.000 N 
ATOM     19  C   UNL     1       1.310  10.969  18.789  0.00  0.00    +0.000 A 
ATOM     20  N   UNL     1       1.655   9.899  18.111  0.00  0.00    +0.000 NA
ATOM     21  C   UNL     1       1.591   8.861  19.010  0.00  0.00    +0.000 A 
ATOM     22  C   UNL     1       1.863   7.497  18.833  0.00  0.00    +0.000 A 
ATOM     23  H   UNL     1       0.793  11.339  20.814  0.00  0.00    +0.000 HD
ENDBRANCH   2  14
TORSDOF 1
ENDMDL
MODEL 9
REMARK VINA RESULT:      -6.8      7.546     11.264
REMARK  Name = 
REMARK  1 active torsions:
REMARK  status: ('A' for Active; 'I' for Inactive)
REMARK    1  A    between atoms: C_2  and  C_3
REMARK                            x       y       z     vdW  Elec       q    Type
REMARK                         _______ _______ _______ _____ _____    ______ ____
ROOT
ATOM      1  O   UNL     1       0.741  11.344  22.002  0.00  0.00    +0.000 OA
ATOM      2  C   UNL     1      -0.216  11.932  21.498  0.00  0.00    +0.000 C 
ATOM      3  N   UNL     1      -0.392  12.015  20.114  0.00  0.00    +0.000 N 
ATOM      4  C   UNL     1       0.583  11.371  19.233  0.00  0.00    +0.000 C 
ATOM      5  C   UNL     1      -0.046  10.165  18.528  0.00  0.00    +0.000 C 
ATOM      6  C   UNL     1      -1.396  10.493  17.924  0.00  0.00    +0.000 A 
ATOM      7  C   UNL     1      -1.985   9.635  16.985  0.00  0.00    +0.000 A 
ATOM      8  C   UNL     1      -3.256   9.911  16.473  0.00  0.00    +0.000 A 
ATOM      9  C   UNL     1      -3.938  11.043  16.899  0.00  0.00    +0.000 A 
ATOM     10  F   UNL     1      -5.161  11.304  16.418  0.00  0.00    +0.000 F 
ATOM     11  C   UNL     1      -3.378  11.899  17.830  0.00  0.00    +0.000 A 
ATOM     12  C   UNL     1      -2.112  11.621  18.365  0.00  0.00    +0.000 A 
ATOM     13  C   UNL     1      -1.560  12.544  19.418  0.00  0.00    +0.000 C 
ENDROOT
BRANCH   2  14
ATOM     14  C   UNL     1      -1.218  12.525  22.438  0.00  0.00    +0.000 A 
ATOM     15  C   UNL     1      -2.415  11.877  22.776  0.00  0.00    +0.000 A 
ATOM     16  C   UNL     1      -3.279  12.383  23.756  0.00  0.00    +0.000 A 
ATOM     17  C   UNL     1      -2.951  13.630  24.284  0.00  0.00    +0.000 A 
ATOM     18  N   UNL     1      -3.569  14.430  25.212  0.00  0.00    +0.000 N 
ATOM     19  C   UNL     1      -2.860  15.593  25.302  0.00  0.00    +0.000 A 
ATOM     20  N   UNL     1      -1.793  15.570  24.537  0.00  0.00    +0.000 NA
ATOM     21  C   UNL     1      -1.829  14.355  23.896  0.00  0.00    +0.000 A 
ATOM     22  C   UNL     1      -0.936  13.797  22.970  0.00  0.00    +0.000 A 
ATOM     23  H   UNL     1      -4.417  14.212  25.715  0.00  0.00    +0.000 HD
ENDBRANCH   2  14
TORSDOF 1
ENDMDL
