MODEL 1
REMARK VINA RESULT:      -7.9      0.000      0.000
REMARK  Name = 
REMARK  3 active torsions:
REMARK  status: ('A' for Active; 'I' for Inactive)
REMARK    1  A    between atoms: C_2  and  C_5
REMARK    2  A    between atoms: C_10  and  C_11
REMARK    3  A    between atoms: N_15  and  C_16
REMARK                            x       y       z     vdW  Elec       q    Type
REMARK                         _______ _______ _______ _____ _____    ______ ____
ROOT
ATOM      1  C   UNL     1       3.434   5.071  17.876  0.00  0.00    +0.000 C 
ATOM      2  F   UNL     1       3.197   4.022  17.014  0.00  0.00    +0.000 F 
ATOM      3  C   UNL     1       2.725   6.297  17.237  0.00  0.00    +0.000 C 
ATOM      4  C   UNL     1       2.698   7.507  18.170  0.00  0.00    +0.000 C 
ATOM      5  N   UNL     1       2.082   7.140  19.448  0.00  0.00    +0.000 N 
ATOM      6  C   UNL     1       2.559   5.932  20.105  0.00  0.00    +0.000 C 
ATOM      7  C   UNL     1       2.592   4.771  19.121  0.00  0.00    +0.000 C 
ENDROOT
BRANCH   5   8
ATOM      8  C   UNL     1       1.588   8.203  20.212  0.00  0.00    +0.000 A 
ATOM      9  N   UNL     1       1.724   8.110  21.568  0.00  0.00    +0.000 NA
ATOM     10  C   UNL     1       1.380   9.145  22.356  0.00  0.00    +0.000 A 
ATOM     11  N   UNL     1       0.875  10.329  21.989  0.00  0.00    +0.000 NA
ATOM     12  C   UNL     1       0.714  10.390  20.661  0.00  0.00    +0.000 A 
ATOM     13  N   UNL     1       0.216  11.487  20.015  0.00  0.00    +0.000 N 
ATOM     14  C   UNL     1       0.142  11.238  18.670  0.00  0.00    +0.000 A 
ATOM     15  C   UNL     1       0.614   9.960  18.462  0.00  0.00    +0.000 A 
ATOM     16  C   UNL     1       1.015   9.410  19.724  0.00  0.00    +0.000 A 
ATOM     17  H   UNL     1      -0.053  12.339  20.485  0.00  0.00    +0.000 HD
ENDBRANCH   5   8
BRANCH   1  23
ATOM     18  C   UNL     1       5.917   5.381  16.965  0.00  0.00    +0.000 A 
ATOM     19  C   UNL     1       7.293   5.554  17.280  0.00  0.00    +0.000 A 
ATOM     20  C   UNL     1       7.754   5.613  18.589  0.00  0.00    +0.000 A 
ATOM     21  C   UNL     1       6.848   5.505  19.622  0.00  0.00    +0.000 A 
ATOM     22  C   UNL     1       5.494   5.312  19.342  0.00  0.00    +0.000 A 
ATOM     23  C   UNL     1       4.976   5.201  18.023  0.00  0.00    +0.000 A 
BRANCH  18  25
ATOM     24  F   UNL     1       6.696   5.411  14.679  0.00  0.00    +0.000 F 
ATOM     25  C   UNL     1       5.592   5.452  15.485  0.00  0.00    +0.000 C 
ATOM     26  F   UNL     1       4.941   6.590  15.127  0.00  0.00    +0.000 F 
ATOM     27  F   UNL     1       4.823   4.407  15.066  0.00  0.00    +0.000 F 
ENDBRANCH  18  25
ENDBRANCH   1  23
TORSDOF 3
ENDMDL
MODEL 2
REMARK VINA RESULT:      -7.9      4.387      7.989
REMARK  Name = 
REMARK  3 active torsions:
REMARK  status: ('A' for Active; 'I' for Inactive)
REMARK    1  A    between atoms: C_2  and  C_5
REMARK    2  A    between atoms: C_10  and  C_11
REMARK    3  A    between atoms: N_15  and  C_16
REMARK                            x       y       z     vdW  Elec       q    Type
REMARK                         _______ _______ _______ _____ _____    ______ ____
ROOT
ATOM      1  C   UNL     1       0.684  10.844  19.022  0.00  0.00    +0.000 C 
ATOM      2  F   UNL     1       0.969  12.192  19.046  0.00  0.00    +0.000 F 
ATOM      3  C   UNL     1       1.754  10.214  18.089  0.00  0.00    +0.000 C 
ATOM      4  C   UNL     1       1.725   8.686  18.115  0.00  0.00    +0.000 C 
ATOM      5  N   UNL     1       1.868   8.206  19.492  0.00  0.00    +0.000 N 
ATOM      6  C   UNL     1       1.014   8.805  20.507  0.00  0.00    +0.000 C 
ATOM      7  C   UNL     1       1.061  10.323  20.413  0.00  0.00    +0.000 C 
ENDROOT
BRANCH   5   8
ATOM      8  C   UNL     1       2.301   6.884  19.633  0.00  0.00    +0.000 A 
ATOM      9  N   UNL     1       1.721   6.141  20.623  0.00  0.00    +0.000 NA
ATOM     10  C   UNL     1       2.002   4.831  20.740  0.00  0.00    +0.000 A 
ATOM     11  N   UNL     1       2.832   4.095  19.993  0.00  0.00    +0.000 NA
ATOM     12  C   UNL     1       3.420   4.845  19.051  0.00  0.00    +0.000 A 
ATOM     13  N   UNL     1       4.315   4.347  18.146  0.00  0.00    +0.000 N 
ATOM     14  C   UNL     1       4.764   5.356  17.335  0.00  0.00    +0.000 A 
ATOM     15  C   UNL     1       4.128   6.513  17.730  0.00  0.00    +0.000 A 
ATOM     16  C   UNL     1       3.239   6.201  18.810  0.00  0.00    +0.000 A 
ATOM     17  H   UNL     1       4.591   3.377  18.107  0.00  0.00    +0.000 HD
ENDBRANCH   5   8
BRANCH   1  23
ATOM     18  C   UNL     1      -1.922  11.396  19.044  0.00  0.00    +0.000 A 
ATOM     19  C   UNL     1      -3.191  11.196  18.435  0.00  0.00    +0.000 A 
ATOM     20  C   UNL     1      -3.361  10.385  17.320  0.00  0.00    +0.000 A 
ATOM     21  C   UNL     1      -2.261   9.755  16.779  0.00  0.00    +0.000 A 
ATOM     22  C   UNL     1      -1.007   9.916  17.369  0.00  0.00    +0.000 A 
ATOM     23  C   UNL     1      -0.785  10.698  18.535  0.00  0.00    +0.000 A 
BRANCH  18  25
ATOM     24  F   UNL     1      -3.156  12.883  20.492  0.00  0.00    +0.000 F 
ATOM     25  C   UNL     1      -1.916  12.399  20.182  0.00  0.00    +0.000 C 
ATOM     26  F   UNL     1      -1.165  13.503  19.927  0.00  0.00    +0.000 F 
ATOM     27  F   UNL     1      -1.454  11.867  21.348  0.00  0.00    +0.000 F 
ENDBRANCH  18  25
ENDBRANCH   1  23
TORSDOF 3
ENDMDL
MODEL 3
REMARK VINA RESULT:      -7.6      4.468      8.141
REMARK  Name = 
REMARK  3 active torsions:
REMARK  status: ('A' for Active; 'I' for Inactive)
REMARK    1  A    between atoms: C_2  and  C_5
REMARK    2  A    between atoms: C_10  and  C_11
REMARK    3  A    between atoms: N_15  and  C_16
REMARK                            x       y       z     vdW  Elec       q    Type
REMARK                         _______ _______ _______ _____ _____    ______ ____
ROOT
ATOM      1  C   UNL     1       0.585  10.884  19.234  0.00  0.00    +0.000 C 
ATOM      2  F   UNL     1       0.721  12.192  19.645  0.00  0.00    +0.000 F 
ATOM      3  C   UNL     1       1.736  10.650  18.217  0.00  0.00    +0.000 C 
ATOM      4  C   UNL     1       1.873   9.182  17.818  0.00  0.00    +0.000 C 
ATOM      5  N   UNL     1       2.041   8.351  19.013  0.00  0.00    +0.000 N 
ATOM      6  C   UNL     1       1.106   8.553  20.111  0.00  0.00    +0.000 C 
ATOM      7  C   UNL     1       0.989  10.034  20.443  0.00  0.00    +0.000 C 
ENDROOT
BRANCH   5   8
ATOM      8  C   UNL     1       2.613   7.092  18.804  0.00  0.00    +0.000 A 
ATOM      9  N   UNL     1       3.471   6.966  17.747  0.00  0.00    +0.000 NA
ATOM     10  C   UNL     1       4.148   5.820  17.557  0.00  0.00    +0.000 A 
ATOM     11  N   UNL     1       4.094   4.699  18.287  0.00  0.00    +0.000 NA
ATOM     12  C   UNL     1       3.223   4.826  19.296  0.00  0.00    +0.000 A 
ATOM     13  N   UNL     1       2.972   3.832  20.201  0.00  0.00    +0.000 N 
ATOM     14  C   UNL     1       2.016   4.247  21.091  0.00  0.00    +0.000 A 
ATOM     15  C   UNL     1       1.666   5.535  20.747  0.00  0.00    +0.000 A 
ATOM     16  C   UNL     1       2.451   5.936  19.616  0.00  0.00    +0.000 A 
ATOM     17  H   UNL     1       3.433   2.935  20.188  0.00  0.00    +0.000 HD
ENDBRANCH   5   8
BRANCH   1  23
ATOM     18  C   UNL     1      -2.019  11.424  19.095  0.00  0.00    +0.000 A 
ATOM     19  C   UNL     1      -3.246  11.223  18.405  0.00  0.00    +0.000 A 
ATOM     20  C   UNL     1      -3.341  10.420  17.275  0.00  0.00    +0.000 A 
ATOM     21  C   UNL     1      -2.206   9.800  16.800  0.00  0.00    +0.000 A 
ATOM     22  C   UNL     1      -0.993   9.961  17.470  0.00  0.00    +0.000 A 
ATOM     23  C   UNL     1      -0.849  10.735  18.654  0.00  0.00    +0.000 A 
BRANCH  18  25
ATOM     24  F   UNL     1      -3.366  12.782  20.570  0.00  0.00    +0.000 F 
ATOM     25  C   UNL     1      -2.090  12.418  20.238  0.00  0.00    +0.000 C 
ATOM     26  F   UNL     1      -1.451  13.589  19.979  0.00  0.00    +0.000 F 
ATOM     27  F   UNL     1      -1.562  11.926  21.395  0.00  0.00    +0.000 F 
ENDBRANCH  18  25
ENDBRANCH   1  23
TORSDOF 3
ENDMDL
MODEL 4
REMARK VINA RESULT:      -7.5      4.510      7.730
REMARK  Name = 
REMARK  3 active torsions:
REMARK  status: ('A' for Active; 'I' for Inactive)
REMARK    1  A    between atoms: C_2  and  C_5
REMARK    2  A    between atoms: C_10  and  C_11
REMARK    3  A    between atoms: N_15  and  C_16
REMARK                            x       y       z     vdW  Elec       q    Type
REMARK                         _______ _______ _______ _____ _____    ______ ____
ROOT
ATOM      1  C   UNL     1       4.800   5.101  18.638  0.00  0.00    +0.000 C 
ATOM      2  F   UNL     1       4.837   5.700  19.878  0.00  0.00    +0.000 F 
ATOM      3  C   UNL     1       4.671   6.269  17.621  0.00  0.00    +0.000 C 
ATOM      4  C   UNL     1       4.834   5.805  16.175  0.00  0.00    +0.000 C 
ATOM      5  N   UNL     1       6.106   5.097  16.016  0.00  0.00    +0.000 N 
ATOM      6  C   UNL     1       6.425   4.056  16.983  0.00  0.00    +0.000 C 
ATOM      7  C   UNL     1       6.216   4.567  18.401  0.00  0.00    +0.000 C 
ENDROOT
BRANCH   5   8
ATOM      8  C   UNL     1       6.596   5.011  14.709  0.00  0.00    +0.000 A 
ATOM      9  N   UNL     1       7.765   5.665  14.437  0.00  0.00    +0.000 NA
ATOM     10  C   UNL     1       8.354   5.528  13.236  0.00  0.00    +0.000 A 
ATOM     11  N   UNL     1       7.934   4.811  12.187  0.00  0.00    +0.000 NA
ATOM     12  C   UNL     1       6.770   4.205  12.457  0.00  0.00    +0.000 A 
ATOM     13  N   UNL     1       6.115   3.406  11.562  0.00  0.00    +0.000 N 
ATOM     14  C   UNL     1       4.943   2.958  12.113  0.00  0.00    +0.000 A 
ATOM     15  C   UNL     1       4.864   3.476  13.387  0.00  0.00    +0.000 A 
ATOM     16  C   UNL     1       6.042   4.255  13.638  0.00  0.00    +0.000 A 
ATOM     17  H   UNL     1       6.463   3.198  10.638  0.00  0.00    +0.000 HD
ENDBRANCH   5   8
BRANCH   1  23
ATOM     18  C   UNL     1       2.384   4.249  19.368  0.00  0.00    +0.000 A 
ATOM     19  C   UNL     1       1.365   3.270  19.212  0.00  0.00    +0.000 A 
ATOM     20  C   UNL     1       1.492   2.197  18.339  0.00  0.00    +0.000 A 
ATOM     21  C   UNL     1       2.643   2.077  17.591  0.00  0.00    +0.000 A 
ATOM     22  C   UNL     1       3.669   3.011  17.740  0.00  0.00    +0.000 A 
ATOM     23  C   UNL     1       3.609   4.102  18.650  0.00  0.00    +0.000 A 
BRANCH  18  25
ATOM     24  F   UNL     1       0.696   5.439  20.620  0.00  0.00    +0.000 F 
ATOM     25  C   UNL     1       2.020   5.403  20.282  0.00  0.00    +0.000 C 
ATOM     26  F   UNL     1       2.275   6.624  19.743  0.00  0.00    +0.000 F 
ATOM     27  F   UNL     1       2.677   5.353  21.476  0.00  0.00    +0.000 F 
ENDBRANCH  18  25
ENDBRANCH   1  23
TORSDOF 3
ENDMDL
MODEL 5
REMARK VINA RESULT:      -7.4      1.196      1.950
REMARK  Name = 
REMARK  3 active torsions:
REMARK  status: ('A' for Active; 'I' for Inactive)
REMARK    1  A    between atoms: C_2  and  C_5
REMARK    2  A    between atoms: C_10  and  C_11
REMARK    3  A    between atoms: N_15  and  C_16
REMARK                            x       y       z     vdW  Elec       q    Type
REMARK                         _______ _______ _______ _____ _____    ______ ____
ROOT
ATOM      1  C   UNL     1       3.724   4.416  18.617  0.00  0.00    +0.000 C 
ATOM      2  F   UNL     1       3.495   3.067  18.454  0.00  0.00    +0.000 F 
ATOM      3  C   UNL     1       2.853   5.115  17.536  0.00  0.00    +0.000 C 
ATOM      4  C   UNL     1       2.814   6.633  17.710  0.00  0.00    +0.000 C 
ATOM      5  N   UNL     1       2.361   6.971  19.062  0.00  0.00    +0.000 N 
ATOM      6  C   UNL     1       3.002   6.291  20.178  0.00  0.00    +0.000 C 
ATOM      7  C   UNL     1       3.038   4.789  19.935  0.00  0.00    +0.000 C 
ENDROOT
BRANCH   5   8
ATOM      8  C   UNL     1       1.855   8.264  19.228  0.00  0.00    +0.000 A 
ATOM      9  N   UNL     1       2.035   9.140  18.194  0.00  0.00    +0.000 NA
ATOM     10  C   UNL     1       1.472  10.361  18.236  0.00  0.00    +0.000 A 
ATOM     11  N   UNL     1       0.723  10.892  19.209  0.00  0.00    +0.000 NA
ATOM     12  C   UNL     1       0.587  10.035  20.229  0.00  0.00    +0.000 A 
ATOM     13  N   UNL     1      -0.132  10.319  21.357  0.00  0.00    +0.000 N 
ATOM     14  C   UNL     1      -0.062   9.264  22.229  0.00  0.00    +0.000 A 
ATOM     15  C   UNL     1       0.707   8.289  21.632  0.00  0.00    +0.000 A 
ATOM     16  C   UNL     1       1.108   8.752  20.336  0.00  0.00    +0.000 A 
ATOM     17  H   UNL     1      -0.626  11.187  21.502  0.00  0.00    +0.000 HD
ENDBRANCH   5   8
BRANCH   1  23
ATOM     18  C   UNL     1       6.043   4.410  17.306  0.00  0.00    +0.000 A 
ATOM     19  C   UNL     1       7.427   4.733  17.326  0.00  0.00    +0.000 A 
ATOM     20  C   UNL     1       8.038   5.319  18.427  0.00  0.00    +0.000 A 
ATOM     21  C   UNL     1       7.277   5.604  19.540  0.00  0.00    +0.000 A 
ATOM     22  C   UNL     1       5.920   5.277  19.557  0.00  0.00    +0.000 A 
ATOM     23  C   UNL     1       5.256   4.638  18.475  0.00  0.00    +0.000 A 
BRANCH  18  25
ATOM     24  F   UNL     1       6.530   3.475  15.134  0.00  0.00    +0.000 F 
ATOM     25  C   UNL     1       5.535   3.879  15.980  0.00  0.00    +0.000 C 
ATOM     26  F   UNL     1       4.821   4.790  15.268  0.00  0.00    +0.000 F 
ATOM     27  F   UNL     1       4.741   2.780  16.124  0.00  0.00    +0.000 F 
ENDBRANCH  18  25
ENDBRANCH   1  23
TORSDOF 3
ENDMDL
MODEL 6
REMARK VINA RESULT:      -7.4      4.411      7.713
REMARK  Name = 
REMARK  3 active torsions:
REMARK  status: ('A' for Active; 'I' for Inactive)
REMARK    1  A    between atoms: C_2  and  C_5
REMARK    2  A    between atoms: C_10  and  C_11
REMARK    3  A    between atoms: N_15  and  C_16
REMARK                            x       y       z     vdW  Elec       q    Type
REMARK                         _______ _______ _______ _____ _____    ______ ____
ROOT
ATOM      1  C   UNL     1       5.155   5.149  18.481  0.00  0.00    +0.000 C 
ATOM      2  F   UNL     1       5.324   5.703  19.731  0.00  0.00    +0.000 F 
ATOM      3  C   UNL     1       5.089   6.354  17.503  0.00  0.00    +0.000 C 
ATOM      4  C   UNL     1       5.121   5.919  16.038  0.00  0.00    +0.000 C 
ATOM      5  N   UNL     1       6.304   5.093  15.787  0.00  0.00    +0.000 N 
ATOM      6  C   UNL     1       6.569   3.996  16.708  0.00  0.00    +0.000 C 
ATOM      7  C   UNL     1       6.494   4.483  18.148  0.00  0.00    +0.000 C 
ENDROOT
BRANCH   5   8
ATOM      8  C   UNL     1       6.708   4.997  14.451  0.00  0.00    +0.000 A 
ATOM      9  N   UNL     1       7.846   5.665  14.096  0.00  0.00    +0.000 NA
ATOM     10  C   UNL     1       8.357   5.521  12.860  0.00  0.00    +0.000 A 
ATOM     11  N   UNL     1       7.880   4.785  11.849  0.00  0.00    +0.000 NA
ATOM     12  C   UNL     1       6.746   4.167  12.202  0.00  0.00    +0.000 A 
ATOM     13  N   UNL     1       6.044   3.348  11.362  0.00  0.00    +0.000 N 
ATOM     14  C   UNL     1       4.919   2.890  11.994  0.00  0.00    +0.000 A 
ATOM     15  C   UNL     1       4.916   3.422  13.265  0.00  0.00    +0.000 A 
ATOM     16  C   UNL     1       6.096   4.221  13.429  0.00  0.00    +0.000 A 
ATOM     17  H   UNL     1       6.334   3.134  10.419  0.00  0.00    +0.000 HD
ENDBRANCH   5   8
BRANCH   1  23
ATOM     18  C   UNL     1       2.574   4.697  18.958  0.00  0.00    +0.000 A 
ATOM     19  C   UNL     1       1.487   3.783  18.884  0.00  0.00    +0.000 A 
ATOM     20  C   UNL     1       1.626   2.503  18.362  0.00  0.00    +0.000 A 
ATOM     21  C   UNL     1       2.859   2.104  17.894  0.00  0.00    +0.000 A 
ATOM     22  C   UNL     1       3.949   2.972  17.976  0.00  0.00    +0.000 A 
ATOM     23  C   UNL     1       3.872   4.274  18.539  0.00  0.00    +0.000 A 
BRANCH  18  25
ATOM     24  F   UNL     1       3.191   6.681  20.189  0.00  0.00    +0.000 F 
ATOM     25  C   UNL     1       2.205   6.081  19.456  0.00  0.00    +0.000 C 
ATOM     26  F   UNL     1       1.114   6.094  20.265  0.00  0.00    +0.000 F 
ATOM     27  F   UNL     1       1.955   6.955  18.439  0.00  0.00    +0.000 F 
ENDBRANCH  18  25
ENDBRANCH   1  23
TORSDOF 3
ENDMDL
MODEL 7
REMARK VINA RESULT:      -7.4      5.010      7.863
REMARK  Name = 
REMARK  3 active torsions:
REMARK  status: ('A' for Active; 'I' for Inactive)
REMARK    1  A    between atoms: C_2  and  C_5
REMARK    2  A    between atoms: C_10  and  C_11
REMARK    3  A    between atoms: N_15  and  C_16
REMARK                            x       y       z     vdW  Elec       q    Type
REMARK                         _______ _______ _______ _____ _____    ______ ____
ROOT
ATOM      1  C   UNL     1      -0.481  12.057  19.440  0.00  0.00    +0.000 C 
ATOM      2  F   UNL     1       0.651  12.633  18.905  0.00  0.00    +0.000 F 
ATOM      3  C   UNL     1      -1.154  13.177  20.281  0.00  0.00    +0.000 C 
ATOM      4  C   UNL     1      -2.544  12.780  20.774  0.00  0.00    +0.000 C 
ATOM      5  N   UNL     1      -3.384  12.384  19.642  0.00  0.00    +0.000 N 
ATOM      6  C   UNL     1      -2.830  11.431  18.691  0.00  0.00    +0.000 C 
ATOM      7  C   UNL     1      -1.436  11.863  18.258  0.00  0.00    +0.000 C 
ENDROOT
BRANCH   5   8
ATOM      8  C   UNL     1      -4.765  12.428  19.863  0.00  0.00    +0.000 A 
ATOM      9  N   UNL     1      -5.192  12.292  21.154  0.00  0.00    +0.000 NA
ATOM     10  C   UNL     1      -6.494  12.443  21.456  0.00  0.00    +0.000 A 
ATOM     11  N   UNL     1      -7.509  12.709  20.625  0.00  0.00    +0.000 NA
ATOM     12  C   UNL     1      -7.079  12.804  19.360  0.00  0.00    +0.000 A 
ATOM     13  N   UNL     1      -7.905  13.072  18.304  0.00  0.00    +0.000 N 
ATOM     14  C   UNL     1      -7.183  13.075  17.140  0.00  0.00    +0.000 A 
ATOM     15  C   UNL     1      -5.870  12.816  17.471  0.00  0.00    +0.000 A 
ATOM     16  C   UNL     1      -5.777  12.668  18.894  0.00  0.00    +0.000 A 
ATOM     17  H   UNL     1      -8.897  13.234  18.397  0.00  0.00    +0.000 HD
ENDBRANCH   5   8
BRANCH   1  23
ATOM     18  C   UNL     1       0.720   9.699  19.746  0.00  0.00    +0.000 A 
ATOM     19  C   UNL     1       1.124   8.671  20.641  0.00  0.00    +0.000 A 
ATOM     20  C   UNL     1       0.876   8.734  22.006  0.00  0.00    +0.000 A 
ATOM     21  C   UNL     1       0.220   9.833  22.515  0.00  0.00    +0.000 A 
ATOM     22  C   UNL     1      -0.209  10.847  21.657  0.00  0.00    +0.000 A 
ATOM     23  C   UNL     1      -0.020  10.812  20.249  0.00  0.00    +0.000 A 
BRANCH  18  25
ATOM     24  F   UNL     1       1.860   8.341  18.106  0.00  0.00    +0.000 F 
ATOM     25  C   UNL     1       1.175   9.506  18.312  0.00  0.00    +0.000 C 
ATOM     26  F   UNL     1       2.010  10.484  17.872  0.00  0.00    +0.000 F 
ATOM     27  F   UNL     1       0.133   9.450  17.434  0.00  0.00    +0.000 F 
ENDBRANCH  18  25
ENDBRANCH   1  23
TORSDOF 3
ENDMDL
MODEL 8
REMARK VINA RESULT:      -7.3      1.896      3.135
REMARK  Name = 
REMARK  3 active torsions:
REMARK  status: ('A' for Active; 'I' for Inactive)
REMARK    1  A    between atoms: C_2  and  C_5
REMARK    2  A    between atoms: C_10  and  C_11
REMARK    3  A    between atoms: N_15  and  C_16
REMARK                            x       y       z     vdW  Elec       q    Type
REMARK                         _______ _______ _______ _____ _____    ______ ____
ROOT
ATOM      1  C   UNL     1       4.363   4.276  18.242  0.00  0.00    +0.000 C 
ATOM      2  F   UNL     1       4.584   2.991  18.688  0.00  0.00    +0.000 F 
ATOM      3  C   UNL     1       2.829   4.377  18.021  0.00  0.00    +0.000 C 
ATOM      4  C   UNL     1       2.374   5.807  17.731  0.00  0.00    +0.000 C 
ATOM      5  N   UNL     1       2.820   6.701  18.802  0.00  0.00    +0.000 N 
ATOM      6  C   UNL     1       4.215   6.624  19.209  0.00  0.00    +0.000 C 
ATOM      7  C   UNL     1       4.617   5.177  19.455  0.00  0.00    +0.000 C 
ENDROOT
BRANCH   5   8
ATOM      8  C   UNL     1       2.124   7.909  18.915  0.00  0.00    +0.000 A 
ATOM      9  N   UNL     1       1.957   8.640  17.772  0.00  0.00    +0.000 NA
ATOM     10  C   UNL     1       1.197   9.750  17.782  0.00  0.00    +0.000 A 
ATOM     11  N   UNL     1       0.547  10.295  18.817  0.00  0.00    +0.000 NA
ATOM     12  C   UNL     1       0.751   9.589  19.936  0.00  0.00    +0.000 A 
ATOM     13  N   UNL     1       0.202   9.921  21.144  0.00  0.00    +0.000 N 
ATOM     14  C   UNL     1       0.615   9.031  22.100  0.00  0.00    +0.000 A 
ATOM     15  C   UNL     1       1.432   8.110  21.480  0.00  0.00    +0.000 A 
ATOM     16  C   UNL     1       1.507   8.433  20.085  0.00  0.00    +0.000 A 
ATOM     17  H   UNL     1      -0.408  10.712  21.283  0.00  0.00    +0.000 HD
ENDBRANCH   5   8
BRANCH   1  23
ATOM     18  C   UNL     1       6.627   4.756  16.922  0.00  0.00    +0.000 A 
ATOM     19  C   UNL     1       7.283   4.833  15.663  0.00  0.00    +0.000 A 
ATOM     20  C   UNL     1       6.625   4.582  14.466  0.00  0.00    +0.000 A 
ATOM     21  C   UNL     1       5.290   4.240  14.496  0.00  0.00    +0.000 A 
ATOM     22  C   UNL     1       4.615   4.179  15.716  0.00  0.00    +0.000 A 
ATOM     23  C   UNL     1       5.229   4.469  16.965  0.00  0.00    +0.000 A 
BRANCH  18  25
ATOM     24  F   UNL     1       6.945   4.629  19.313  0.00  0.00    +0.000 F 
ATOM     25  C   UNL     1       7.533   4.956  18.122  0.00  0.00    +0.000 C 
ATOM     26  F   UNL     1       7.948   6.240  18.280  0.00  0.00    +0.000 F 
ATOM     27  F   UNL     1       8.653   4.181  18.069  0.00  0.00    +0.000 F 
ENDBRANCH  18  25
ENDBRANCH   1  23
TORSDOF 3
ENDMDL
MODEL 9
REMARK VINA RESULT:      -7.2      4.611      7.997
REMARK  Name = 
REMARK  3 active torsions:
REMARK  status: ('A' for Active; 'I' for Inactive)
REMARK    1  A    between atoms: C_2  and  C_5
REMARK    2  A    between atoms: C_10  and  C_11
REMARK    3  A    between atoms: N_15  and  C_16
REMARK                            x       y       z     vdW  Elec       q    Type
REMARK                         _______ _______ _______ _____ _____    ______ ____
ROOT
ATOM      1  C   UNL     1      -0.306  10.737  19.559  0.00  0.00    +0.000 C 
ATOM      2  F   UNL     1      -1.630  11.096  19.693  0.00  0.00    +0.000 F 
ATOM      3  C   UNL     1      -0.107   9.533  20.521  0.00  0.00    +0.000 C 
ATOM      4  C   UNL     1       1.255   8.863  20.343  0.00  0.00    +0.000 C 
ATOM      5  N   UNL     1       1.438   8.465  18.945  0.00  0.00    +0.000 N 
ATOM      6  C   UNL     1       1.159   9.459  17.918  0.00  0.00    +0.000 C 
ATOM      7  C   UNL     1      -0.193  10.112  18.165  0.00  0.00    +0.000 C 
ENDROOT
BRANCH   5   8
ATOM      8  C   UNL     1       2.396   7.473  18.715  0.00  0.00    +0.000 A 
ATOM      9  N   UNL     1       3.337   7.726  17.757  0.00  0.00    +0.000 NA
ATOM     10  C   UNL     1       4.357   6.870  17.566  0.00  0.00    +0.000 A 
ATOM     11  N   UNL     1       4.600   5.720  18.206  0.00  0.00    +0.000 NA
ATOM     12  C   UNL     1       3.651   5.469  19.116  0.00  0.00    +0.000 A 
ATOM     13  N   UNL     1       3.652   4.360  19.916  0.00  0.00    +0.000 N 
ATOM     14  C   UNL     1       2.541   4.366  20.718  0.00  0.00    +0.000 A 
ATOM     15  C   UNL     1       1.831   5.511  20.427  0.00  0.00    +0.000 A 
ATOM     16  C   UNL     1       2.541   6.247  19.423  0.00  0.00    +0.000 A 
ATOM     17  H   UNL     1       4.373   3.655  19.894  0.00  0.00    +0.000 HD
ENDBRANCH   5   8
BRANCH   1  23
ATOM     18  C   UNL     1       0.413  12.829  21.044  0.00  0.00    +0.000 A 
ATOM     19  C   UNL     1       1.322  13.906  21.230  0.00  0.00    +0.000 A 
ATOM     20  C   UNL     1       2.376  14.149  20.358  0.00  0.00    +0.000 A 
ATOM     21  C   UNL     1       2.553  13.314  19.277  0.00  0.00    +0.000 A 
ATOM     22  C   UNL     1       1.662  12.262  19.056  0.00  0.00    +0.000 A 
ATOM     23  C   UNL     1       0.543  11.996  19.892  0.00  0.00    +0.000 A 
BRANCH  18  25
ATOM     24  F   UNL     1      -0.548  13.640  23.106  0.00  0.00    +0.000 F 
ATOM     25  C   UNL     1      -0.604  12.658  22.156  0.00  0.00    +0.000 C 
ATOM     26  F   UNL     1      -0.461  11.497  22.848  0.00  0.00    +0.000 F 
ATOM     27  F   UNL     1      -1.889  12.692  21.703  0.00  0.00    +0.000 F 
ENDBRANCH  18  25
ENDBRANCH   1  23
TORSDOF 3
ENDMDL
