MODEL 1
REMARK VINA RESULT:      -9.0      0.000      0.000
REMARK  Name = 
REMARK  6 active torsions:
REMARK  status: ('A' for Active; 'I' for Inactive)
REMARK    1  A    between atoms: C_1  and  C_2
REMARK    2  A    between atoms: N_4  and  S_5
REMARK    3  A    between atoms: S_5  and  C_8
REMARK    4  A    between atoms: C_11  and  N_12
REMARK    5  A    between atoms: C_13  and  C_15
REMARK    6  A    between atoms: C_27  and  C_28
REMARK                            x       y       z     vdW  Elec       q    Type
REMARK                         _______ _______ _______ _____ _____    ______ ____
ROOT
ATOM      1  C   UNL     1       3.142   5.397  19.324  0.00  0.00    +0.000 A 
ATOM      2  C   UNL     1       3.051   6.605  18.628  0.00  0.00    +0.000 A 
ATOM      3  C   UNL     1       2.279   7.653  19.133  0.00  0.00    +0.000 A 
ATOM      4  C   UNL     1       1.556   7.516  20.322  0.00  0.00    +0.000 A 
ATOM      5  C   UNL     1       1.603   6.277  20.983  0.00  0.00    +0.000 A 
ATOM      6  C   UNL     1       2.392   5.215  20.486  0.00  0.00    +0.000 A 
ENDROOT
BRANCH   4   7
ATOM      7  N   UNL     1       0.771   8.562  20.871  0.00  0.00    +0.000 N 
ATOM      8  C   UNL     1       1.093   9.360  21.967  0.00  0.00    +0.000 C 
ATOM      9  O   UNL     1       2.104   9.228  22.655  0.00  0.00    +0.000 OA
ATOM     10  H   UNL     1      -0.133   8.748  20.451  0.00  0.00    +0.000 HD
BRANCH   8  11
ATOM     11  C   UNL     1       0.125  10.395  22.281  0.00  0.00    +0.000 A 
ATOM     12  C   UNL     1      -1.066  10.310  22.982  0.00  0.00    +0.000 A 
ATOM     13  C   UNL     1      -1.626  11.611  23.019  0.00  0.00    +0.000 A 
ATOM     14  C   UNL     1      -2.789  12.195  23.556  0.00  0.00    +0.000 A 
ATOM     15  C   UNL     1      -2.994  13.571  23.380  0.00  0.00    +0.000 A 
ATOM     16  C   UNL     1      -2.066  14.354  22.689  0.00  0.00    +0.000 A 
ATOM     17  C   UNL     1      -0.903  13.790  22.149  0.00  0.00    +0.000 A 
ATOM     18  C   UNL     1      -0.727  12.421  22.333  0.00  0.00    +0.000 A 
ATOM     19  O   UNL     1       0.332  11.688  21.879  0.00  0.00    +0.000 OA
ENDBRANCH   8  11
ENDBRANCH   4   7
BRANCH   1  20
ATOM     20  S   UNL     1       4.133   4.085  18.618  0.00  0.00    +0.000 S 
ATOM     21  O   UNL     1       3.233   3.247  17.853  0.00  0.00    +0.000 OA
ATOM     22  O   UNL     1       4.945   3.530  19.681  0.00  0.00    +0.000 OA
BRANCH  20  26
ATOM     23  C   UNL     1       5.856   5.372  14.437  0.00  0.00    +0.000 C 
ATOM     24  C   UNL     1       6.731   4.789  15.548  0.00  0.00    +0.000 C 
ATOM     25  C   UNL     1       5.953   3.978  16.604  0.00  0.00    +0.000 C 
ATOM     26  N   UNL     1       5.170   4.867  17.505  0.00  0.00    +0.000 NA
ATOM     27  C   UNL     1       6.000   5.976  18.064  0.00  0.00    +0.000 C 
ATOM     28  C   UNL     1       6.776   6.717  16.963  0.00  0.00    +0.000 C 
ATOM     29  C   UNL     1       7.766   7.697  17.584  0.00  0.00    +0.000 C 
ATOM     30  O   UNL     1       7.542   5.804  16.161  0.00  0.00    +0.000 OA
ENDBRANCH  20  26
ENDBRANCH   1  20
TORSDOF 4
ENDMDL
MODEL 2
REMARK VINA RESULT:      -8.8      1.017      1.402
REMARK  Name = 
REMARK  6 active torsions:
REMARK  status: ('A' for Active; 'I' for Inactive)
REMARK    1  A    between atoms: C_1  and  C_2
REMARK    2  A    between atoms: N_4  and  S_5
REMARK    3  A    between atoms: S_5  and  C_8
REMARK    4  A    between atoms: C_11  and  N_12
REMARK    5  A    between atoms: C_13  and  C_15
REMARK    6  A    between atoms: C_27  and  C_28
REMARK                            x       y       z     vdW  Elec       q    Type
REMARK                         _______ _______ _______ _____ _____    ______ ____
ROOT
ATOM      1  C   UNL     1       2.690   5.669  18.874  0.00  0.00    +0.000 A 
ATOM      2  C   UNL     1       2.225   5.636  20.192  0.00  0.00    +0.000 A 
ATOM      3  C   UNL     1       1.676   6.781  20.774  0.00  0.00    +0.000 A 
ATOM      4  C   UNL     1       1.604   7.990  20.074  0.00  0.00    +0.000 A 
ATOM      5  C   UNL     1       2.132   8.029  18.772  0.00  0.00    +0.000 A 
ATOM      6  C   UNL     1       2.677   6.874  18.171  0.00  0.00    +0.000 A 
ENDROOT
BRANCH   4   7
ATOM      7  N   UNL     1       1.044   9.168  20.628  0.00  0.00    +0.000 N 
ATOM      8  C   UNL     1      -0.085   9.253  21.441  0.00  0.00    +0.000 C 
ATOM      9  O   UNL     1      -0.795   8.298  21.753  0.00  0.00    +0.000 OA
ATOM     10  H   UNL     1       1.481  10.054  20.402  0.00  0.00    +0.000 HD
BRANCH   8  11
ATOM     11  C   UNL     1      -0.406  10.588  21.913  0.00  0.00    +0.000 A 
ATOM     12  C   UNL     1      -1.267  10.987  22.921  0.00  0.00    +0.000 A 
ATOM     13  C   UNL     1      -1.207  12.400  22.990  0.00  0.00    +0.000 A 
ATOM     14  C   UNL     1      -1.817  13.400  23.771  0.00  0.00    +0.000 A 
ATOM     15  C   UNL     1      -1.480  14.740  23.532  0.00  0.00    +0.000 A 
ATOM     16  C   UNL     1      -0.557  15.084  22.541  0.00  0.00    +0.000 A 
ATOM     17  C   UNL     1       0.060  14.103  21.756  0.00  0.00    +0.000 A 
ATOM     18  C   UNL     1      -0.296  12.781  22.010  0.00  0.00    +0.000 A 
ATOM     19  O   UNL     1       0.187  11.687  21.351  0.00  0.00    +0.000 OA
ENDBRANCH   8  11
ENDBRANCH   4   7
BRANCH   1  20
ATOM     20  S   UNL     1       3.399   4.175  18.189  0.00  0.00    +0.000 S 
ATOM     21  O   UNL     1       2.470   3.694  17.188  0.00  0.00    +0.000 OA
ATOM     22  O   UNL     1       3.801   3.334  19.297  0.00  0.00    +0.000 OA
BRANCH  20  26
ATOM     23  C   UNL     1       6.273   4.991  14.560  0.00  0.00    +0.000 C 
ATOM     24  C   UNL     1       6.720   4.244  15.816  0.00  0.00    +0.000 C 
ATOM     25  C   UNL     1       5.563   3.640  16.637  0.00  0.00    +0.000 C 
ATOM     26  N   UNL     1       4.809   4.692  17.371  0.00  0.00    +0.000 NA
ATOM     27  C   UNL     1       5.710   5.597  18.145  0.00  0.00    +0.000 C 
ATOM     28  C   UNL     1       6.861   6.132  17.277  0.00  0.00    +0.000 C 
ATOM     29  C   UNL     1       7.873   6.876  18.143  0.00  0.00    +0.000 C 
ATOM     30  O   UNL     1       7.571   5.061  16.635  0.00  0.00    +0.000 OA
ENDBRANCH  20  26
ENDBRANCH   1  20
TORSDOF 4
ENDMDL
MODEL 3
REMARK VINA RESULT:      -8.7      1.473      1.658
REMARK  Name = 
REMARK  6 active torsions:
REMARK  status: ('A' for Active; 'I' for Inactive)
REMARK    1  A    between atoms: C_1  and  C_2
REMARK    2  A    between atoms: N_4  and  S_5
REMARK    3  A    between atoms: S_5  and  C_8
REMARK    4  A    between atoms: C_11  and  N_12
REMARK    5  A    between atoms: C_13  and  C_15
REMARK    6  A    between atoms: C_27  and  C_28
REMARK                            x       y       z     vdW  Elec       q    Type
REMARK                         _______ _______ _______ _____ _____    ______ ____
ROOT
ATOM      1  C   UNL     1       2.370   5.821  19.123  0.00  0.00    +0.000 A 
ATOM      2  C   UNL     1       2.404   6.979  18.341  0.00  0.00    +0.000 A 
ATOM      3  C   UNL     1       1.981   8.200  18.870  0.00  0.00    +0.000 A 
ATOM      4  C   UNL     1       1.486   8.295  20.175  0.00  0.00    +0.000 A 
ATOM      5  C   UNL     1       1.395   7.115  20.932  0.00  0.00    +0.000 A 
ATOM      6  C   UNL     1       1.833   5.878  20.410  0.00  0.00    +0.000 A 
ENDROOT
BRANCH   4   7
ATOM      7  N   UNL     1       1.058   9.519  20.749  0.00  0.00    +0.000 N 
ATOM      8  C   UNL     1      -0.089  10.237  20.423  0.00  0.00    +0.000 C 
ATOM      9  O   UNL     1      -0.881   9.926  19.534  0.00  0.00    +0.000 OA
ATOM     10  H   UNL     1       1.649   9.944  21.456  0.00  0.00    +0.000 HD
BRANCH   8  11
ATOM     11  C   UNL     1      -0.311  11.437  21.211  0.00  0.00    +0.000 A 
ATOM     12  C   UNL     1      -1.172  11.651  22.273  0.00  0.00    +0.000 A 
ATOM     13  C   UNL     1      -0.992  12.991  22.697  0.00  0.00    +0.000 A 
ATOM     14  C   UNL     1      -1.542  13.817  23.695  0.00  0.00    +0.000 A 
ATOM     15  C   UNL     1      -1.081  15.137  23.805  0.00  0.00    +0.000 A 
ATOM     16  C   UNL     1      -0.094  15.628  22.947  0.00  0.00    +0.000 A 
ATOM     17  C   UNL     1       0.465  14.820  21.950  0.00  0.00    +0.000 A 
ATOM     18  C   UNL     1      -0.014  13.517  21.859  0.00  0.00    +0.000 A 
ATOM     19  O   UNL     1       0.396  12.581  20.953  0.00  0.00    +0.000 OA
ENDBRANCH   8  11
ENDBRANCH   4   7
BRANCH   1  20
ATOM     20  S   UNL     1       2.908   4.284  18.384  0.00  0.00    +0.000 S 
ATOM     21  O   UNL     1       1.988   3.994  17.304  0.00  0.00    +0.000 OA
ATOM     22  O   UNL     1       3.121   3.334  19.456  0.00  0.00    +0.000 OA
BRANCH  20  26
ATOM     23  C   UNL     1       6.018   5.204  14.980  0.00  0.00    +0.000 C 
ATOM     24  C   UNL     1       6.248   4.127  16.040  0.00  0.00    +0.000 C 
ATOM     25  C   UNL     1       4.959   3.631  16.726  0.00  0.00    +0.000 C 
ATOM     26  N   UNL     1       4.425   4.641  17.679  0.00  0.00    +0.000 NA
ATOM     27  C   UNL     1       5.473   5.141  18.618  0.00  0.00    +0.000 C 
ATOM     28  C   UNL     1       6.742   5.584  17.872  0.00  0.00    +0.000 C 
ATOM     29  C   UNL     1       7.859   5.887  18.865  0.00  0.00    +0.000 C 
ATOM     30  O   UNL     1       7.226   4.545  17.006  0.00  0.00    +0.000 OA
ENDBRANCH  20  26
ENDBRANCH   1  20
TORSDOF 4
ENDMDL
MODEL 4
REMARK VINA RESULT:      -8.7      0.670      1.116
REMARK  Name = 
REMARK  6 active torsions:
REMARK  status: ('A' for Active; 'I' for Inactive)
REMARK    1  A    between atoms: C_1  and  C_2
REMARK    2  A    between atoms: N_4  and  S_5
REMARK    3  A    between atoms: S_5  and  C_8
REMARK    4  A    between atoms: C_11  and  N_12
REMARK    5  A    between atoms: C_13  and  C_15
REMARK    6  A    between atoms: C_27  and  C_28
REMARK                            x       y       z     vdW  Elec       q    Type
REMARK                         _______ _______ _______ _____ _____    ______ ____
ROOT
ATOM      1  C   UNL     1       3.224   5.461  19.243  0.00  0.00    +0.000 A 
ATOM      2  C   UNL     1       2.564   5.289  20.463  0.00  0.00    +0.000 A 
ATOM      3  C   UNL     1       1.706   6.278  20.946  0.00  0.00    +0.000 A 
ATOM      4  C   UNL     1       1.507   7.473  20.247  0.00  0.00    +0.000 A 
ATOM      5  C   UNL     1       2.224   7.665  19.053  0.00  0.00    +0.000 A 
ATOM      6  C   UNL     1       3.084   6.664  18.550  0.00  0.00    +0.000 A 
ENDROOT
BRANCH   4   7
ATOM      7  N   UNL     1       0.635   8.495  20.701  0.00  0.00    +0.000 N 
ATOM      8  C   UNL     1       0.833   9.336  21.794  0.00  0.00    +0.000 C 
ATOM      9  O   UNL     1       1.791   9.270  22.562  0.00  0.00    +0.000 OA
ATOM     10  H   UNL     1      -0.241   8.627  20.206  0.00  0.00    +0.000 HD
BRANCH   8  11
ATOM     11  C   UNL     1      -0.202  10.333  22.000  0.00  0.00    +0.000 A 
ATOM     12  C   UNL     1      -0.920  10.640  23.144  0.00  0.00    +0.000 A 
ATOM     13  C   UNL     1      -1.798  11.702  22.816  0.00  0.00    +0.000 A 
ATOM     14  C   UNL     1      -2.769  12.457  23.500  0.00  0.00    +0.000 A 
ATOM     15  C   UNL     1      -3.451  13.466  22.805  0.00  0.00    +0.000 A 
ATOM     16  C   UNL     1      -3.176  13.723  21.459  0.00  0.00    +0.000 A 
ATOM     17  C   UNL     1      -2.213  12.983  20.763  0.00  0.00    +0.000 A 
ATOM     18  C   UNL     1      -1.556  11.984  21.476  0.00  0.00    +0.000 A 
ATOM     19  O   UNL     1      -0.594  11.153  20.976  0.00  0.00    +0.000 OA
ENDBRANCH   8  11
ENDBRANCH   4   7
BRANCH   1  20
ATOM     20  S   UNL     1       4.325   4.165  18.685  0.00  0.00    +0.000 S 
ATOM     21  O   UNL     1       3.511   3.207  17.966  0.00  0.00    +0.000 OA
ATOM     22  O   UNL     1       5.130   3.758  19.817  0.00  0.00    +0.000 OA
BRANCH  20  26
ATOM     23  C   UNL     1       6.085   5.251  14.463  0.00  0.00    +0.000 C 
ATOM     24  C   UNL     1       6.959   4.787  15.629  0.00  0.00    +0.000 C 
ATOM     25  C   UNL     1       6.195   4.012  16.721  0.00  0.00    +0.000 C 
ATOM     26  N   UNL     1       5.350   4.920  17.544  0.00  0.00    +0.000 NA
ATOM     27  C   UNL     1       6.112   6.104  18.042  0.00  0.00    +0.000 C 
ATOM     28  C   UNL     1       6.879   6.806  16.909  0.00  0.00    +0.000 C 
ATOM     29  C   UNL     1       7.806   7.873  17.482  0.00  0.00    +0.000 C 
ATOM     30  O   UNL     1       7.706   5.880  16.188  0.00  0.00    +0.000 OA
ENDBRANCH  20  26
ENDBRANCH   1  20
TORSDOF 4
ENDMDL
MODEL 5
REMARK VINA RESULT:      -8.6      0.584      1.441
REMARK  Name = 
REMARK  6 active torsions:
REMARK  status: ('A' for Active; 'I' for Inactive)
REMARK    1  A    between atoms: C_1  and  C_2
REMARK    2  A    between atoms: N_4  and  S_5
REMARK    3  A    between atoms: S_5  and  C_8
REMARK    4  A    between atoms: C_11  and  N_12
REMARK    5  A    between atoms: C_13  and  C_15
REMARK    6  A    between atoms: C_27  and  C_28
REMARK                            x       y       z     vdW  Elec       q    Type
REMARK                         _______ _______ _______ _____ _____    ______ ____
ROOT
ATOM      1  C   UNL     1       2.874   5.566  19.166  0.00  0.00    +0.000 A 
ATOM      2  C   UNL     1       2.188   5.443  20.377  0.00  0.00    +0.000 A 
ATOM      3  C   UNL     1       1.452   6.516  20.883  0.00  0.00    +0.000 A 
ATOM      4  C   UNL     1       1.404   7.744  20.216  0.00  0.00    +0.000 A 
ATOM      5  C   UNL     1       2.149   7.879  19.031  0.00  0.00    +0.000 A 
ATOM      6  C   UNL     1       2.886   6.795  18.505  0.00  0.00    +0.000 A 
ENDROOT
BRANCH   4   7
ATOM      7  N   UNL     1       0.658   8.852  20.693  0.00  0.00    +0.000 N 
ATOM      8  C   UNL     1       0.904   9.585  21.852  0.00  0.00    +0.000 C 
ATOM      9  O   UNL     1       1.792   9.332  22.665  0.00  0.00    +0.000 OA
ATOM     10  H   UNL     1      -0.156   9.140  20.162  0.00  0.00    +0.000 HD
BRANCH   8  11
ATOM     11  C   UNL     1       0.009  10.707  22.072  0.00  0.00    +0.000 A 
ATOM     12  C   UNL     1       0.042  11.984  21.537  0.00  0.00    +0.000 A 
ATOM     13  C   UNL     1      -1.067  12.689  22.064  0.00  0.00    +0.000 A 
ATOM     14  C   UNL     1      -1.594  13.988  21.931  0.00  0.00    +0.000 A 
ATOM     15  C   UNL     1      -2.757  14.319  22.640  0.00  0.00    +0.000 A 
ATOM     16  C   UNL     1      -3.389  13.382  23.462  0.00  0.00    +0.000 A 
ATOM     17  C   UNL     1      -2.880  12.086  23.606  0.00  0.00    +0.000 A 
ATOM     18  C   UNL     1      -1.721  11.786  22.896  0.00  0.00    +0.000 A 
ATOM     19  O   UNL     1      -1.069  10.586  22.908  0.00  0.00    +0.000 OA
ENDBRANCH   8  11
ENDBRANCH   4   7
BRANCH   1  20
ATOM     20  S   UNL     1       3.814   4.162  18.577  0.00  0.00    +0.000 S 
ATOM     21  O   UNL     1       2.912   3.361  17.776  0.00  0.00    +0.000 OA
ATOM     22  O   UNL     1       4.506   3.592  19.715  0.00  0.00    +0.000 OA
BRANCH  20  26
ATOM     23  C   UNL     1       5.941   5.134  14.499  0.00  0.00    +0.000 C 
ATOM     24  C   UNL     1       6.687   4.561  15.704  0.00  0.00    +0.000 C 
ATOM     25  C   UNL     1       5.780   3.850  16.729  0.00  0.00    +0.000 C 
ATOM     26  N   UNL     1       4.982   4.826  17.520  0.00  0.00    +0.000 NA
ATOM     27  C   UNL     1       5.829   5.915  18.093  0.00  0.00    +0.000 C 
ATOM     28  C   UNL     1       6.733   6.554  17.026  0.00  0.00    +0.000 C 
ATOM     29  C   UNL     1       7.727   7.508  17.680  0.00  0.00    +0.000 C 
ATOM     30  O   UNL     1       7.505   5.559  16.334  0.00  0.00    +0.000 OA
ENDBRANCH  20  26
ENDBRANCH   1  20
TORSDOF 4
ENDMDL
MODEL 6
REMARK VINA RESULT:      -8.4      2.418      3.232
REMARK  Name = 
REMARK  6 active torsions:
REMARK  status: ('A' for Active; 'I' for Inactive)
REMARK    1  A    between atoms: C_1  and  C_2
REMARK    2  A    between atoms: N_4  and  S_5
REMARK    3  A    between atoms: S_5  and  C_8
REMARK    4  A    between atoms: C_11  and  N_12
REMARK    5  A    between atoms: C_13  and  C_15
REMARK    6  A    between atoms: C_27  and  C_28
REMARK                            x       y       z     vdW  Elec       q    Type
REMARK                         _______ _______ _______ _____ _____    ______ ____
ROOT
ATOM      1  C   UNL     1       2.301   6.705  18.976  0.00  0.00    +0.000 A 
ATOM      2  C   UNL     1       1.854   7.215  20.198  0.00  0.00    +0.000 A 
ATOM      3  C   UNL     1       1.414   8.537  20.291  0.00  0.00    +0.000 A 
ATOM      4  C   UNL     1       1.437   9.391  19.184  0.00  0.00    +0.000 A 
ATOM      5  C   UNL     1       1.948   8.888  17.975  0.00  0.00    +0.000 A 
ATOM      6  C   UNL     1       2.383   7.549  17.868  0.00  0.00    +0.000 A 
ENDROOT
BRANCH   4   7
ATOM      7  N   UNL     1       0.988  10.735  19.238  0.00  0.00    +0.000 N 
ATOM      8  C   UNL     1      -0.325  11.181  19.106  0.00  0.00    +0.000 C 
ATOM      9  O   UNL     1      -1.290  10.457  18.868  0.00  0.00    +0.000 OA
ATOM     10  H   UNL     1       1.683  11.463  19.361  0.00  0.00    +0.000 HD
BRANCH   8  11
ATOM     11  C   UNL     1      -0.507  12.614  19.257  0.00  0.00    +0.000 A 
ATOM     12  C   UNL     1       0.009  13.656  18.505  0.00  0.00    +0.000 A 
ATOM     13  C   UNL     1      -0.486  14.861  19.062  0.00  0.00    +0.000 A 
ATOM     14  C   UNL     1      -0.348  16.233  18.782  0.00  0.00    +0.000 A 
ATOM     15  C   UNL     1      -1.027  17.156  19.590  0.00  0.00    +0.000 A 
ATOM     16  C   UNL     1      -1.827  16.730  20.653  0.00  0.00    +0.000 A 
ATOM     17  C   UNL     1      -1.977  15.369  20.945  0.00  0.00    +0.000 A 
ATOM     18  C   UNL     1      -1.288  14.474  20.130  0.00  0.00    +0.000 A 
ATOM     19  O   UNL     1      -1.298  13.114  20.257  0.00  0.00    +0.000 OA
ENDBRANCH   8  11
ENDBRANCH   4   7
BRANCH   1  20
ATOM     20  S   UNL     1       2.869   5.008  18.923  0.00  0.00    +0.000 S 
ATOM     21  O   UNL     1       1.961   4.291  18.053  0.00  0.00    +0.000 OA
ATOM     22  O   UNL     1       3.088   4.578  20.288  0.00  0.00    +0.000 OA
BRANCH  20  26
ATOM     23  C   UNL     1       5.905   5.294  15.345  0.00  0.00    +0.000 C 
ATOM     24  C   UNL     1       5.996   4.213  16.422  0.00  0.00    +0.000 C 
ATOM     25  C   UNL     1       4.679   3.968  17.185  0.00  0.00    +0.000 C 
ATOM     26  N   UNL     1       4.385   5.076  18.134  0.00  0.00    +0.000 NA
ATOM     27  C   UNL     1       5.554   5.398  19.006  0.00  0.00    +0.000 C 
ATOM     28  C   UNL     1       6.839   5.592  18.186  0.00  0.00    +0.000 C 
ATOM     29  C   UNL     1       8.045   5.709  19.114  0.00  0.00    +0.000 C 
ATOM     30  O   UNL     1       7.084   4.467  17.326  0.00  0.00    +0.000 OA
ENDBRANCH  20  26
ENDBRANCH   1  20
TORSDOF 4
ENDMDL
MODEL 7
REMARK VINA RESULT:      -8.4      2.199      2.864
REMARK  Name = 
REMARK  6 active torsions:
REMARK  status: ('A' for Active; 'I' for Inactive)
REMARK    1  A    between atoms: C_1  and  C_2
REMARK    2  A    between atoms: N_4  and  S_5
REMARK    3  A    between atoms: S_5  and  C_8
REMARK    4  A    between atoms: C_11  and  N_12
REMARK    5  A    between atoms: C_13  and  C_15
REMARK    6  A    between atoms: C_27  and  C_28
REMARK                            x       y       z     vdW  Elec       q    Type
REMARK                         _______ _______ _______ _____ _____    ______ ____
ROOT
ATOM      1  C   UNL     1       2.533   6.636  18.631  0.00  0.00    +0.000 A 
ATOM      2  C   UNL     1       2.157   7.033  19.917  0.00  0.00    +0.000 A 
ATOM      3  C   UNL     1       1.624   8.305  20.135  0.00  0.00    +0.000 A 
ATOM      4  C   UNL     1       1.482   9.223  19.089  0.00  0.00    +0.000 A 
ATOM      5  C   UNL     1       1.922   8.838  17.811  0.00  0.00    +0.000 A 
ATOM      6  C   UNL     1       2.449   7.549  17.579  0.00  0.00    +0.000 A 
ENDROOT
BRANCH   4   7
ATOM      7  N   UNL     1       0.936  10.519  19.271  0.00  0.00    +0.000 N 
ATOM      8  C   UNL     1      -0.384  10.905  19.051  0.00  0.00    +0.000 C 
ATOM      9  O   UNL     1      -1.265  10.169  18.610  0.00  0.00    +0.000 OA
ATOM     10  H   UNL     1       1.560  11.260  19.568  0.00  0.00    +0.000 HD
BRANCH   8  11
ATOM     11  C   UNL     1      -0.682  12.290  19.370  0.00  0.00    +0.000 A 
ATOM     12  C   UNL     1      -1.494  12.816  20.362  0.00  0.00    +0.000 A 
ATOM     13  C   UNL     1      -1.430  14.226  20.253  0.00  0.00    +0.000 A 
ATOM     14  C   UNL     1      -2.001  15.318  20.934  0.00  0.00    +0.000 A 
ATOM     15  C   UNL     1      -1.677  16.616  20.515  0.00  0.00    +0.000 A 
ATOM     16  C   UNL     1      -0.803  16.830  19.446  0.00  0.00    +0.000 A 
ATOM     17  C   UNL     1      -0.225  15.757  18.759  0.00  0.00    +0.000 A 
ATOM     18  C   UNL     1      -0.568  14.479  19.191  0.00  0.00    +0.000 A 
ATOM     19  O   UNL     1      -0.118  13.309  18.649  0.00  0.00    +0.000 OA
ENDBRANCH   8  11
ENDBRANCH   4   7
BRANCH   1  20
ATOM     20  S   UNL     1       3.225   5.000  18.418  0.00  0.00    +0.000 S 
ATOM     21  O   UNL     1       2.297   4.259  17.588  0.00  0.00    +0.000 OA
ATOM     22  O   UNL     1       3.605   4.512  19.727  0.00  0.00    +0.000 OA
BRANCH  20  26
ATOM     23  C   UNL     1       6.083   4.829  14.690  0.00  0.00    +0.000 C 
ATOM     24  C   UNL     1       6.506   4.349  16.078  0.00  0.00    +0.000 C 
ATOM     25  C   UNL     1       5.329   4.009  17.015  0.00  0.00    +0.000 C 
ATOM     26  N   UNL     1       4.649   5.240  17.503  0.00  0.00    +0.000 NA
ATOM     27  C   UNL     1       5.613   6.237  18.056  0.00  0.00    +0.000 C 
ATOM     28  C   UNL     1       6.779   6.499  17.089  0.00  0.00    +0.000 C 
ATOM     29  C   UNL     1       7.845   7.353  17.768  0.00  0.00    +0.000 C 
ATOM     30  O   UNL     1       7.416   5.273  16.696  0.00  0.00    +0.000 OA
ENDBRANCH  20  26
ENDBRANCH   1  20
TORSDOF 4
ENDMDL
MODEL 8
REMARK VINA RESULT:      -8.3      1.237      1.651
REMARK  Name = 
REMARK  6 active torsions:
REMARK  status: ('A' for Active; 'I' for Inactive)
REMARK    1  A    between atoms: C_1  and  C_2
REMARK    2  A    between atoms: N_4  and  S_5
REMARK    3  A    between atoms: S_5  and  C_8
REMARK    4  A    between atoms: C_11  and  N_12
REMARK    5  A    between atoms: C_13  and  C_15
REMARK    6  A    between atoms: C_27  and  C_28
REMARK                            x       y       z     vdW  Elec       q    Type
REMARK                         _______ _______ _______ _____ _____    ______ ____
ROOT
ATOM      1  C   UNL     1       2.711   5.667  18.923  0.00  0.00    +0.000 A 
ATOM      2  C   UNL     1       2.687   6.854  18.188  0.00  0.00    +0.000 A 
ATOM      3  C   UNL     1       2.170   8.022  18.751  0.00  0.00    +0.000 A 
ATOM      4  C   UNL     1       1.636   8.032  20.044  0.00  0.00    +0.000 A 
ATOM      5  C   UNL     1       1.605   6.818  20.752  0.00  0.00    +0.000 A 
ATOM      6  C   UNL     1       2.139   5.635  20.196  0.00  0.00    +0.000 A 
ENDROOT
BRANCH   4   7
ATOM      7  N   UNL     1       1.111   9.201  20.652  0.00  0.00    +0.000 N 
ATOM      8  C   UNL     1       0.477  10.262  20.011  0.00  0.00    +0.000 C 
ATOM      9  O   UNL     1       0.328  10.355  18.794  0.00  0.00    +0.000 OA
ATOM     10  H   UNL     1       1.221   9.304  21.655  0.00  0.00    +0.000 HD
BRANCH   8  11
ATOM     11  C   UNL     1      -0.010  11.310  20.889  0.00  0.00    +0.000 A 
ATOM     12  C   UNL     1       0.481  12.588  21.100  0.00  0.00    +0.000 A 
ATOM     13  C   UNL     1      -0.369  13.213  22.046  0.00  0.00    +0.000 A 
ATOM     14  C   UNL     1      -0.426  14.472  22.674  0.00  0.00    +0.000 A 
ATOM     15  C   UNL     1      -1.463  14.723  23.584  0.00  0.00    +0.000 A 
ATOM     16  C   UNL     1      -2.425  13.749  23.864  0.00  0.00    +0.000 A 
ATOM     17  C   UNL     1      -2.385  12.493  23.248  0.00  0.00    +0.000 A 
ATOM     18  C   UNL     1      -1.341  12.268  22.354  0.00  0.00    +0.000 A 
ATOM     19  O   UNL     1      -1.125  11.112  21.660  0.00  0.00    +0.000 OA
ENDBRANCH   8  11
ENDBRANCH   4   7
BRANCH   1  20
ATOM     20  S   UNL     1       3.371   4.199  18.141  0.00  0.00    +0.000 S 
ATOM     21  O   UNL     1       2.430   3.816  17.110  0.00  0.00    +0.000 OA
ATOM     22  O   UNL     1       3.743   3.274  19.191  0.00  0.00    +0.000 OA
BRANCH  20  26
ATOM     23  C   UNL     1       6.302   5.101  14.578  0.00  0.00    +0.000 C 
ATOM     24  C   UNL     1       6.721   4.298  15.810  0.00  0.00    +0.000 C 
ATOM     25  C   UNL     1       5.544   3.684  16.594  0.00  0.00    +0.000 C 
ATOM     26  N   UNL     1       4.800   4.721  17.360  0.00  0.00    +0.000 NA
ATOM     27  C   UNL     1       5.708   5.580  18.178  0.00  0.00    +0.000 C 
ATOM     28  C   UNL     1       6.878   6.127  17.344  0.00  0.00    +0.000 C 
ATOM     29  C   UNL     1       7.892   6.819  18.249  0.00  0.00    +0.000 C 
ATOM     30  O   UNL     1       7.577   5.068  16.669  0.00  0.00    +0.000 OA
ENDBRANCH  20  26
ENDBRANCH   1  20
TORSDOF 4
ENDMDL
MODEL 9
REMARK VINA RESULT:      -8.3      2.452      3.070
REMARK  Name = 
REMARK  6 active torsions:
REMARK  status: ('A' for Active; 'I' for Inactive)
REMARK    1  A    between atoms: C_1  and  C_2
REMARK    2  A    between atoms: N_4  and  S_5
REMARK    3  A    between atoms: S_5  and  C_8
REMARK    4  A    between atoms: C_11  and  N_12
REMARK    5  A    between atoms: C_13  and  C_15
REMARK    6  A    between atoms: C_27  and  C_28
REMARK                            x       y       z     vdW  Elec       q    Type
REMARK                         _______ _______ _______ _____ _____    ______ ____
ROOT
ATOM      1  C   UNL     1       2.275   6.722  19.250  0.00  0.00    +0.000 A 
ATOM      2  C   UNL     1       2.318   7.530  18.111  0.00  0.00    +0.000 A 
ATOM      3  C   UNL     1       1.874   8.852  18.167  0.00  0.00    +0.000 A 
ATOM      4  C   UNL     1       1.348   9.394  19.344  0.00  0.00    +0.000 A 
ATOM      5  C   UNL     1       1.249   8.555  20.468  0.00  0.00    +0.000 A 
ATOM      6  C   UNL     1       1.708   7.220  20.424  0.00  0.00    +0.000 A 
ENDROOT
BRANCH   4   7
ATOM      7  N   UNL     1       0.898  10.735  19.442  0.00  0.00    +0.000 N 
ATOM      8  C   UNL     1      -0.330  11.235  19.015  0.00  0.00    +0.000 C 
ATOM      9  O   UNL     1      -1.191  10.576  18.435  0.00  0.00    +0.000 OA
ATOM     10  H   UNL     1       1.531  11.421  19.838  0.00  0.00    +0.000 HD
BRANCH   8  11
ATOM     11  C   UNL     1      -0.550  12.644  19.288  0.00  0.00    +0.000 A 
ATOM     12  C   UNL     1      -1.265  13.247  20.310  0.00  0.00    +0.000 A 
ATOM     13  C   UNL     1      -1.155  14.647  20.130  0.00  0.00    +0.000 A 
ATOM     14  C   UNL     1      -1.632  15.791  20.798  0.00  0.00    +0.000 A 
ATOM     15  C   UNL     1      -1.290  17.055  20.295  0.00  0.00    +0.000 A 
ATOM     16  C   UNL     1      -0.490  17.184  19.157  0.00  0.00    +0.000 A 
ATOM     17  C   UNL     1      -0.005  16.058  18.482  0.00  0.00    +0.000 A 
ATOM     18  C   UNL     1      -0.365  14.816  18.998  0.00  0.00    +0.000 A 
ATOM     19  O   UNL     1      -0.001  13.605  18.481  0.00  0.00    +0.000 OA
ENDBRANCH   8  11
ENDBRANCH   4   7
BRANCH   1  20
ATOM     20  S   UNL     1       2.842   5.030  19.111  0.00  0.00    +0.000 S 
ATOM     21  O   UNL     1       1.904   4.345  18.246  0.00  0.00    +0.000 OA
ATOM     22  O   UNL     1       3.110   4.548  20.450  0.00  0.00    +0.000 OA
BRANCH  20  26
ATOM     23  C   UNL     1       5.750   5.456  15.442  0.00  0.00    +0.000 C 
ATOM     24  C   UNL     1       5.882   4.338  16.476  0.00  0.00    +0.000 C 
ATOM     25  C   UNL     1       4.592   4.060  17.275  0.00  0.00    +0.000 C 
ATOM     26  N   UNL     1       4.329   5.132  18.273  0.00  0.00    +0.000 NA
ATOM     27  C   UNL     1       5.527   5.428  19.115  0.00  0.00    +0.000 C 
ATOM     28  C   UNL     1       6.782   5.656  18.257  0.00  0.00    +0.000 C 
ATOM     29  C   UNL     1       8.019   5.745  19.146  0.00  0.00    +0.000 C 
ATOM     30  O   UNL     1       7.000   4.564  17.349  0.00  0.00    +0.000 OA
ENDBRANCH  20  26
ENDBRANCH   1  20
TORSDOF 4
ENDMDL
