MODEL 1
REMARK VINA RESULT:      -8.7      0.000      0.000
REMARK  Name = 
REMARK  4 active torsions:
REMARK  status: ('A' for Active; 'I' for Inactive)
REMARK    1  A    between atoms: C_2  and  C_16
REMARK    2  A    between atoms: N_3  and  C_4
REMARK    3  A    between atoms: C_4  and  C_5
REMARK    4  A    between atoms: C_21  and  O_22
REMARK                            x       y       z     vdW  Elec       q    Type
REMARK                         _______ _______ _______ _____ _____    ______ ____
ROOT
ATOM      1  O   UNL     1       4.301   7.078  16.641  0.00  0.00    +0.000 OA
ATOM      2  C   UNL     1       3.932   6.283  17.525  0.00  0.00    +0.000 C 
ATOM      3  N   UNL     1       4.810   5.422  18.156  0.00  0.00    +0.000 N 
ATOM      4  H   UNL     1       4.461   4.751  18.825  0.00  0.00    +0.000 HD
ENDROOT
BRANCH   2   5
ATOM      5  C   UNL     1       2.447   6.227  17.946  0.00  0.00    +0.000 C 
ATOM      6  C   UNL     1       2.047   7.342  18.926  0.00  0.00    +0.000 C 
ATOM      7  C   UNL     1       2.402   6.976  20.359  0.00  0.00    +0.000 C 
ATOM      8  C   UNL     1       1.647   5.724  20.799  0.00  0.00    +0.000 C 
ATOM      9  C   UNL     1       1.697   4.598  19.793  0.00  0.00    +0.000 A 
ATOM     10  C   UNL     1       1.384   3.279  20.171  0.00  0.00    +0.000 A 
ATOM     11  C   UNL     1       1.461   2.227  19.265  0.00  0.00    +0.000 A 
ATOM     12  C   UNL     1       1.818   2.475  17.945  0.00  0.00    +0.000 A 
ATOM     13  C   UNL     1       2.082   3.776  17.533  0.00  0.00    +0.000 A 
ATOM     14  C   UNL     1       2.037   4.846  18.443  0.00  0.00    +0.000 A 
BRANCH  10  15
ATOM     15  O   UNL     1       1.007   2.933  21.438  0.00  0.00    +0.000 OA
ATOM     16  H   UNL     1       0.671   3.710  21.909  0.00  0.00    +0.000 HD
ENDBRANCH  10  15
ENDBRANCH   2   5
BRANCH   3  17
ATOM     17  C   UNL     1       6.237   5.435  17.891  0.00  0.00    +0.000 C 
ATOM     18  C   UNL     1       7.211   5.254  19.043  0.00  0.00    +0.000 C 
ATOM     19  C   UNL     1       7.068   6.595  18.400  0.00  0.00    +0.000 C 
BRANCH  17  20
ATOM     20  C   UNL     1       6.557   4.772  16.556  0.00  0.00    +0.000 A 
ATOM     21  C   UNL     1       5.731   3.718  16.084  0.00  0.00    +0.000 A 
ATOM     22  C   UNL     1       5.692   3.358  14.734  0.00  0.00    +0.000 A 
ATOM     23  C   UNL     1       6.519   4.043  13.877  0.00  0.00    +0.000 A 
ATOM     24  C   UNL     1       7.411   4.983  14.329  0.00  0.00    +0.000 A 
ATOM     25  C   UNL     1       7.476   5.347  15.660  0.00  0.00    +0.000 A 
ATOM     26  O   UNL     1       8.096   5.580  13.316  0.00  0.00    +0.000 OA
ATOM     27  C   UNL     1       7.505   4.925  12.173  0.00  0.00    +0.000 C 
ATOM     28  O   UNL     1       6.510   3.944  12.521  0.00  0.00    +0.000 OA
ENDBRANCH  17  20
ENDBRANCH   3  17
TORSDOF 4
ENDMDL
MODEL 2
REMARK VINA RESULT:      -7.6      0.914      1.513
REMARK  Name = 
REMARK  4 active torsions:
REMARK  status: ('A' for Active; 'I' for Inactive)
REMARK    1  A    between atoms: C_2  and  C_16
REMARK    2  A    between atoms: N_3  and  C_4
REMARK    3  A    between atoms: C_4  and  C_5
REMARK    4  A    between atoms: C_21  and  O_22
REMARK                            x       y       z     vdW  Elec       q    Type
REMARK                         _______ _______ _______ _____ _____    ______ ____
ROOT
ATOM      1  O   UNL     1       4.163   7.330  16.873  0.00  0.00    +0.000 OA
ATOM      2  C   UNL     1       3.825   6.250  17.390  0.00  0.00    +0.000 C 
ATOM      3  N   UNL     1       4.688   5.175  17.488  0.00  0.00    +0.000 N 
ATOM      4  H   UNL     1       4.357   4.297  17.861  0.00  0.00    +0.000 HD
ENDROOT
BRANCH   2   5
ATOM      5  C   UNL     1       2.394   6.071  17.945  0.00  0.00    +0.000 C 
ATOM      6  C   UNL     1       2.005   7.130  18.988  0.00  0.00    +0.000 C 
ATOM      7  C   UNL     1       2.518   6.762  20.372  0.00  0.00    +0.000 C 
ATOM      8  C   UNL     1       1.903   5.446  20.843  0.00  0.00    +0.000 C 
ATOM      9  C   UNL     1       1.943   4.350  19.805  0.00  0.00    +0.000 A 
ATOM     10  C   UNL     1       1.766   3.002  20.171  0.00  0.00    +0.000 A 
ATOM     11  C   UNL     1       1.836   1.979  19.233  0.00  0.00    +0.000 A 
ATOM     12  C   UNL     1       2.049   2.282  17.892  0.00  0.00    +0.000 A 
ATOM     13  C   UNL     1       2.175   3.608  17.496  0.00  0.00    +0.000 A 
ATOM     14  C   UNL     1       2.136   4.652  18.437  0.00  0.00    +0.000 A 
BRANCH  10  15
ATOM     15  O   UNL     1       1.536   2.601  21.457  0.00  0.00    +0.000 OA
ATOM     16  H   UNL     1       0.702   2.976  21.779  0.00  0.00    +0.000 HD
ENDBRANCH  10  15
ENDBRANCH   2   5
BRANCH   3  17
ATOM     17  C   UNL     1       6.074   5.251  17.065  0.00  0.00    +0.000 C 
ATOM     18  C   UNL     1       7.155   4.637  17.939  0.00  0.00    +0.000 C 
ATOM     19  C   UNL     1       7.034   6.124  17.848  0.00  0.00    +0.000 C 
BRANCH  17  20
ATOM     20  C   UNL     1       6.199   5.118  15.552  0.00  0.00    +0.000 A 
ATOM     21  C   UNL     1       7.431   5.437  14.921  0.00  0.00    +0.000 A 
ATOM     22  C   UNL     1       7.756   4.956  13.651  0.00  0.00    +0.000 A 
ATOM     23  C   UNL     1       6.816   4.186  13.010  0.00  0.00    +0.000 A 
ATOM     24  C   UNL     1       5.573   3.964  13.550  0.00  0.00    +0.000 A 
ATOM     25  C   UNL     1       5.224   4.439  14.798  0.00  0.00    +0.000 A 
ATOM     26  O   UNL     1       4.814   3.135  12.783  0.00  0.00    +0.000 OA
ATOM     27  C   UNL     1       5.739   2.838  11.715  0.00  0.00    +0.000 C 
ATOM     28  O   UNL     1       7.007   3.507  11.848  0.00  0.00    +0.000 OA
ENDBRANCH  17  20
ENDBRANCH   3  17
TORSDOF 4
ENDMDL
MODEL 3
REMARK VINA RESULT:      -7.3      2.274      7.216
REMARK  Name = 
REMARK  4 active torsions:
REMARK  status: ('A' for Active; 'I' for Inactive)
REMARK    1  A    between atoms: C_2  and  C_16
REMARK    2  A    between atoms: N_3  and  C_4
REMARK    3  A    between atoms: C_4  and  C_5
REMARK    4  A    between atoms: C_21  and  O_22
REMARK                            x       y       z     vdW  Elec       q    Type
REMARK                         _______ _______ _______ _____ _____    ______ ____
ROOT
ATOM      1  O   UNL     1       3.411   4.703  17.317  0.00  0.00    +0.000 OA
ATOM      2  C   UNL     1       4.233   4.837  18.241  0.00  0.00    +0.000 C 
ATOM      3  N   UNL     1       3.881   5.351  19.475  0.00  0.00    +0.000 N 
ATOM      4  H   UNL     1       4.590   5.500  20.178  0.00  0.00    +0.000 HD
ENDROOT
BRANCH   2   5
ATOM      5  C   UNL     1       5.709   4.433  18.029  0.00  0.00    +0.000 C 
ATOM      6  C   UNL     1       6.701   5.306  18.814  0.00  0.00    +0.000 C 
ATOM      7  C   UNL     1       7.014   6.596  18.072  0.00  0.00    +0.000 C 
ATOM      8  C   UNL     1       7.673   6.299  16.727  0.00  0.00    +0.000 C 
ATOM      9  C   UNL     1       6.969   5.226  15.929  0.00  0.00    +0.000 A 
ATOM     10  C   UNL     1       7.205   5.082  14.548  0.00  0.00    +0.000 A 
ATOM     11  C   UNL     1       6.537   4.124  13.794  0.00  0.00    +0.000 A 
ATOM     12  C   UNL     1       5.643   3.257  14.411  0.00  0.00    +0.000 A 
ATOM     13  C   UNL     1       5.431   3.343  15.781  0.00  0.00    +0.000 A 
ATOM     14  C   UNL     1       6.075   4.326  16.553  0.00  0.00    +0.000 A 
BRANCH  10  15
ATOM     15  O   UNL     1       8.075   5.873  13.852  0.00  0.00    +0.000 OA
ATOM     16  H   UNL     1       7.712   6.077  12.977  0.00  0.00    +0.000 HD
ENDBRANCH  10  15
ENDBRANCH   2   5
BRANCH   3  17
ATOM     17  C   UNL     1       2.512   5.699  19.809  0.00  0.00    +0.000 C 
ATOM     18  C   UNL     1       1.832   5.006  20.979  0.00  0.00    +0.000 C 
ATOM     19  C   UNL     1       1.419   4.675  19.582  0.00  0.00    +0.000 C 
BRANCH  17  20
ATOM     20  C   UNL     1       2.249   7.183  19.589  0.00  0.00    +0.000 A 
ATOM     21  C   UNL     1       2.388   7.732  18.286  0.00  0.00    +0.000 A 
ATOM     22  C   UNL     1       1.778   8.935  17.922  0.00  0.00    +0.000 A 
ATOM     23  C   UNL     1       1.062   9.595  18.891  0.00  0.00    +0.000 A 
ATOM     24  C   UNL     1       1.013   9.145  20.187  0.00  0.00    +0.000 A 
ATOM     25  C   UNL     1       1.618   7.965  20.574  0.00  0.00    +0.000 A 
ATOM     26  O   UNL     1       0.209   9.911  20.974  0.00  0.00    +0.000 OA
ATOM     27  C   UNL     1      -0.264  10.877  20.010  0.00  0.00    +0.000 C 
ATOM     28  O   UNL     1       0.279  10.687  18.690  0.00  0.00    +0.000 OA
ENDBRANCH  17  20
ENDBRANCH   3  17
TORSDOF 4
ENDMDL
MODEL 4
REMARK VINA RESULT:      -7.1      0.990      1.047
REMARK  Name = 
REMARK  4 active torsions:
REMARK  status: ('A' for Active; 'I' for Inactive)
REMARK    1  A    between atoms: C_2  and  C_16
REMARK    2  A    between atoms: N_3  and  C_4
REMARK    3  A    between atoms: C_4  and  C_5
REMARK    4  A    between atoms: C_21  and  O_22
REMARK                            x       y       z     vdW  Elec       q    Type
REMARK                         _______ _______ _______ _____ _____    ______ ____
ROOT
ATOM      1  O   UNL     1       5.074   5.230  19.101  0.00  0.00    +0.000 OA
ATOM      2  C   UNL     1       4.436   5.917  18.283  0.00  0.00    +0.000 C 
ATOM      3  N   UNL     1       5.054   6.607  17.257  0.00  0.00    +0.000 N 
ATOM      4  H   UNL     1       4.508   7.201  16.651  0.00  0.00    +0.000 HD
ENDROOT
BRANCH   2   5
ATOM      5  C   UNL     1       2.900   6.029  18.397  0.00  0.00    +0.000 C 
ATOM      6  C   UNL     1       2.436   7.099  19.399  0.00  0.00    +0.000 C 
ATOM      7  C   UNL     1       2.439   6.564  20.823  0.00  0.00    +0.000 C 
ATOM      8  C   UNL     1       1.468   5.394  20.962  0.00  0.00    +0.000 C 
ATOM      9  C   UNL     1       1.595   4.364  19.864  0.00  0.00    +0.000 A 
ATOM     10  C   UNL     1       1.058   3.072  20.021  0.00  0.00    +0.000 A 
ATOM     11  C   UNL     1       1.199   2.102  19.035  0.00  0.00    +0.000 A 
ATOM     12  C   UNL     1       1.850   2.414  17.847  0.00  0.00    +0.000 A 
ATOM     13  C   UNL     1       2.344   3.696  17.645  0.00  0.00    +0.000 A 
ATOM     14  C   UNL     1       2.236   4.679  18.644  0.00  0.00    +0.000 A 
BRANCH  10  15
ATOM     15  O   UNL     1       0.387   2.672  21.142  0.00  0.00    +0.000 OA
ATOM     16  H   UNL     1      -0.287   3.328  21.378  0.00  0.00    +0.000 HD
ENDBRANCH  10  15
ENDBRANCH   2   5
BRANCH   3  17
ATOM     17  C   UNL     1       6.482   6.520  17.012  0.00  0.00    +0.000 C 
ATOM     18  C   UNL     1       7.447   6.647  18.179  0.00  0.00    +0.000 C 
ATOM     19  C   UNL     1       7.334   7.760  17.189  0.00  0.00    +0.000 C 
BRANCH  17  20
ATOM     20  C   UNL     1       6.794   5.509  15.915  0.00  0.00    +0.000 A 
ATOM     21  C   UNL     1       6.096   4.272  15.886  0.00  0.00    +0.000 A 
ATOM     22  C   UNL     1       6.009   3.500  14.725  0.00  0.00    +0.000 A 
ATOM     23  C   UNL     1       6.661   3.967  13.610  0.00  0.00    +0.000 A 
ATOM     24  C   UNL     1       7.439   5.097  13.647  0.00  0.00    +0.000 A 
ATOM     25  C   UNL     1       7.551   5.870  14.785  0.00  0.00    +0.000 A 
ATOM     26  O   UNL     1       7.953   5.416  12.427  0.00  0.00    +0.000 OA
ATOM     27  C   UNL     1       7.379   4.368  11.614  0.00  0.00    +0.000 C 
ATOM     28  O   UNL     1       6.566   3.442  12.359  0.00  0.00    +0.000 OA
ENDBRANCH  17  20
ENDBRANCH   3  17
TORSDOF 4
ENDMDL
MODEL 5
REMARK VINA RESULT:      -7.0      3.724      7.840
REMARK  Name = 
REMARK  4 active torsions:
REMARK  status: ('A' for Active; 'I' for Inactive)
REMARK    1  A    between atoms: C_2  and  C_16
REMARK    2  A    between atoms: N_3  and  C_4
REMARK    3  A    between atoms: C_4  and  C_5
REMARK    4  A    between atoms: C_21  and  O_22
REMARK                            x       y       z     vdW  Elec       q    Type
REMARK                         _______ _______ _______ _____ _____    ______ ____
ROOT
ATOM      1  O   UNL     1       3.623   7.676  17.557  0.00  0.00    +0.000 OA
ATOM      2  C   UNL     1       3.259   7.134  18.615  0.00  0.00    +0.000 C 
ATOM      3  N   UNL     1       2.230   7.638  19.388  0.00  0.00    +0.000 N 
ATOM      4  H   UNL     1       2.005   7.203  20.271  0.00  0.00    +0.000 HD
ENDROOT
BRANCH   2   5
ATOM      5  C   UNL     1       3.969   5.856  19.115  0.00  0.00    +0.000 C 
ATOM      6  C   UNL     1       5.089   5.372  18.180  0.00  0.00    +0.000 C 
ATOM      7  C   UNL     1       4.535   4.540  17.034  0.00  0.00    +0.000 C 
ATOM      8  C   UNL     1       3.845   3.285  17.563  0.00  0.00    +0.000 C 
ATOM      9  C   UNL     1       2.899   3.550  18.711  0.00  0.00    +0.000 A 
ATOM     10  C   UNL     1       1.922   2.603  19.075  0.00  0.00    +0.000 A 
ATOM     11  C   UNL     1       1.021   2.848  20.105  0.00  0.00    +0.000 A 
ATOM     12  C   UNL     1       1.099   4.035  20.825  0.00  0.00    +0.000 A 
ATOM     13  C   UNL     1       2.087   4.964  20.521  0.00  0.00    +0.000 A 
ATOM     14  C   UNL     1       2.986   4.744  19.463  0.00  0.00    +0.000 A 
BRANCH  10  15
ATOM     15  O   UNL     1       1.774   1.401  18.442  0.00  0.00    +0.000 OA
ATOM     16  H   UNL     1       0.999   0.935  18.790  0.00  0.00    +0.000 HD
ENDBRANCH  10  15
ENDBRANCH   2   5
BRANCH   3  17
ATOM     17  C   UNL     1       1.447   8.791  18.983  0.00  0.00    +0.000 C 
ATOM     18  C   UNL     1       0.939   8.881  17.553  0.00  0.00    +0.000 C 
ATOM     19  C   UNL     1       2.047   9.777  18.001  0.00  0.00    +0.000 C 
BRANCH  17  20
ATOM     20  C   UNL     1       0.539   9.267  20.110  0.00  0.00    +0.000 A 
ATOM     21  C   UNL     1       0.603   8.626  21.376  0.00  0.00    +0.000 A 
ATOM     22  C   UNL     1       0.141   9.245  22.541  0.00  0.00    +0.000 A 
ATOM     23  C   UNL     1      -0.418  10.493  22.410  0.00  0.00    +0.000 A 
ATOM     24  C   UNL     1      -0.598  11.080  21.183  0.00  0.00    +0.000 A 
ATOM     25  C   UNL     1      -0.161  10.484  20.017  0.00  0.00    +0.000 A 
ATOM     26  O   UNL     1      -1.118  12.334  21.278  0.00  0.00    +0.000 OA
ATOM     27  C   UNL     1      -1.213  12.476  22.712  0.00  0.00    +0.000 C 
ATOM     28  O   UNL     1      -0.778  11.309  23.436  0.00  0.00    +0.000 OA
ENDBRANCH  17  20
ENDBRANCH   3  17
TORSDOF 4
ENDMDL
MODEL 6
REMARK VINA RESULT:      -6.8      3.950      5.689
REMARK  Name = 
REMARK  4 active torsions:
REMARK  status: ('A' for Active; 'I' for Inactive)
REMARK    1  A    between atoms: C_2  and  C_16
REMARK    2  A    between atoms: N_3  and  C_4
REMARK    3  A    between atoms: C_4  and  C_5
REMARK    4  A    between atoms: C_21  and  O_22
REMARK                            x       y       z     vdW  Elec       q    Type
REMARK                         _______ _______ _______ _____ _____    ______ ____
ROOT
ATOM      1  O   UNL     1       1.372   8.795  19.811  0.00  0.00    +0.000 OA
ATOM      2  C   UNL     1       1.678   9.001  18.623  0.00  0.00    +0.000 C 
ATOM      3  N   UNL     1       2.405   8.090  17.879  0.00  0.00    +0.000 N 
ATOM      4  H   UNL     1       2.685   8.321  16.937  0.00  0.00    +0.000 HD
ENDROOT
BRANCH   2   5
ATOM      5  C   UNL     1       1.254  10.314  17.930  0.00  0.00    +0.000 C 
ATOM      6  C   UNL     1       2.100  11.528  18.347  0.00  0.00    +0.000 C 
ATOM      7  C   UNL     1       1.602  12.130  19.652  0.00  0.00    +0.000 C 
ATOM      8  C   UNL     1       0.170  12.636  19.500  0.00  0.00    +0.000 C 
ATOM      9  C   UNL     1      -0.756  11.650  18.827  0.00  0.00    +0.000 A 
ATOM     10  C   UNL     1      -2.153  11.785  18.931  0.00  0.00    +0.000 A 
ATOM     11  C   UNL     1      -3.017  10.864  18.348  0.00  0.00    +0.000 A 
ATOM     12  C   UNL     1      -2.503   9.803  17.611  0.00  0.00    +0.000 A 
ATOM     13  C   UNL     1      -1.129   9.676  17.449  0.00  0.00    +0.000 A 
ATOM     14  C   UNL     1      -0.242  10.581  18.057  0.00  0.00    +0.000 A 
BRANCH  10  15
ATOM     15  O   UNL     1      -2.758  12.800  19.618  0.00  0.00    +0.000 OA
ATOM     16  H   UNL     1      -3.567  12.478  20.043  0.00  0.00    +0.000 HD
ENDBRANCH  10  15
ENDBRANCH   2   5
BRANCH   3  17
ATOM     17  C   UNL     1       2.797   6.795  18.404  0.00  0.00    +0.000 C 
ATOM     18  C   UNL     1       1.770   5.678  18.476  0.00  0.00    +0.000 C 
ATOM     19  C   UNL     1       2.231   6.340  19.733  0.00  0.00    +0.000 C 
BRANCH  17  20
ATOM     20  C   UNL     1       4.226   6.446  18.004  0.00  0.00    +0.000 A 
ATOM     21  C   UNL     1       5.024   5.661  18.878  0.00  0.00    +0.000 A 
ATOM     22  C   UNL     1       6.145   4.961  18.426  0.00  0.00    +0.000 A 
ATOM     23  C   UNL     1       6.474   5.091  17.098  0.00  0.00    +0.000 A 
ATOM     24  C   UNL     1       5.788   5.937  16.263  0.00  0.00    +0.000 A 
ATOM     25  C   UNL     1       4.684   6.649  16.690  0.00  0.00    +0.000 A 
ATOM     26  O   UNL     1       6.238   5.879  14.979  0.00  0.00    +0.000 OA
ATOM     27  C   UNL     1       7.266   4.873  15.103  0.00  0.00    +0.000 C 
ATOM     28  O   UNL     1       7.427   4.375  16.445  0.00  0.00    +0.000 OA
ENDBRANCH  17  20
ENDBRANCH   3  17
TORSDOF 4
ENDMDL
MODEL 7
REMARK VINA RESULT:      -6.8      2.189      7.087
REMARK  Name = 
REMARK  4 active torsions:
REMARK  status: ('A' for Active; 'I' for Inactive)
REMARK    1  A    between atoms: C_2  and  C_16
REMARK    2  A    between atoms: N_3  and  C_4
REMARK    3  A    between atoms: C_4  and  C_5
REMARK    4  A    between atoms: C_21  and  O_22
REMARK                            x       y       z     vdW  Elec       q    Type
REMARK                         _______ _______ _______ _____ _____    ______ ____
ROOT
ATOM      1  O   UNL     1       4.781   5.193  20.070  0.00  0.00    +0.000 OA
ATOM      2  C   UNL     1       4.960   5.001  18.854  0.00  0.00    +0.000 C 
ATOM      3  N   UNL     1       3.921   5.026  17.942  0.00  0.00    +0.000 N 
ATOM      4  H   UNL     1       4.099   4.806  16.973  0.00  0.00    +0.000 HD
ENDROOT
BRANCH   2   5
ATOM      5  C   UNL     1       6.379   4.714  18.316  0.00  0.00    +0.000 C 
ATOM      6  C   UNL     1       7.414   5.775  18.723  0.00  0.00    +0.000 C 
ATOM      7  C   UNL     1       7.373   6.977  17.792  0.00  0.00    +0.000 C 
ATOM      8  C   UNL     1       7.718   6.566  16.363  0.00  0.00    +0.000 C 
ATOM      9  C   UNL     1       6.982   5.334  15.891  0.00  0.00    +0.000 A 
ATOM     10  C   UNL     1       6.892   5.028  14.519  0.00  0.00    +0.000 A 
ATOM     11  C   UNL     1       6.187   3.919  14.067  0.00  0.00    +0.000 A 
ATOM     12  C   UNL     1       5.585   3.062  14.982  0.00  0.00    +0.000 A 
ATOM     13  C   UNL     1       5.702   3.311  16.343  0.00  0.00    +0.000 A 
ATOM     14  C   UNL     1       6.386   4.445  16.815  0.00  0.00    +0.000 A 
BRANCH  10  15
ATOM     15  O   UNL     1       7.461   5.797  13.543  0.00  0.00    +0.000 OA
ATOM     16  H   UNL     1       6.822   6.449  13.217  0.00  0.00    +0.000 HD
ENDBRANCH  10  15
ENDBRANCH   2   5
BRANCH   3  17
ATOM     17  C   UNL     1       2.560   5.353  18.323  0.00  0.00    +0.000 C 
ATOM     18  C   UNL     1       1.732   4.329  19.083  0.00  0.00    +0.000 C 
ATOM     19  C   UNL     1       1.415   4.622  17.652  0.00  0.00    +0.000 C 
BRANCH  17  20
ATOM     20  C   UNL     1       2.431   6.822  18.705  0.00  0.00    +0.000 A 
ATOM     21  C   UNL     1       2.468   7.815  17.690  0.00  0.00    +0.000 A 
ATOM     22  C   UNL     1       1.949   9.096  17.890  0.00  0.00    +0.000 A 
ATOM     23  C   UNL     1       1.429   9.377  19.130  0.00  0.00    +0.000 A 
ATOM     24  C   UNL     1       1.491   8.474  20.162  0.00  0.00    +0.000 A 
ATOM     25  C   UNL     1       2.009   7.206  19.992  0.00  0.00    +0.000 A 
ATOM     26  O   UNL     1       0.873   8.927  21.287  0.00  0.00    +0.000 OA
ATOM     27  C   UNL     1       0.391  10.209  20.829  0.00  0.00    +0.000 C 
ATOM     28  O   UNL     1       0.747  10.505  19.465  0.00  0.00    +0.000 OA
ENDBRANCH  17  20
ENDBRANCH   3  17
TORSDOF 4
ENDMDL
MODEL 8
REMARK VINA RESULT:      -6.8      3.813      7.383
REMARK  Name = 
REMARK  4 active torsions:
REMARK  status: ('A' for Active; 'I' for Inactive)
REMARK    1  A    between atoms: C_2  and  C_16
REMARK    2  A    between atoms: N_3  and  C_4
REMARK    3  A    between atoms: C_4  and  C_5
REMARK    4  A    between atoms: C_21  and  O_22
REMARK                            x       y       z     vdW  Elec       q    Type
REMARK                         _______ _______ _______ _____ _____    ______ ____
ROOT
ATOM      1  O   UNL     1       1.365   7.576  18.803  0.00  0.00    +0.000 OA
ATOM      2  C   UNL     1       2.036   7.337  19.823  0.00  0.00    +0.000 C 
ATOM      3  N   UNL     1       1.804   7.975  21.026  0.00  0.00    +0.000 N 
ATOM      4  H   UNL     1       2.410   7.798  21.814  0.00  0.00    +0.000 HD
ENDROOT
BRANCH   2   5
ATOM      5  C   UNL     1       3.182   6.303  19.771  0.00  0.00    +0.000 C 
ATOM      6  C   UNL     1       4.162   6.532  18.609  0.00  0.00    +0.000 C 
ATOM      7  C   UNL     1       3.641   5.924  17.315  0.00  0.00    +0.000 C 
ATOM      8  C   UNL     1       3.484   4.412  17.455  0.00  0.00    +0.000 C 
ATOM      9  C   UNL     1       2.777   3.988  18.721  0.00  0.00    +0.000 A 
ATOM     10  C   UNL     1       2.227   2.697  18.843  0.00  0.00    +0.000 A 
ATOM     11  C   UNL     1       1.542   2.305  19.987  0.00  0.00    +0.000 A 
ATOM     12  C   UNL     1       1.423   3.184  21.058  0.00  0.00    +0.000 A 
ATOM     13  C   UNL     1       2.001   4.445  20.984  0.00  0.00    +0.000 A 
ATOM     14  C   UNL     1       2.671   4.867  19.823  0.00  0.00    +0.000 A 
BRANCH  10  15
ATOM     15  O   UNL     1       2.304   1.755  17.856  0.00  0.00    +0.000 OA
ATOM     16  H   UNL     1       2.726   0.951  18.195  0.00  0.00    +0.000 HD
ENDBRANCH  10  15
ENDBRANCH   2   5
BRANCH   3  17
ATOM     17  C   UNL     1       0.711   8.913  21.210  0.00  0.00    +0.000 C 
ATOM     18  C   UNL     1       0.279   9.287  22.619  0.00  0.00    +0.000 C 
ATOM     19  C   UNL     1      -0.598   8.411  21.784  0.00  0.00    +0.000 C 
BRANCH  17  20
ATOM     20  C   UNL     1       0.730   9.999  20.142  0.00  0.00    +0.000 A 
ATOM     21  C   UNL     1      -0.402  10.171  19.300  0.00  0.00    +0.000 A 
ATOM     22  C   UNL     1      -0.637  11.364  18.613  0.00  0.00    +0.000 A 
ATOM     23  C   UNL     1       0.296  12.363  18.751  0.00  0.00    +0.000 A 
ATOM     24  C   UNL     1       1.455  12.177  19.462  0.00  0.00    +0.000 A 
ATOM     25  C   UNL     1       1.715  11.003  20.140  0.00  0.00    +0.000 A 
ATOM     26  O   UNL     1       2.216  13.304  19.520  0.00  0.00    +0.000 OA
ATOM     27  C   UNL     1       1.382  14.228  18.787  0.00  0.00    +0.000 C 
ATOM     28  O   UNL     1       0.167  13.636  18.290  0.00  0.00    +0.000 OA
ENDBRANCH  17  20
ENDBRANCH   3  17
TORSDOF 4
ENDMDL
MODEL 9
REMARK VINA RESULT:      -6.7      3.381      5.389
REMARK  Name = 
REMARK  4 active torsions:
REMARK  status: ('A' for Active; 'I' for Inactive)
REMARK    1  A    between atoms: C_2  and  C_16
REMARK    2  A    between atoms: N_3  and  C_4
REMARK    3  A    between atoms: C_4  and  C_5
REMARK    4  A    between atoms: C_21  and  O_22
REMARK                            x       y       z     vdW  Elec       q    Type
REMARK                         _______ _______ _______ _____ _____    ______ ____
ROOT
ATOM      1  O   UNL     1       2.357   7.823  20.615  0.00  0.00    +0.000 OA
ATOM      2  C   UNL     1       1.820   7.752  19.495  0.00  0.00    +0.000 C 
ATOM      3  N   UNL     1       2.073   6.713  18.618  0.00  0.00    +0.000 N 
ATOM      4  H   UNL     1       1.664   6.723  17.696  0.00  0.00    +0.000 HD
ENDROOT
BRANCH   2   5
ATOM      5  C   UNL     1       0.838   8.852  19.035  0.00  0.00    +0.000 C 
ATOM      6  C   UNL     1       1.342   9.657  17.826  0.00  0.00    +0.000 C 
ATOM      7  C   UNL     1       2.288  10.768  18.254  0.00  0.00    +0.000 C 
ATOM      8  C   UNL     1       1.574  11.763  19.166  0.00  0.00    +0.000 C 
ATOM      9  C   UNL     1       0.772  11.111  20.268  0.00  0.00    +0.000 A 
ATOM     10  C   UNL     1       0.360  11.849  21.394  0.00  0.00    +0.000 A 
ATOM     11  C   UNL     1      -0.347  11.254  22.433  0.00  0.00    +0.000 A 
ATOM     12  C   UNL     1      -0.695   9.910  22.353  0.00  0.00    +0.000 A 
ATOM     13  C   UNL     1      -0.346   9.172  21.229  0.00  0.00    +0.000 A 
ATOM     14  C   UNL     1       0.395   9.751  20.184  0.00  0.00    +0.000 A 
BRANCH  10  15
ATOM     15  O   UNL     1       0.636  13.177  21.560  0.00  0.00    +0.000 OA
ATOM     16  H   UNL     1      -0.145  13.640  21.898  0.00  0.00    +0.000 HD
ENDBRANCH  10  15
ENDBRANCH   2   5
BRANCH   3  17
ATOM     17  C   UNL     1       2.923   5.590  18.970  0.00  0.00    +0.000 C 
ATOM     18  C   UNL     1       2.308   4.208  19.119  0.00  0.00    +0.000 C 
ATOM     19  C   UNL     1       2.765   4.949  20.333  0.00  0.00    +0.000 C 
BRANCH  17  20
ATOM     20  C   UNL     1       4.295   5.710  18.318  0.00  0.00    +0.000 A 
ATOM     21  C   UNL     1       5.447   5.281  19.030  0.00  0.00    +0.000 A 
ATOM     22  C   UNL     1       6.643   4.966  18.380  0.00  0.00    +0.000 A 
ATOM     23  C   UNL     1       6.676   5.124  17.016  0.00  0.00    +0.000 A 
ATOM     24  C   UNL     1       5.615   5.650  16.322  0.00  0.00    +0.000 A 
ATOM     25  C   UNL     1       4.428   5.980  16.944  0.00  0.00    +0.000 A 
ATOM     26  O   UNL     1       5.833   5.673  14.978  0.00  0.00    +0.000 OA
ATOM     27  C   UNL     1       7.143   5.070  14.909  0.00  0.00    +0.000 C 
ATOM     28  O   UNL     1       7.688   4.727  16.198  0.00  0.00    +0.000 OA
ENDBRANCH  17  20
ENDBRANCH   3  17
TORSDOF 4
ENDMDL
