MODEL 1
REMARK VINA RESULT:      -9.2      0.000      0.000
REMARK  Name = 
REMARK  3 active torsions:
REMARK  status: ('A' for Active; 'I' for Inactive)
REMARK    1  A    between atoms: N_15  and  C_16
REMARK    2  A    between atoms: C_16  and  C_17
REMARK    3  A    between atoms: C_19  and  C_20
REMARK                            x       y       z     vdW  Elec       q    Type
REMARK                         _______ _______ _______ _____ _____    ______ ____
ROOT
ATOM      1  O   UNL     1       3.809   7.848  17.261  0.00  0.00    +0.000 OA
ATOM      2  C   UNL     1       3.930   6.702  17.662  0.00  0.00    +0.000 C 
ATOM      3  N   UNL     1       2.902   5.942  18.164  0.00  0.00    +0.000 N 
ATOM      4  C   UNL     1       3.308   4.573  18.359  0.00  0.00    +0.000 C 
ATOM      5  C   UNL     1       2.842   3.662  17.202  0.00  0.00    +0.000 C 
ATOM      6  C   UNL     1       2.093   2.466  17.807  0.00  0.00    +0.000 C 
ATOM      7  C   UNL     1       2.020   2.788  19.264  0.00  0.00    +0.000 A 
ATOM      8  C   UNL     1       1.350   2.057  20.234  0.00  0.00    +0.000 A 
ATOM      9  C   UNL     1       1.370   2.519  21.549  0.00  0.00    +0.000 A 
ATOM     10  C   UNL     1       2.064   3.692  21.877  0.00  0.00    +0.000 A 
ATOM     11  C   UNL     1       2.747   4.416  20.895  0.00  0.00    +0.000 A 
ATOM     12  C   UNL     1       2.721   3.954  19.585  0.00  0.00    +0.000 A 
ATOM     13  C   UNL     1       4.831   4.735  18.268  0.00  0.00    +0.000 C 
ATOM     14  O   UNL     1       5.674   3.892  18.532  0.00  0.00    +0.000 OA
ATOM     15  N   UNL     1       5.070   5.966  17.714  0.00  0.00    +0.000 N 
ATOM     16  H   UNL     1       1.947   6.273  18.175  0.00  0.00    +0.000 HD
ENDROOT
BRANCH  15  17
ATOM     17  C   UNL     1       6.331   6.382  17.151  0.00  0.00    +0.000 C 
BRANCH  17  18
ATOM     18  C   UNL     1       6.501   5.786  15.794  0.00  0.00    +0.000 A 
ATOM     19  N   UNL     1       5.649   5.126  15.037  0.00  0.00    +0.000 NA
ATOM     20  C   UNL     1       6.452   4.687  14.007  0.00  0.00    +0.000 A 
ATOM     21  N   UNL     1       7.723   5.110  14.080  0.00  0.00    +0.000 NA
ATOM     22  O   UNL     1       7.757   5.842  15.265  0.00  0.00    +0.000 OA
BRANCH  20  23
ATOM     23  C   UNL     1       5.965   3.756  12.944  0.00  0.00    +0.000 A 
ATOM     24  C   UNL     1       4.677   3.696  12.437  0.00  0.00    +0.000 A 
ATOM     25  C   UNL     1       4.681   2.715  11.415  0.00  0.00    +0.000 A 
ATOM     26  C   UNL     1       5.963   2.222  11.367  0.00  0.00    +0.000 A 
ATOM     27  O   UNL     1       6.747   2.844  12.285  0.00  0.00    +0.000 OA
ENDBRANCH  20  23
ENDBRANCH  17  18
ENDBRANCH  15  17
TORSDOF 3
ENDMDL
MODEL 2
REMARK VINA RESULT:      -9.1      3.256      5.441
REMARK  Name = 
REMARK  3 active torsions:
REMARK  status: ('A' for Active; 'I' for Inactive)
REMARK    1  A    between atoms: N_15  and  C_16
REMARK    2  A    between atoms: C_16  and  C_17
REMARK    3  A    between atoms: C_19  and  C_20
REMARK                            x       y       z     vdW  Elec       q    Type
REMARK                         _______ _______ _______ _____ _____    ______ ____
ROOT
ATOM      1  O   UNL     1       4.919   6.917  15.601  0.00  0.00    +0.000 OA
ATOM      2  C   UNL     1       4.907   6.088  16.496  0.00  0.00    +0.000 C 
ATOM      3  N   UNL     1       3.773   5.480  16.976  0.00  0.00    +0.000 N 
ATOM      4  C   UNL     1       4.098   4.404  17.879  0.00  0.00    +0.000 C 
ATOM      5  C   UNL     1       4.023   3.026  17.186  0.00  0.00    +0.000 C 
ATOM      6  C   UNL     1       3.121   2.114  18.031  0.00  0.00    +0.000 C 
ATOM      7  C   UNL     1       2.589   3.020  19.093  0.00  0.00    +0.000 A 
ATOM      8  C   UNL     1       1.646   2.691  20.056  0.00  0.00    +0.000 A 
ATOM      9  C   UNL     1       1.248   3.674  20.961  0.00  0.00    +0.000 A 
ATOM     10  C   UNL     1       1.801   4.960  20.899  0.00  0.00    +0.000 A 
ATOM     11  C   UNL     1       2.760   5.279  19.933  0.00  0.00    +0.000 A 
ATOM     12  C   UNL     1       3.151   4.298  19.030  0.00  0.00    +0.000 A 
ATOM     13  C   UNL     1       5.570   4.729  18.159  0.00  0.00    +0.000 C 
ATOM     14  O   UNL     1       6.286   4.216  19.004  0.00  0.00    +0.000 OA
ATOM     15  N   UNL     1       5.973   5.621  17.197  0.00  0.00    +0.000 N 
ATOM     16  H   UNL     1       2.864   5.641  16.565  0.00  0.00    +0.000 HD
ENDROOT
BRANCH  15  17
ATOM     17  C   UNL     1       7.347   5.930  16.888  0.00  0.00    +0.000 C 
BRANCH  17  18
ATOM     18  C   UNL     1       7.745   7.198  17.564  0.00  0.00    +0.000 A 
ATOM     19  N   UNL     1       7.712   8.443  17.137  0.00  0.00    +0.000 NA
ATOM     20  C   UNL     1       8.377   9.115  18.138  0.00  0.00    +0.000 A 
ATOM     21  N   UNL     1       8.744   8.342  19.172  0.00  0.00    +0.000 NA
ATOM     22  O   UNL     1       8.323   7.068  18.793  0.00  0.00    +0.000 OA
BRANCH  20  23
ATOM     23  C   UNL     1       8.727  10.565  18.044  0.00  0.00    +0.000 A 
ATOM     24  C   UNL     1       9.924  11.144  18.433  0.00  0.00    +0.000 A 
ATOM     25  C   UNL     1       9.839  12.522  18.112  0.00  0.00    +0.000 A 
ATOM     26  C   UNL     1       8.594  12.707  17.562  0.00  0.00    +0.000 A 
ATOM     27  O   UNL     1       7.914  11.533  17.514  0.00  0.00    +0.000 OA
ENDBRANCH  20  23
ENDBRANCH  17  18
ENDBRANCH  15  17
TORSDOF 3
ENDMDL
MODEL 3
REMARK VINA RESULT:      -8.5      3.068      5.326
REMARK  Name = 
REMARK  3 active torsions:
REMARK  status: ('A' for Active; 'I' for Inactive)
REMARK    1  A    between atoms: N_15  and  C_16
REMARK    2  A    between atoms: C_16  and  C_17
REMARK    3  A    between atoms: C_19  and  C_20
REMARK                            x       y       z     vdW  Elec       q    Type
REMARK                         _______ _______ _______ _____ _____    ______ ____
ROOT
ATOM      1  O   UNL     1       4.177   7.522  16.534  0.00  0.00    +0.000 OA
ATOM      2  C   UNL     1       4.263   6.440  17.091  0.00  0.00    +0.000 C 
ATOM      3  N   UNL     1       3.204   5.770  17.654  0.00  0.00    +0.000 N 
ATOM      4  C   UNL     1       3.578   4.435  18.048  0.00  0.00    +0.000 C 
ATOM      5  C   UNL     1       3.134   3.382  17.009  0.00  0.00    +0.000 C 
ATOM      6  C   UNL     1       2.343   2.290  17.744  0.00  0.00    +0.000 C 
ATOM      7  C   UNL     1       2.226   2.809  19.139  0.00  0.00    +0.000 A 
ATOM      8  C   UNL     1       1.509   2.226  20.175  0.00  0.00    +0.000 A 
ATOM      9  C   UNL     1       1.494   2.863  21.415  0.00  0.00    +0.000 A 
ATOM     10  C   UNL     1       2.197   4.060  21.605  0.00  0.00    +0.000 A 
ATOM     11  C   UNL     1       2.927   4.633  20.559  0.00  0.00    +0.000 A 
ATOM     12  C   UNL     1       2.937   3.998  19.325  0.00  0.00    +0.000 A 
ATOM     13  C   UNL     1       5.105   4.562  17.992  0.00  0.00    +0.000 C 
ATOM     14  O   UNL     1       5.923   3.751  18.398  0.00  0.00    +0.000 OA
ATOM     15  N   UNL     1       5.387   5.702  17.284  0.00  0.00    +0.000 N 
ATOM     16  H   UNL     1       2.256   6.113  17.585  0.00  0.00    +0.000 HD
ENDROOT
BRANCH  15  17
ATOM     17  C   UNL     1       6.673   6.020  16.716  0.00  0.00    +0.000 C 
BRANCH  17  18
ATOM     18  C   UNL     1       7.343   7.072  17.534  0.00  0.00    +0.000 A 
ATOM     19  N   UNL     1       7.459   8.368  17.331  0.00  0.00    +0.000 NA
ATOM     20  C   UNL     1       8.332   8.744  18.328  0.00  0.00    +0.000 A 
ATOM     21  N   UNL     1       8.687   7.748  19.155  0.00  0.00    +0.000 NA
ATOM     22  O   UNL     1       8.029   6.637  18.630  0.00  0.00    +0.000 OA
BRANCH  20  23
ATOM     23  C   UNL     1       8.895  10.124  18.432  0.00  0.00    +0.000 A 
ATOM     24  C   UNL     1       8.518  11.220  17.672  0.00  0.00    +0.000 A 
ATOM     25  C   UNL     1       9.267  12.326  18.144  0.00  0.00    +0.000 A 
ATOM     26  C   UNL     1      10.066  11.842  19.151  0.00  0.00    +0.000 A 
ATOM     27  O   UNL     1       9.849  10.514  19.335  0.00  0.00    +0.000 OA
ENDBRANCH  20  23
ENDBRANCH  17  18
ENDBRANCH  15  17
TORSDOF 3
ENDMDL
MODEL 4
REMARK VINA RESULT:      -8.4      1.159      2.209
REMARK  Name = 
REMARK  3 active torsions:
REMARK  status: ('A' for Active; 'I' for Inactive)
REMARK    1  A    between atoms: N_15  and  C_16
REMARK    2  A    between atoms: C_16  and  C_17
REMARK    3  A    between atoms: C_19  and  C_20
REMARK                            x       y       z     vdW  Elec       q    Type
REMARK                         _______ _______ _______ _____ _____    ______ ____
ROOT
ATOM      1  O   UNL     1       7.379   4.513  18.802  0.00  0.00    +0.000 OA
ATOM      2  C   UNL     1       6.192   4.732  18.627  0.00  0.00    +0.000 C 
ATOM      3  N   UNL     1       5.181   4.165  19.365  0.00  0.00    +0.000 N 
ATOM      4  C   UNL     1       3.909   4.773  19.064  0.00  0.00    +0.000 C 
ATOM      5  C   UNL     1       3.507   5.825  20.120  0.00  0.00    +0.000 C 
ATOM      6  C   UNL     1       2.091   5.491  20.612  0.00  0.00    +0.000 C 
ATOM      7  C   UNL     1       1.776   4.193  19.945  0.00  0.00    +0.000 A 
ATOM      8  C   UNL     1       0.640   3.421  20.145  0.00  0.00    +0.000 A 
ATOM      9  C   UNL     1       0.520   2.219  19.449  0.00  0.00    +0.000 A 
ATOM     10  C   UNL     1       1.526   1.811  18.562  0.00  0.00    +0.000 A 
ATOM     11  C   UNL     1       2.662   2.600  18.359  0.00  0.00    +0.000 A 
ATOM     12  C   UNL     1       2.779   3.795  19.056  0.00  0.00    +0.000 A 
ATOM     13  C   UNL     1       4.266   5.501  17.762  0.00  0.00    +0.000 C 
ATOM     14  O   UNL     1       3.491   6.045  16.991  0.00  0.00    +0.000 OA
ATOM     15  N   UNL     1       5.635   5.538  17.686  0.00  0.00    +0.000 N 
ATOM     16  H   UNL     1       5.367   3.566  20.156  0.00  0.00    +0.000 HD
ENDROOT
BRANCH  15  17
ATOM     17  C   UNL     1       6.386   6.404  16.812  0.00  0.00    +0.000 C 
BRANCH  17  18
ATOM     18  C   UNL     1       6.559   5.754  15.481  0.00  0.00    +0.000 A 
ATOM     19  N   UNL     1       5.712   5.054  14.755  0.00  0.00    +0.000 NA
ATOM     20  C   UNL     1       6.517   4.580  13.741  0.00  0.00    +0.000 A 
ATOM     21  N   UNL     1       7.784   5.020  13.792  0.00  0.00    +0.000 NA
ATOM     22  O   UNL     1       7.813   5.801  14.946  0.00  0.00    +0.000 OA
BRANCH  20  23
ATOM     23  C   UNL     1       6.037   3.600  12.720  0.00  0.00    +0.000 A 
ATOM     24  C   UNL     1       4.759   3.532  12.189  0.00  0.00    +0.000 A 
ATOM     25  C   UNL     1       4.769   2.497  11.222  0.00  0.00    +0.000 A 
ATOM     26  C   UNL     1       6.043   1.984  11.228  0.00  0.00    +0.000 A 
ATOM     27  O   UNL     1       6.818   2.643  12.127  0.00  0.00    +0.000 OA
ENDBRANCH  20  23
ENDBRANCH  17  18
ENDBRANCH  15  17
TORSDOF 3
ENDMDL
MODEL 5
REMARK VINA RESULT:      -8.2      2.570      4.153
REMARK  Name = 
REMARK  3 active torsions:
REMARK  status: ('A' for Active; 'I' for Inactive)
REMARK    1  A    between atoms: N_15  and  C_16
REMARK    2  A    between atoms: C_16  and  C_17
REMARK    3  A    between atoms: C_19  and  C_20
REMARK                            x       y       z     vdW  Elec       q    Type
REMARK                         _______ _______ _______ _____ _____    ______ ____
ROOT
ATOM      1  O   UNL     1       1.890   3.406  17.246  0.00  0.00    +0.000 OA
ATOM      2  C   UNL     1       2.282   4.358  17.901  0.00  0.00    +0.000 C 
ATOM      3  N   UNL     1       1.494   5.418  18.278  0.00  0.00    +0.000 N 
ATOM      4  C   UNL     1       2.179   6.274  19.212  0.00  0.00    +0.000 C 
ATOM      5  C   UNL     1       1.752   5.997  20.670  0.00  0.00    +0.000 C 
ATOM      6  C   UNL     1       1.333   7.330  21.308  0.00  0.00    +0.000 C 
ATOM      7  C   UNL     1       1.389   8.302  20.176  0.00  0.00    +0.000 A 
ATOM      8  C   UNL     1       1.005   9.635  20.219  0.00  0.00    +0.000 A 
ATOM      9  C   UNL     1       1.106  10.395  19.055  0.00  0.00    +0.000 A 
ATOM     10  C   UNL     1       1.596   9.820  17.874  0.00  0.00    +0.000 A 
ATOM     11  C   UNL     1       1.992   8.480  17.844  0.00  0.00    +0.000 A 
ATOM     12  C   UNL     1       1.887   7.725  19.005  0.00  0.00    +0.000 A 
ATOM     13  C   UNL     1       3.617   5.775  19.023  0.00  0.00    +0.000 C 
ATOM     14  O   UNL     1       4.634   6.285  19.465  0.00  0.00    +0.000 OA
ATOM     15  N   UNL     1       3.540   4.574  18.365  0.00  0.00    +0.000 N 
ATOM     16  H   UNL     1       0.503   5.445  18.082  0.00  0.00    +0.000 HD
ENDROOT
BRANCH  15  17
ATOM     17  C   UNL     1       4.612   3.614  18.281  0.00  0.00    +0.000 C 
BRANCH  17  18
ATOM     18  C   UNL     1       5.619   4.065  17.277  0.00  0.00    +0.000 A 
ATOM     19  N   UNL     1       5.488   4.331  15.994  0.00  0.00    +0.000 NA
ATOM     20  C   UNL     1       6.795   4.511  15.597  0.00  0.00    +0.000 A 
ATOM     21  N   UNL     1       7.690   4.434  16.595  0.00  0.00    +0.000 NA
ATOM     22  O   UNL     1       6.910   4.139  17.712  0.00  0.00    +0.000 OA
BRANCH  20  23
ATOM     23  C   UNL     1       7.187   4.700  14.167  0.00  0.00    +0.000 A 
ATOM     24  C   UNL     1       6.728   3.960  13.090  0.00  0.00    +0.000 A 
ATOM     25  C   UNL     1       7.315   4.517  11.927  0.00  0.00    +0.000 A 
ATOM     26  C   UNL     1       8.108   5.552  12.361  0.00  0.00    +0.000 A 
ATOM     27  O   UNL     1       8.037   5.673  13.711  0.00  0.00    +0.000 OA
ENDBRANCH  20  23
ENDBRANCH  17  18
ENDBRANCH  15  17
TORSDOF 3
ENDMDL
MODEL 6
REMARK VINA RESULT:      -8.1      3.434      6.007
REMARK  Name = 
REMARK  3 active torsions:
REMARK  status: ('A' for Active; 'I' for Inactive)
REMARK    1  A    between atoms: N_15  and  C_16
REMARK    2  A    between atoms: C_16  and  C_17
REMARK    3  A    between atoms: C_19  and  C_20
REMARK                            x       y       z     vdW  Elec       q    Type
REMARK                         _______ _______ _______ _____ _____    ______ ____
ROOT
ATOM      1  O   UNL     1       7.999   4.325  18.472  0.00  0.00    +0.000 OA
ATOM      2  C   UNL     1       6.834   4.620  18.264  0.00  0.00    +0.000 C 
ATOM      3  N   UNL     1       5.764   4.074  18.930  0.00  0.00    +0.000 N 
ATOM      4  C   UNL     1       4.541   4.767  18.613  0.00  0.00    +0.000 C 
ATOM      5  C   UNL     1       4.153   5.784  19.709  0.00  0.00    +0.000 C 
ATOM      6  C   UNL     1       2.701   5.506  20.127  0.00  0.00    +0.000 C 
ATOM      7  C   UNL     1       2.344   4.264  19.379  0.00  0.00    +0.000 A 
ATOM      8  C   UNL     1       1.160   3.549  19.492  0.00  0.00    +0.000 A 
ATOM      9  C   UNL     1       1.004   2.394  18.727  0.00  0.00    +0.000 A 
ATOM     10  C   UNL     1       2.023   1.976  17.859  0.00  0.00    +0.000 A 
ATOM     11  C   UNL     1       3.207   2.709  17.743  0.00  0.00    +0.000 A 
ATOM     12  C   UNL     1       3.360   3.858  18.509  0.00  0.00    +0.000 A 
ATOM     13  C   UNL     1       4.991   5.541  17.368  0.00  0.00    +0.000 C 
ATOM     14  O   UNL     1       4.280   6.168  16.598  0.00  0.00    +0.000 OA
ATOM     15  N   UNL     1       6.361   5.504  17.348  0.00  0.00    +0.000 N 
ATOM     16  H   UNL     1       5.884   3.424  19.694  0.00  0.00    +0.000 HD
ENDROOT
BRANCH  15  17
ATOM     17  C   UNL     1       7.195   6.371  16.551  0.00  0.00    +0.000 C 
BRANCH  17  18
ATOM     18  C   UNL     1       7.670   7.517  17.379  0.00  0.00    +0.000 A 
ATOM     19  N   UNL     1       7.680   8.809  17.126  0.00  0.00    +0.000 NA
ATOM     20  C   UNL     1       8.405   9.310  18.185  0.00  0.00    +0.000 A 
ATOM     21  N   UNL     1       8.768   8.388  19.090  0.00  0.00    +0.000 NA
ATOM     22  O   UNL     1       8.279   7.197  18.557  0.00  0.00    +0.000 OA
BRANCH  20  23
ATOM     23  C   UNL     1       8.817  10.744  18.275  0.00  0.00    +0.000 A 
ATOM     24  C   UNL     1       9.853  11.250  19.043  0.00  0.00    +0.000 A 
ATOM     25  C   UNL     1       9.920  12.641  18.781  0.00  0.00    +0.000 A 
ATOM     26  C   UNL     1       8.914  12.906  17.884  0.00  0.00    +0.000 A 
ATOM     27  O   UNL     1       8.242  11.769  17.570  0.00  0.00    +0.000 OA
ENDBRANCH  20  23
ENDBRANCH  17  18
ENDBRANCH  15  17
TORSDOF 3
ENDMDL
MODEL 7
REMARK VINA RESULT:      -7.9      1.493      1.648
REMARK  Name = 
REMARK  3 active torsions:
REMARK  status: ('A' for Active; 'I' for Inactive)
REMARK    1  A    between atoms: N_15  and  C_16
REMARK    2  A    between atoms: C_16  and  C_17
REMARK    3  A    between atoms: C_19  and  C_20
REMARK                            x       y       z     vdW  Elec       q    Type
REMARK                         _______ _______ _______ _____ _____    ______ ____
ROOT
ATOM      1  O   UNL     1       6.742   6.638  19.023  0.00  0.00    +0.000 OA
ATOM      2  C   UNL     1       5.953   5.731  18.812  0.00  0.00    +0.000 C 
ATOM      3  N   UNL     1       4.687   5.666  19.340  0.00  0.00    +0.000 N 
ATOM      4  C   UNL     1       3.928   4.593  18.747  0.00  0.00    +0.000 C 
ATOM      5  C   UNL     1       2.975   5.101  17.643  0.00  0.00    +0.000 C 
ATOM      6  C   UNL     1       1.564   4.578  17.950  0.00  0.00    +0.000 C 
ATOM      7  C   UNL     1       1.709   3.915  19.281  0.00  0.00    +0.000 A 
ATOM      8  C   UNL     1       0.687   3.365  20.040  0.00  0.00    +0.000 A 
ATOM      9  C   UNL     1       1.003   2.802  21.275  0.00  0.00    +0.000 A 
ATOM     10  C   UNL     1       2.329   2.788  21.728  0.00  0.00    +0.000 A 
ATOM     11  C   UNL     1       3.355   3.334  20.951  0.00  0.00    +0.000 A 
ATOM     12  C   UNL     1       3.035   3.896  19.723  0.00  0.00    +0.000 A 
ATOM     13  C   UNL     1       5.062   3.801  18.086  0.00  0.00    +0.000 C 
ATOM     14  O   UNL     1       4.983   2.692  17.581  0.00  0.00    +0.000 OA
ATOM     15  N   UNL     1       6.159   4.623  18.054  0.00  0.00    +0.000 N 
ATOM     16  H   UNL     1       4.301   6.413  19.899  0.00  0.00    +0.000 HD
ENDROOT
BRANCH  15  17
ATOM     17  C   UNL     1       7.325   4.406  17.233  0.00  0.00    +0.000 C 
BRANCH  17  18
ATOM     18  C   UNL     1       6.945   4.453  15.792  0.00  0.00    +0.000 A 
ATOM     19  N   UNL     1       6.115   3.699  15.101  0.00  0.00    +0.000 NA
ATOM     20  C   UNL     1       6.344   4.120  13.809  0.00  0.00    +0.000 A 
ATOM     21  N   UNL     1       7.219   5.132  13.705  0.00  0.00    +0.000 NA
ATOM     22  O   UNL     1       7.618   5.356  15.021  0.00  0.00    +0.000 OA
BRANCH  20  23
ATOM     23  C   UNL     1       5.728   3.452  12.622  0.00  0.00    +0.000 A 
ATOM     24  C   UNL     1       6.302   2.449  11.858  0.00  0.00    +0.000 A 
ATOM     25  C   UNL     1       5.349   2.079  10.878  0.00  0.00    +0.000 A 
ATOM     26  C   UNL     1       4.257   2.885  11.089  0.00  0.00    +0.000 A 
ATOM     27  O   UNL     1       4.473   3.717  12.139  0.00  0.00    +0.000 OA
ENDBRANCH  20  23
ENDBRANCH  17  18
ENDBRANCH  15  17
TORSDOF 3
ENDMDL
MODEL 8
REMARK VINA RESULT:      -7.7      3.331      5.828
REMARK  Name = 
REMARK  3 active torsions:
REMARK  status: ('A' for Active; 'I' for Inactive)
REMARK    1  A    between atoms: N_15  and  C_16
REMARK    2  A    between atoms: C_16  and  C_17
REMARK    3  A    between atoms: C_19  and  C_20
REMARK                            x       y       z     vdW  Elec       q    Type
REMARK                         _______ _______ _______ _____ _____    ______ ____
ROOT
ATOM      1  O   UNL     1       7.128   5.443  20.142  0.00  0.00    +0.000 OA
ATOM      2  C   UNL     1       6.236   5.201  19.345  0.00  0.00    +0.000 C 
ATOM      3  N   UNL     1       4.945   4.887  19.696  0.00  0.00    +0.000 N 
ATOM      4  C   UNL     1       4.081   4.861  18.542  0.00  0.00    +0.000 C 
ATOM      5  C   UNL     1       3.268   6.165  18.400  0.00  0.00    +0.000 C 
ATOM      6  C   UNL     1       1.784   5.792  18.262  0.00  0.00    +0.000 C 
ATOM      7  C   UNL     1       1.766   4.313  18.472  0.00  0.00    +0.000 A 
ATOM      8  C   UNL     1       0.639   3.507  18.541  0.00  0.00    +0.000 A 
ATOM      9  C   UNL     1       0.808   2.142  18.765  0.00  0.00    +0.000 A 
ATOM     10  C   UNL     1       2.094   1.602  18.907  0.00  0.00    +0.000 A 
ATOM     11  C   UNL     1       3.225   2.420  18.824  0.00  0.00    +0.000 A 
ATOM     12  C   UNL     1       3.051   3.780  18.605  0.00  0.00    +0.000 A 
ATOM     13  C   UNL     1       5.132   4.818  17.426  0.00  0.00    +0.000 C 
ATOM     14  O   UNL     1       4.932   4.616  16.239  0.00  0.00    +0.000 OA
ATOM     15  N   UNL     1       6.330   5.173  17.991  0.00  0.00    +0.000 N 
ATOM     16  H   UNL     1       4.634   4.898  20.657  0.00  0.00    +0.000 HD
ENDROOT
BRANCH  15  17
ATOM     17  C   UNL     1       7.499   5.579  17.250  0.00  0.00    +0.000 C 
BRANCH  17  18
ATOM     18  C   UNL     1       7.713   7.047  17.407  0.00  0.00    +0.000 A 
ATOM     19  N   UNL     1       8.629   7.711  18.081  0.00  0.00    +0.000 NA
ATOM     20  C   UNL     1       8.180   9.010  17.985  0.00  0.00    +0.000 A 
ATOM     21  N   UNL     1       7.080   9.159  17.231  0.00  0.00    +0.000 NA
ATOM     22  O   UNL     1       6.770   7.856  16.844  0.00  0.00    +0.000 OA
BRANCH  20  23
ATOM     23  C   UNL     1       8.820  10.142  18.722  0.00  0.00    +0.000 A 
ATOM     24  C   UNL     1       9.153  11.377  18.193  0.00  0.00    +0.000 A 
ATOM     25  C   UNL     1       9.680  12.153  19.255  0.00  0.00    +0.000 A 
ATOM     26  C   UNL     1       9.652  11.345  20.365  0.00  0.00    +0.000 A 
ATOM     27  O   UNL     1       9.133  10.128  20.057  0.00  0.00    +0.000 OA
ENDBRANCH  20  23
ENDBRANCH  17  18
ENDBRANCH  15  17
TORSDOF 3
ENDMDL
MODEL 9
REMARK VINA RESULT:      -7.5      2.918      5.176
REMARK  Name = 
REMARK  3 active torsions:
REMARK  status: ('A' for Active; 'I' for Inactive)
REMARK    1  A    between atoms: N_15  and  C_16
REMARK    2  A    between atoms: C_16  and  C_17
REMARK    3  A    between atoms: C_19  and  C_20
REMARK                            x       y       z     vdW  Elec       q    Type
REMARK                         _______ _______ _______ _____ _____    ______ ____
ROOT
ATOM      1  O   UNL     1       4.937   4.757  14.833  0.00  0.00    +0.000 OA
ATOM      2  C   UNL     1       4.860   4.409  16.000  0.00  0.00    +0.000 C 
ATOM      3  N   UNL     1       3.733   3.881  16.580  0.00  0.00    +0.000 N 
ATOM      4  C   UNL     1       4.010   3.377  17.901  0.00  0.00    +0.000 C 
ATOM      5  C   UNL     1       4.208   1.846  17.907  0.00  0.00    +0.000 C 
ATOM      6  C   UNL     1       3.277   1.247  18.972  0.00  0.00    +0.000 C 
ATOM      7  C   UNL     1       2.474   2.415  19.443  0.00  0.00    +0.000 A 
ATOM      8  C   UNL     1       1.418   2.375  20.343  0.00  0.00    +0.000 A 
ATOM      9  C   UNL     1       0.764   3.566  20.655  0.00  0.00    +0.000 A 
ATOM     10  C   UNL     1       1.177   4.774  20.075  0.00  0.00    +0.000 A 
ATOM     11  C   UNL     1       2.249   4.805  19.178  0.00  0.00    +0.000 A 
ATOM     12  C   UNL     1       2.895   3.616  18.867  0.00  0.00    +0.000 A 
ATOM     13  C   UNL     1       5.367   4.044  18.159  0.00  0.00    +0.000 C 
ATOM     14  O   UNL     1       5.977   4.081  19.216  0.00  0.00    +0.000 OA
ATOM     15  N   UNL     1       5.831   4.487  16.946  0.00  0.00    +0.000 N 
ATOM     16  H   UNL     1       2.897   3.686  16.046  0.00  0.00    +0.000 HD
ENDROOT
BRANCH  15  17
ATOM     17  C   UNL     1       7.197   4.867  16.679  0.00  0.00    +0.000 C 
BRANCH  17  18
ATOM     18  C   UNL     1       7.546   6.085  17.466  0.00  0.00    +0.000 A 
ATOM     19  N   UNL     1       7.503   7.359  17.135  0.00  0.00    +0.000 NA
ATOM     20  C   UNL     1       8.120   7.962  18.209  0.00  0.00    +0.000 A 
ATOM     21  N   UNL     1       8.467   7.116  19.192  0.00  0.00    +0.000 NA
ATOM     22  O   UNL     1       8.085   5.869  18.701  0.00  0.00    +0.000 OA
BRANCH  20  23
ATOM     23  C   UNL     1       8.444   9.420  18.240  0.00  0.00    +0.000 A 
ATOM     24  C   UNL     1       9.324  10.044  19.109  0.00  0.00    +0.000 A 
ATOM     25  C   UNL     1       9.364  11.412  18.745  0.00  0.00    +0.000 A 
ATOM     26  C   UNL     1       8.498  11.549  17.688  0.00  0.00    +0.000 A 
ATOM     27  O   UNL     1       7.937  10.352  17.373  0.00  0.00    +0.000 OA
ENDBRANCH  20  23
ENDBRANCH  17  18
ENDBRANCH  15  17
TORSDOF 3
ENDMDL
