MODEL 1
REMARK VINA RESULT:      -9.5      0.000      0.000
REMARK  Name = 
REMARK  4 active torsions:
REMARK  status: ('A' for Active; 'I' for Inactive)
REMARK    1  A    between atoms: C_2  and  C_17
REMARK    2  A    between atoms: N_3  and  C_4
REMARK    3  A    between atoms: C_4  and  C_5
REMARK    4  A    between atoms: C_4  and  C_11
REMARK                            x       y       z     vdW  Elec       q    Type
REMARK                         _______ _______ _______ _____ _____    ______ ____
ROOT
ATOM      1  O   UNL     1       5.203   4.251  18.610  0.00  0.00    +0.000 OA
ATOM      2  C   UNL     1       4.815   5.065  17.777  0.00  0.00    +0.000 C 
ATOM      3  N   UNL     1       3.873   6.060  18.058  0.00  0.00    +0.000 N 
ATOM      4  H   UNL     1       3.519   6.577  17.259  0.00  0.00    +0.000 HD
ENDROOT
BRANCH   2   5
ATOM      5  C   UNL     1       5.426   5.207  16.355  0.00  0.00    +0.000 C 
ATOM      6  C   UNL     1       6.701   6.074  16.261  0.00  0.00    +0.000 C 
ATOM      7  O   UNL     1       7.705   5.634  15.321  0.00  0.00    +0.000 OA
ATOM      8  C   UNL     1       7.157   4.920  14.294  0.00  0.00    +0.000 A 
ATOM      9  C   UNL     1       7.665   5.075  13.009  0.00  0.00    +0.000 A 
ATOM     10  C   UNL     1       7.101   4.349  11.956  0.00  0.00    +0.000 A 
ATOM     11  C   UNL     1       6.077   3.428  12.205  0.00  0.00    +0.000 A 
ATOM     12  C   UNL     1       5.595   3.253  13.502  0.00  0.00    +0.000 A 
ATOM     13  C   UNL     1       6.116   4.027  14.532  0.00  0.00    +0.000 A 
ATOM     14  O   UNL     1       5.587   3.896  15.785  0.00  0.00    +0.000 OA
ENDBRANCH   2   5
BRANCH   3  15
ATOM     15  C   UNL     1       3.131   6.220  19.306  0.00  0.00    +0.000 C 
BRANCH  15  16
ATOM     16  C   UNL     1       2.224   7.460  19.257  0.00  0.00    +0.000 A 
ATOM     17  C   UNL     1       1.618   7.987  20.415  0.00  0.00    +0.000 A 
ATOM     18  C   UNL     1       0.932   9.206  20.377  0.00  0.00    +0.000 A 
ATOM     19  C   UNL     1       0.835   9.918  19.183  0.00  0.00    +0.000 A 
ATOM     20  C   UNL     1       1.416   9.407  18.026  0.00  0.00    +0.000 A 
ATOM     21  C   UNL     1       2.100   8.186  18.060  0.00  0.00    +0.000 A 
ENDBRANCH  15  16
BRANCH  15  22
ATOM     22  C   UNL     1       2.266   4.990  19.664  0.00  0.00    +0.000 A 
ATOM     23  C   UNL     1       1.582   4.305  18.653  0.00  0.00    +0.000 A 
ATOM     24  C   UNL     1       0.961   3.096  18.940  0.00  0.00    +0.000 A 
ATOM     25  C   UNL     1       1.052   2.569  20.226  0.00  0.00    +0.000 A 
ATOM     26  C   UNL     1       1.745   3.304  21.176  0.00  0.00    +0.000 A 
ATOM     27  N   UNL     1       2.348   4.496  20.931  0.00  0.00    +0.000 NA
ENDBRANCH  15  22
ENDBRANCH   3  15
TORSDOF 4
ENDMDL
MODEL 2
REMARK VINA RESULT:      -9.1      3.243      7.733
REMARK  Name = 
REMARK  4 active torsions:
REMARK  status: ('A' for Active; 'I' for Inactive)
REMARK    1  A    between atoms: C_2  and  C_17
REMARK    2  A    between atoms: N_3  and  C_4
REMARK    3  A    between atoms: C_4  and  C_5
REMARK    4  A    between atoms: C_4  and  C_11
REMARK                            x       y       z     vdW  Elec       q    Type
REMARK                         _______ _______ _______ _____ _____    ______ ____
ROOT
ATOM      1  O   UNL     1       2.553   8.743  17.071  0.00  0.00    +0.000 OA
ATOM      2  C   UNL     1       2.157   8.385  18.177  0.00  0.00    +0.000 C 
ATOM      3  N   UNL     1       2.399   7.112  18.704  0.00  0.00    +0.000 N 
ATOM      4  H   UNL     1       1.899   6.880  19.556  0.00  0.00    +0.000 HD
ENDROOT
BRANCH   2   5
ATOM      5  C   UNL     1       1.480   9.336  19.204  0.00  0.00    +0.000 C 
ATOM      6  C   UNL     1       0.714  10.533  18.598  0.00  0.00    +0.000 C 
ATOM      7  O   UNL     1      -0.501  10.923  19.274  0.00  0.00    +0.000 OA
ATOM      8  C   UNL     1      -0.468  10.594  20.599  0.00  0.00    +0.000 A 
ATOM      9  C   UNL     1      -1.028  11.461  21.530  0.00  0.00    +0.000 A 
ATOM     10  C   UNL     1      -0.990  11.128  22.888  0.00  0.00    +0.000 A 
ATOM     11  C   UNL     1      -0.449   9.905  23.298  0.00  0.00    +0.000 A 
ATOM     12  C   UNL     1       0.082   9.025  22.354  0.00  0.00    +0.000 A 
ATOM     13  C   UNL     1       0.100   9.393  21.014  0.00  0.00    +0.000 A 
ATOM     14  O   UNL     1       0.685   8.553  20.110  0.00  0.00    +0.000 OA
ENDBRANCH   2   5
BRANCH   3  15
ATOM     15  C   UNL     1       3.033   5.996  18.007  0.00  0.00    +0.000 C 
BRANCH  15  16
ATOM     16  C   UNL     1       4.561   6.039  18.167  0.00  0.00    +0.000 A 
ATOM     17  C   UNL     1       5.215   5.436  19.259  0.00  0.00    +0.000 A 
ATOM     18  C   UNL     1       6.611   5.344  19.302  0.00  0.00    +0.000 A 
ATOM     19  C   UNL     1       7.378   5.856  18.258  0.00  0.00    +0.000 A 
ATOM     20  C   UNL     1       6.751   6.468  17.176  0.00  0.00    +0.000 A 
ATOM     21  C   UNL     1       5.355   6.564  17.132  0.00  0.00    +0.000 A 
ENDBRANCH  15  16
BRANCH  15  22
ATOM     22  C   UNL     1       2.527   4.613  18.480  0.00  0.00    +0.000 A 
ATOM     23  C   UNL     1       1.692   4.526  19.601  0.00  0.00    +0.000 A 
ATOM     24  C   UNL     1       1.085   3.317  19.914  0.00  0.00    +0.000 A 
ATOM     25  C   UNL     1       1.296   2.213  19.091  0.00  0.00    +0.000 A 
ATOM     26  C   UNL     1       2.135   2.374  17.998  0.00  0.00    +0.000 A 
ATOM     27  N   UNL     1       2.756   3.538  17.676  0.00  0.00    +0.000 NA
ENDBRANCH  15  22
ENDBRANCH   3  15
TORSDOF 4
ENDMDL
MODEL 3
REMARK VINA RESULT:      -9.0      0.621      1.365
REMARK  Name = 
REMARK  4 active torsions:
REMARK  status: ('A' for Active; 'I' for Inactive)
REMARK    1  A    between atoms: C_2  and  C_17
REMARK    2  A    between atoms: N_3  and  C_4
REMARK    3  A    between atoms: C_4  and  C_5
REMARK    4  A    between atoms: C_4  and  C_11
REMARK                            x       y       z     vdW  Elec       q    Type
REMARK                         _______ _______ _______ _____ _____    ______ ____
ROOT
ATOM      1  O   UNL     1       5.369   4.093  18.397  0.00  0.00    +0.000 OA
ATOM      2  C   UNL     1       5.002   4.964  17.613  0.00  0.00    +0.000 C 
ATOM      3  N   UNL     1       4.115   5.987  17.962  0.00  0.00    +0.000 N 
ATOM      4  H   UNL     1       3.768   6.558  17.198  0.00  0.00    +0.000 HD
ENDROOT
BRANCH   2   5
ATOM      5  C   UNL     1       5.587   5.145  16.184  0.00  0.00    +0.000 C 
ATOM      6  C   UNL     1       6.844   6.039  16.088  0.00  0.00    +0.000 C 
ATOM      7  O   UNL     1       7.841   5.636  15.124  0.00  0.00    +0.000 OA
ATOM      8  C   UNL     1       7.290   4.932  14.092  0.00  0.00    +0.000 A 
ATOM      9  C   UNL     1       7.775   5.121  12.803  0.00  0.00    +0.000 A 
ATOM     10  C   UNL     1       7.208   4.405  11.744  0.00  0.00    +0.000 A 
ATOM     11  C   UNL     1       6.206   3.460  11.991  0.00  0.00    +0.000 A 
ATOM     12  C   UNL     1       5.748   3.251  13.292  0.00  0.00    +0.000 A 
ATOM     13  C   UNL     1       6.270   4.015  14.329  0.00  0.00    +0.000 A 
ATOM     14  O   UNL     1       5.764   3.849  15.587  0.00  0.00    +0.000 OA
ENDBRANCH   2   5
BRANCH   3  15
ATOM     15  C   UNL     1       3.409   6.121  19.235  0.00  0.00    +0.000 C 
BRANCH  15  16
ATOM     16  C   UNL     1       2.526   7.380  19.249  0.00  0.00    +0.000 A 
ATOM     17  C   UNL     1       2.250   8.111  18.078  0.00  0.00    +0.000 A 
ATOM     18  C   UNL     1       1.316   9.154  18.082  0.00  0.00    +0.000 A 
ATOM     19  C   UNL     1       0.645   9.486  19.257  0.00  0.00    +0.000 A 
ATOM     20  C   UNL     1       0.914   8.784  20.428  0.00  0.00    +0.000 A 
ATOM     21  C   UNL     1       1.851   7.743  20.427  0.00  0.00    +0.000 A 
ENDBRANCH  15  16
BRANCH  15  22
ATOM     22  C   UNL     1       2.529   4.898  19.577  0.00  0.00    +0.000 A 
ATOM     23  C   UNL     1       2.425   4.468  20.905  0.00  0.00    +0.000 A 
ATOM     24  C   UNL     1       1.493   3.495  21.243  0.00  0.00    +0.000 A 
ATOM     25  C   UNL     1       0.655   2.979  20.256  0.00  0.00    +0.000 A 
ATOM     26  C   UNL     1       0.815   3.453  18.962  0.00  0.00    +0.000 A 
ATOM     27  N   UNL     1       1.728   4.390  18.599  0.00  0.00    +0.000 NA
ENDBRANCH  15  22
ENDBRANCH   3  15
TORSDOF 4
ENDMDL
MODEL 4
REMARK VINA RESULT:      -8.9      3.240      7.691
REMARK  Name = 
REMARK  4 active torsions:
REMARK  status: ('A' for Active; 'I' for Inactive)
REMARK    1  A    between atoms: C_2  and  C_17
REMARK    2  A    between atoms: N_3  and  C_4
REMARK    3  A    between atoms: C_4  and  C_5
REMARK    4  A    between atoms: C_4  and  C_11
REMARK                            x       y       z     vdW  Elec       q    Type
REMARK                         _______ _______ _______ _____ _____    ______ ____
ROOT
ATOM      1  O   UNL     1       2.658   8.818  17.061  0.00  0.00    +0.000 OA
ATOM      2  C   UNL     1       2.195   8.390  18.115  0.00  0.00    +0.000 C 
ATOM      3  N   UNL     1       2.336   7.064  18.532  0.00  0.00    +0.000 N 
ATOM      4  H   UNL     1       1.787   6.789  19.341  0.00  0.00    +0.000 HD
ENDROOT
BRANCH   2   5
ATOM      5  C   UNL     1       1.532   9.289  19.197  0.00  0.00    +0.000 C 
ATOM      6  C   UNL     1       0.698  10.473  18.660  0.00  0.00    +0.000 C 
ATOM      7  O   UNL     1      -0.498  10.800  19.400  0.00  0.00    +0.000 OA
ATOM      8  C   UNL     1      -0.393  10.437  20.713  0.00  0.00    +0.000 A 
ATOM      9  C   UNL     1      -0.941  11.258  21.692  0.00  0.00    +0.000 A 
ATOM     10  C   UNL     1      -0.830  10.891  23.036  0.00  0.00    +0.000 A 
ATOM     11  C   UNL     1      -0.228   9.677  23.387  0.00  0.00    +0.000 A 
ATOM     12  C   UNL     1       0.289   8.843  22.396  0.00  0.00    +0.000 A 
ATOM     13  C   UNL     1       0.234   9.247  21.068  0.00  0.00    +0.000 A 
ATOM     14  O   UNL     1       0.807   8.453  20.115  0.00  0.00    +0.000 OA
ENDBRANCH   2   5
BRANCH   3  15
ATOM     15  C   UNL     1       2.932   5.974  17.762  0.00  0.00    +0.000 C 
BRANCH  15  16
ATOM     16  C   UNL     1       4.458   5.938  17.942  0.00  0.00    +0.000 A 
ATOM     17  C   UNL     1       5.330   6.603  17.058  0.00  0.00    +0.000 A 
ATOM     18  C   UNL     1       6.700   6.694  17.329  0.00  0.00    +0.000 A 
ATOM     19  C   UNL     1       7.223   6.121  18.486  0.00  0.00    +0.000 A 
ATOM     20  C   UNL     1       6.380   5.447  19.365  0.00  0.00    +0.000 A 
ATOM     21  C   UNL     1       5.010   5.352  19.094  0.00  0.00    +0.000 A 
ENDBRANCH  15  16
BRANCH  15  22
ATOM     22  C   UNL     1       2.360   4.585  18.125  0.00  0.00    +0.000 A 
ATOM     23  C   UNL     1       2.758   3.458  17.395  0.00  0.00    +0.000 A 
ATOM     24  C   UNL     1       2.398   2.191  17.834  0.00  0.00    +0.000 A 
ATOM     25  C   UNL     1       1.666   2.058  19.012  0.00  0.00    +0.000 A 
ATOM     26  C   UNL     1       1.306   3.219  19.682  0.00  0.00    +0.000 A 
ATOM     27  N   UNL     1       1.628   4.471  19.268  0.00  0.00    +0.000 NA
ENDBRANCH  15  22
ENDBRANCH   3  15
TORSDOF 4
ENDMDL
MODEL 5
REMARK VINA RESULT:      -8.3      3.260      7.733
REMARK  Name = 
REMARK  4 active torsions:
REMARK  status: ('A' for Active; 'I' for Inactive)
REMARK    1  A    between atoms: C_2  and  C_17
REMARK    2  A    between atoms: N_3  and  C_4
REMARK    3  A    between atoms: C_4  and  C_5
REMARK    4  A    between atoms: C_4  and  C_11
REMARK                            x       y       z     vdW  Elec       q    Type
REMARK                         _______ _______ _______ _____ _____    ______ ____
ROOT
ATOM      1  O   UNL     1       2.613   8.748  17.460  0.00  0.00    +0.000 OA
ATOM      2  C   UNL     1       2.136   8.093  18.382  0.00  0.00    +0.000 C 
ATOM      3  N   UNL     1       2.461   6.754  18.622  0.00  0.00    +0.000 N 
ATOM      4  H   UNL     1       1.895   6.274  19.315  0.00  0.00    +0.000 HD
ENDROOT
BRANCH   2   5
ATOM      5  C   UNL     1       1.236   8.696  19.497  0.00  0.00    +0.000 C 
ATOM      6  C   UNL     1       1.452   8.117  20.913  0.00  0.00    +0.000 C 
ATOM      7  O   UNL     1       1.339   9.050  22.009  0.00  0.00    +0.000 OA
ATOM      8  C   UNL     1       0.515  10.095  21.699  0.00  0.00    +0.000 A 
ATOM      9  C   UNL     1      -0.328  10.611  22.677  0.00  0.00    +0.000 A 
ATOM     10  C   UNL     1      -1.176  11.676  22.359  0.00  0.00    +0.000 A 
ATOM     11  C   UNL     1      -1.129  12.258  21.088  0.00  0.00    +0.000 A 
ATOM     12  C   UNL     1      -0.256  11.756  20.122  0.00  0.00    +0.000 A 
ATOM     13  C   UNL     1       0.535  10.654  20.425  0.00  0.00    +0.000 A 
ATOM     14  O   UNL     1       1.334  10.130  19.449  0.00  0.00    +0.000 OA
ENDBRANCH   2   5
BRANCH   3  15
ATOM     15  C   UNL     1       3.299   5.905  17.778  0.00  0.00    +0.000 C 
BRANCH  15  16
ATOM     16  C   UNL     1       4.789   6.103  18.099  0.00  0.00    +0.000 A 
ATOM     17  C   UNL     1       5.411   5.461  19.187  0.00  0.00    +0.000 A 
ATOM     18  C   UNL     1       6.798   5.524  19.365  0.00  0.00    +0.000 A 
ATOM     19  C   UNL     1       7.587   6.233  18.462  0.00  0.00    +0.000 A 
ATOM     20  C   UNL     1       6.990   6.886  17.388  0.00  0.00    +0.000 A 
ATOM     21  C   UNL     1       5.603   6.827  17.210  0.00  0.00    +0.000 A 
ENDBRANCH  15  16
BRANCH  15  22
ATOM     22  C   UNL     1       2.965   4.400  17.902  0.00  0.00    +0.000 A 
ATOM     23  C   UNL     1       3.798   3.453  17.295  0.00  0.00    +0.000 A 
ATOM     24  C   UNL     1       3.611   2.102  17.561  0.00  0.00    +0.000 A 
ATOM     25  C   UNL     1       2.611   1.712  18.449  0.00  0.00    +0.000 A 
ATOM     26  C   UNL     1       1.824   2.707  19.012  0.00  0.00    +0.000 A 
ATOM     27  N   UNL     1       1.972   4.033  18.759  0.00  0.00    +0.000 NA
ENDBRANCH  15  22
ENDBRANCH   3  15
TORSDOF 4
ENDMDL
MODEL 6
REMARK VINA RESULT:      -8.2      3.327      7.671
REMARK  Name = 
REMARK  4 active torsions:
REMARK  status: ('A' for Active; 'I' for Inactive)
REMARK    1  A    between atoms: C_2  and  C_17
REMARK    2  A    between atoms: N_3  and  C_4
REMARK    3  A    between atoms: C_4  and  C_5
REMARK    4  A    between atoms: C_4  and  C_11
REMARK                            x       y       z     vdW  Elec       q    Type
REMARK                         _______ _______ _______ _____ _____    ______ ____
ROOT
ATOM      1  O   UNL     1       2.544   8.745  17.118  0.00  0.00    +0.000 OA
ATOM      2  C   UNL     1       2.034   8.280  18.134  0.00  0.00    +0.000 C 
ATOM      3  N   UNL     1       2.268   6.977  18.583  0.00  0.00    +0.000 N 
ATOM      4  H   UNL     1       1.680   6.655  19.345  0.00  0.00    +0.000 HD
ENDROOT
BRANCH   2   5
ATOM      5  C   UNL     1       1.194   9.116  19.141  0.00  0.00    +0.000 C 
ATOM      6  C   UNL     1       1.260   8.648  20.612  0.00  0.00    +0.000 C 
ATOM      7  O   UNL     1       1.247   9.688  21.613  0.00  0.00    +0.000 OA
ATOM      8  C   UNL     1       0.609  10.810  21.167  0.00  0.00    +0.000 A 
ATOM      9  C   UNL     1      -0.184  11.538  22.048  0.00  0.00    +0.000 A 
ATOM     10  C   UNL     1      -0.843  12.684  21.591  0.00  0.00    +0.000 A 
ATOM     11  C   UNL     1      -0.654  13.127  20.278  0.00  0.00    +0.000 A 
ATOM     12  C   UNL     1       0.169  12.410  19.410  0.00  0.00    +0.000 A 
ATOM     13  C   UNL     1       0.767  11.237  19.852  0.00  0.00    +0.000 A 
ATOM     14  O   UNL     1       1.514  10.507  18.971  0.00  0.00    +0.000 OA
ENDBRANCH   2   5
BRANCH   3  15
ATOM     15  C   UNL     1       3.034   5.947  17.885  0.00  0.00    +0.000 C 
BRANCH  15  16
ATOM     16  C   UNL     1       4.541   6.107  18.140  0.00  0.00    +0.000 A 
ATOM     17  C   UNL     1       5.192   5.454  19.205  0.00  0.00    +0.000 A 
ATOM     18  C   UNL     1       6.586   5.481  19.323  0.00  0.00    +0.000 A 
ATOM     19  C   UNL     1       7.354   6.164  18.382  0.00  0.00    +0.000 A 
ATOM     20  C   UNL     1       6.729   6.827  17.330  0.00  0.00    +0.000 A 
ATOM     21  C   UNL     1       5.334   6.804  17.212  0.00  0.00    +0.000 A 
ENDBRANCH  15  16
BRANCH  15  22
ATOM     22  C   UNL     1       2.619   4.509  18.272  0.00  0.00    +0.000 A 
ATOM     23  C   UNL     1       1.736   4.305  19.338  0.00  0.00    +0.000 A 
ATOM     24  C   UNL     1       1.215   3.038  19.568  0.00  0.00    +0.000 A 
ATOM     25  C   UNL     1       1.559   1.992  18.714  0.00  0.00    +0.000 A 
ATOM     26  C   UNL     1       2.439   2.269  17.678  0.00  0.00    +0.000 A 
ATOM     27  N   UNL     1       2.978   3.492  17.439  0.00  0.00    +0.000 NA
ENDBRANCH  15  22
ENDBRANCH   3  15
TORSDOF 4
ENDMDL
MODEL 7
REMARK VINA RESULT:      -8.2      3.372      8.055
REMARK  Name = 
REMARK  4 active torsions:
REMARK  status: ('A' for Active; 'I' for Inactive)
REMARK    1  A    between atoms: C_2  and  C_17
REMARK    2  A    between atoms: N_3  and  C_4
REMARK    3  A    between atoms: C_4  and  C_5
REMARK    4  A    between atoms: C_4  and  C_11
REMARK                            x       y       z     vdW  Elec       q    Type
REMARK                         _______ _______ _______ _____ _____    ______ ____
ROOT
ATOM      1  O   UNL     1       1.433   7.468  21.384  0.00  0.00    +0.000 OA
ATOM      2  C   UNL     1       1.698   7.978  20.298  0.00  0.00    +0.000 C 
ATOM      3  N   UNL     1       2.492   7.355  19.331  0.00  0.00    +0.000 N 
ATOM      4  H   UNL     1       2.766   7.930  18.540  0.00  0.00    +0.000 HD
ENDROOT
BRANCH   2   5
ATOM      5  C   UNL     1       1.066   9.303  19.787  0.00  0.00    +0.000 C 
ATOM      6  C   UNL     1       0.874   9.403  18.257  0.00  0.00    +0.000 C 
ATOM      7  O   UNL     1      -0.315  10.085  17.806  0.00  0.00    +0.000 OA
ATOM      8  C   UNL     1      -0.747  11.005  18.718  0.00  0.00    +0.000 A 
ATOM      9  C   UNL     1      -1.271  12.213  18.272  0.00  0.00    +0.000 A 
ATOM     10  C   UNL     1      -1.708  13.158  19.206  0.00  0.00    +0.000 A 
ATOM     11  C   UNL     1      -1.676  12.863  20.573  0.00  0.00    +0.000 A 
ATOM     12  C   UNL     1      -1.180  11.635  21.011  0.00  0.00    +0.000 A 
ATOM     13  C   UNL     1      -0.686  10.729  20.081  0.00  0.00    +0.000 A 
ATOM     14  O   UNL     1      -0.140   9.560  20.528  0.00  0.00    +0.000 OA
ENDBRANCH   2   5
BRANCH   3  15
ATOM     15  C   UNL     1       3.211   6.093  19.486  0.00  0.00    +0.000 C 
BRANCH  15  16
ATOM     16  C   UNL     1       2.245   4.898  19.465  0.00  0.00    +0.000 A 
ATOM     17  C   UNL     1       1.790   4.327  18.260  0.00  0.00    +0.000 A 
ATOM     18  C   UNL     1       1.044   3.142  18.261  0.00  0.00    +0.000 A 
ATOM     19  C   UNL     1       0.737   2.510  19.464  0.00  0.00    +0.000 A 
ATOM     20  C   UNL     1       1.167   3.066  20.666  0.00  0.00    +0.000 A 
ATOM     21  C   UNL     1       1.910   4.252  20.668  0.00  0.00    +0.000 A 
ENDBRANCH  15  16
BRANCH  15  22
ATOM     22  C   UNL     1       4.295   5.870  18.406  0.00  0.00    +0.000 A 
ATOM     23  C   UNL     1       4.309   6.675  17.261  0.00  0.00    +0.000 A 
ATOM     24  C   UNL     1       5.384   6.606  16.385  0.00  0.00    +0.000 A 
ATOM     25  C   UNL     1       6.448   5.754  16.673  0.00  0.00    +0.000 A 
ATOM     26  C   UNL     1       6.364   4.986  17.825  0.00  0.00    +0.000 A 
ATOM     27  N   UNL     1       5.319   5.018  18.691  0.00  0.00    +0.000 NA
ENDBRANCH  15  22
ENDBRANCH   3  15
TORSDOF 4
ENDMDL
MODEL 8
REMARK VINA RESULT:      -8.1      3.358      5.824
REMARK  Name = 
REMARK  4 active torsions:
REMARK  status: ('A' for Active; 'I' for Inactive)
REMARK    1  A    between atoms: C_2  and  C_17
REMARK    2  A    between atoms: N_3  and  C_4
REMARK    3  A    between atoms: C_4  and  C_5
REMARK    4  A    between atoms: C_4  and  C_11
REMARK                            x       y       z     vdW  Elec       q    Type
REMARK                         _______ _______ _______ _____ _____    ______ ____
ROOT
ATOM      1  O   UNL     1       2.598  10.240  17.542  0.00  0.00    +0.000 OA
ATOM      2  C   UNL     1       2.047   9.203  17.903  0.00  0.00    +0.000 C 
ATOM      3  N   UNL     1       0.812   9.179  18.559  0.00  0.00    +0.000 N 
ATOM      4  H   UNL     1       0.528   8.283  18.941  0.00  0.00    +0.000 HD
ENDROOT
BRANCH   2   5
ATOM      5  C   UNL     1       2.558   7.780  17.543  0.00  0.00    +0.000 C 
ATOM      6  C   UNL     1       4.084   7.655  17.331  0.00  0.00    +0.000 C 
ATOM      7  O   UNL     1       4.695   6.431  17.795  0.00  0.00    +0.000 OA
ATOM      8  C   UNL     1       3.808   5.393  17.793  0.00  0.00    +0.000 A 
ATOM      9  C   UNL     1       4.245   4.125  17.426  0.00  0.00    +0.000 A 
ATOM     10  C   UNL     1       3.337   3.062  17.418  0.00  0.00    +0.000 A 
ATOM     11  C   UNL     1       2.017   3.261  17.836  0.00  0.00    +0.000 A 
ATOM     12  C   UNL     1       1.594   4.529  18.234  0.00  0.00    +0.000 A 
ATOM     13  C   UNL     1       2.485   5.593  18.176  0.00  0.00    +0.000 A 
ATOM     14  O   UNL     1       2.039   6.843  18.501  0.00  0.00    +0.000 OA
ENDBRANCH   2   5
BRANCH   3  15
ATOM     15  C   UNL     1       0.054  10.341  19.016  0.00  0.00    +0.000 C 
BRANCH  15  16
ATOM     16  C   UNL     1      -1.225  10.531  18.186  0.00  0.00    +0.000 A 
ATOM     17  C   UNL     1      -1.510   9.733  17.060  0.00  0.00    +0.000 A 
ATOM     18  C   UNL     1      -2.750   9.810  16.417  0.00  0.00    +0.000 A 
ATOM     19  C   UNL     1      -3.727  10.687  16.884  0.00  0.00    +0.000 A 
ATOM     20  C   UNL     1      -3.460  11.494  17.987  0.00  0.00    +0.000 A 
ATOM     21  C   UNL     1      -2.219  11.421  18.630  0.00  0.00    +0.000 A 
ENDBRANCH  15  16
BRANCH  15  22
ATOM     22  C   UNL     1      -0.335  10.269  20.511  0.00  0.00    +0.000 A 
ATOM     23  C   UNL     1      -0.288   9.040  21.181  0.00  0.00    +0.000 A 
ATOM     24  C   UNL     1      -0.451   9.002  22.559  0.00  0.00    +0.000 A 
ATOM     25  C   UNL     1      -0.632  10.193  23.260  0.00  0.00    +0.000 A 
ATOM     26  C   UNL     1      -0.668  11.371  22.529  0.00  0.00    +0.000 A 
ATOM     27  N   UNL     1      -0.529  11.439  21.180  0.00  0.00    +0.000 NA
ENDBRANCH  15  22
ENDBRANCH   3  15
TORSDOF 4
ENDMDL
MODEL 9
REMARK VINA RESULT:      -8.0      3.827      6.666
REMARK  Name = 
REMARK  4 active torsions:
REMARK  status: ('A' for Active; 'I' for Inactive)
REMARK    1  A    between atoms: C_2  and  C_17
REMARK    2  A    between atoms: N_3  and  C_4
REMARK    3  A    between atoms: C_4  and  C_5
REMARK    4  A    between atoms: C_4  and  C_11
REMARK                            x       y       z     vdW  Elec       q    Type
REMARK                         _______ _______ _______ _____ _____    ______ ____
ROOT
ATOM      1  O   UNL     1       2.221   9.733  17.327  0.00  0.00    +0.000 OA
ATOM      2  C   UNL     1       1.785   8.976  18.191  0.00  0.00    +0.000 C 
ATOM      3  N   UNL     1       0.723   9.309  19.037  0.00  0.00    +0.000 N 
ATOM      4  H   UNL     1       0.549   8.670  19.807  0.00  0.00    +0.000 HD
ENDROOT
BRANCH   2   5
ATOM      5  C   UNL     1       2.240   7.499  18.358  0.00  0.00    +0.000 C 
ATOM      6  C   UNL     1       3.598   7.144  17.712  0.00  0.00    +0.000 C 
ATOM      7  O   UNL     1       4.421   6.201  18.432  0.00  0.00    +0.000 OA
ATOM      8  C   UNL     1       3.669   5.362  19.204  0.00  0.00    +0.000 A 
ATOM      9  C   UNL     1       4.041   4.028  19.322  0.00  0.00    +0.000 A 
ATOM     10  C   UNL     1       3.269   3.167  20.107  0.00  0.00    +0.000 A 
ATOM     11  C   UNL     1       2.169   3.660  20.819  0.00  0.00    +0.000 A 
ATOM     12  C   UNL     1       1.822   5.007  20.722  0.00  0.00    +0.000 A 
ATOM     13  C   UNL     1       2.555   5.841  19.887  0.00  0.00    +0.000 A 
ATOM     14  O   UNL     1       2.162   7.142  19.748  0.00  0.00    +0.000 OA
ENDBRANCH   2   5
BRANCH   3  15
ATOM     15  C   UNL     1       0.055  10.606  19.116  0.00  0.00    +0.000 C 
BRANCH  15  16
ATOM     16  C   UNL     1      -1.280  10.589  18.354  0.00  0.00    +0.000 A 
ATOM     17  C   UNL     1      -2.324  11.486  18.657  0.00  0.00    +0.000 A 
ATOM     18  C   UNL     1      -3.464  11.564  17.848  0.00  0.00    +0.000 A 
ATOM     19  C   UNL     1      -3.583  10.746  16.726  0.00  0.00    +0.000 A 
ATOM     20  C   UNL     1      -2.569   9.844  16.418  0.00  0.00    +0.000 A 
ATOM     21  C   UNL     1      -1.429   9.761  17.227  0.00  0.00    +0.000 A 
ENDBRANCH  15  16
BRANCH  15  22
ATOM     22  C   UNL     1      -0.212  11.069  20.567  0.00  0.00    +0.000 A 
ATOM     23  C   UNL     1      -0.411  12.428  20.835  0.00  0.00    +0.000 A 
ATOM     24  C   UNL     1      -0.837  12.825  22.096  0.00  0.00    +0.000 A 
ATOM     25  C   UNL     1      -1.085  11.860  23.069  0.00  0.00    +0.000 A 
ATOM     26  C   UNL     1      -0.865  10.533  22.731  0.00  0.00    +0.000 A 
ATOM     27  N   UNL     1      -0.433  10.115  21.513  0.00  0.00    +0.000 NA
ENDBRANCH  15  22
ENDBRANCH   3  15
TORSDOF 4
ENDMDL
