MODEL 1
REMARK VINA RESULT:      -6.9      0.000      0.000
REMARK  Name = 
REMARK  8 active torsions:
REMARK  status: ('A' for Active; 'I' for Inactive)
REMARK    1  A    between atoms: C_1  and  C_2
REMARK    2  A    between atoms: C_4  and  C_5
REMARK    3  A    between atoms: C_5  and  C_6
REMARK    4  A    between atoms: C_5  and  C_7
REMARK    5  A    between atoms: N_11  and  C_12
REMARK    6  A    between atoms: C_14  and  N_15
REMARK    7  A    between atoms: C_22  and  C_23
REMARK    8  A    between atoms: C_23  and  C_24
REMARK                            x       y       z     vdW  Elec       q    Type
REMARK                         _______ _______ _______ _____ _____    ______ ____
ROOT
ATOM      1  C   UNL     1      -3.727  10.253  17.755  0.00  0.00    +0.000 C 
ATOM      2  C   UNL     1      -3.319  11.410  18.614  0.00  0.00    +0.000 A 
ATOM      3  C   UNL     1      -4.274  12.172  19.292  0.00  0.00    +0.000 A 
ATOM      4  C   UNL     1      -3.890  13.251  20.109  0.00  0.00    +0.000 A 
ATOM      5  C   UNL     1      -2.551  13.650  20.139  0.00  0.00    +0.000 A 
ATOM      6  C   UNL     1      -1.597  12.756  19.692  0.00  0.00    +0.000 A 
ATOM      7  C   UNL     1      -1.972  11.682  18.854  0.00  0.00    +0.000 A 
ENDROOT
BRANCH   6   8
ATOM      8  N   UNL     1      -0.353  12.742  20.410  0.00  0.00    +0.000 N 
ATOM      9  C   UNL     1       0.747  12.052  19.755  0.00  0.00    +0.000 C 
ATOM     10  C   UNL     1       0.716  10.698  20.385  0.00  0.00    +0.000 A 
ATOM     11  C   UNL     1       0.083  10.809  21.624  0.00  0.00    +0.000 A 
ATOM     12  C   UNL     1      -0.309   9.719  22.377  0.00  0.00    +0.000 A 
ATOM     13  C   UNL     1      -0.048   8.460  21.844  0.00  0.00    +0.000 A 
ATOM     14  C   UNL     1       0.599   8.328  20.600  0.00  0.00    +0.000 A 
ATOM     15  C   UNL     1       1.005   9.449  19.849  0.00  0.00    +0.000 A 
ATOM     16  C   UNL     1      -0.498  12.164  21.706  0.00  0.00    +0.000 C 
ATOM     17  O   UNL     1      -1.147  12.567  22.647  0.00  0.00    +0.000 OA
BRANCH  15  18
ATOM     18  C   UNL     1       1.601   9.263  18.473  0.00  0.00    +0.000 C 
ATOM     19  C   UNL     1       2.238   7.891  18.311  0.00  0.00    +0.000 C 
ATOM     20  F   UNL     1       0.672   9.408  17.484  0.00  0.00    +0.000 F 
ATOM     21  F   UNL     1       2.563  10.193  18.204  0.00  0.00    +0.000 F 
ENDBRANCH  15  18
ENDBRANCH   6   8
BRANCH   4  22
ATOM     22  C   UNL     1      -4.830  13.774  21.196  0.00  0.00    +0.000 C 
ATOM     23  C   UNL     1      -6.264  13.290  20.878  0.00  0.00    +0.000 C 
BRANCH  22  24
ATOM     24  C   UNL     1      -4.433  13.386  22.592  0.00  0.00    +0.000 A 
ATOM     25  N   UNL     1      -4.608  12.200  23.156  0.00  0.00    +0.000 NA
ATOM     26  N   UNL     1      -4.134  12.259  24.442  0.00  0.00    +0.000 NA
ATOM     27  C   UNL     1      -3.670  13.469  24.641  0.00  0.00    +0.000 A 
ATOM     28  N   UNL     1      -3.844  14.207  23.504  0.00  0.00    +0.000 N 
ATOM     29  C   UNL     1      -3.501  15.607  23.366  0.00  0.00    +0.000 C 
ENDBRANCH  22  24
ENDBRANCH   4  22
TORSDOF 4
ENDMDL
MODEL 2
REMARK VINA RESULT:      -6.7      3.410      4.835
REMARK  Name = 
REMARK  8 active torsions:
REMARK  status: ('A' for Active; 'I' for Inactive)
REMARK    1  A    between atoms: C_1  and  C_2
REMARK    2  A    between atoms: C_4  and  C_5
REMARK    3  A    between atoms: C_5  and  C_6
REMARK    4  A    between atoms: C_5  and  C_7
REMARK    5  A    between atoms: N_11  and  C_12
REMARK    6  A    between atoms: C_14  and  N_15
REMARK    7  A    between atoms: C_22  and  C_23
REMARK    8  A    between atoms: C_23  and  C_24
REMARK                            x       y       z     vdW  Elec       q    Type
REMARK                         _______ _______ _______ _____ _____    ______ ____
ROOT
ATOM      1  C   UNL     1      -3.479  10.053  14.761  0.00  0.00    +0.000 C 
ATOM      2  C   UNL     1      -3.481  10.705  16.108  0.00  0.00    +0.000 A 
ATOM      3  C   UNL     1      -4.642  11.287  16.622  0.00  0.00    +0.000 A 
ATOM      4  C   UNL     1      -4.647  11.890  17.894  0.00  0.00    +0.000 A 
ATOM      5  C   UNL     1      -3.446  12.026  18.597  0.00  0.00    +0.000 A 
ATOM      6  C   UNL     1      -2.379  11.234  18.217  0.00  0.00    +0.000 A 
ATOM      7  C   UNL     1      -2.357  10.644  16.934  0.00  0.00    +0.000 A 
ENDROOT
BRANCH   6   8
ATOM      8  N   UNL     1      -1.542  10.746  19.277  0.00  0.00    +0.000 N 
ATOM      9  C   UNL     1      -1.481  11.577  20.469  0.00  0.00    +0.000 C 
ATOM     10  C   UNL     1      -0.236  12.374  20.260  0.00  0.00    +0.000 A 
ATOM     11  C   UNL     1       0.588  11.670  19.379  0.00  0.00    +0.000 A 
ATOM     12  C   UNL     1       1.718  12.213  18.800  0.00  0.00    +0.000 A 
ATOM     13  C   UNL     1       2.022  13.531  19.128  0.00  0.00    +0.000 A 
ATOM     14  C   UNL     1       1.209  14.253  20.022  0.00  0.00    +0.000 A 
ATOM     15  C   UNL     1       0.066  13.682  20.616  0.00  0.00    +0.000 A 
ATOM     16  C   UNL     1      -0.199  10.544  18.838  0.00  0.00    +0.000 C 
ATOM     17  O   UNL     1       0.219   9.759  18.016  0.00  0.00    +0.000 OA
BRANCH  15  18
ATOM     18  C   UNL     1      -0.836  14.526  21.488  0.00  0.00    +0.000 C 
ATOM     19  C   UNL     1      -0.844  14.042  22.931  0.00  0.00    +0.000 C 
ATOM     20  F   UNL     1      -0.466  15.839  21.493  0.00  0.00    +0.000 F 
ATOM     21  F   UNL     1      -2.128  14.515  21.047  0.00  0.00    +0.000 F 
ENDBRANCH  15  18
ENDBRANCH   6   8
BRANCH   4  22
ATOM     22  C   UNL     1      -5.960  12.093  18.651  0.00  0.00    +0.000 C 
ATOM     23  C   UNL     1      -6.988  12.729  17.686  0.00  0.00    +0.000 C 
BRANCH  22  24
ATOM     24  C   UNL     1      -6.514  10.842  19.271  0.00  0.00    +0.000 A 
ATOM     25  N   UNL     1      -6.407   9.613  18.788  0.00  0.00    +0.000 NA
ATOM     26  N   UNL     1      -7.066   8.757  19.634  0.00  0.00    +0.000 NA
ATOM     27  C   UNL     1      -7.555   9.469  20.620  0.00  0.00    +0.000 A 
ATOM     28  N   UNL     1      -7.233  10.783  20.426  0.00  0.00    +0.000 N 
ATOM     29  C   UNL     1      -7.650  11.872  21.283  0.00  0.00    +0.000 C 
ENDBRANCH  22  24
ENDBRANCH   4  22
TORSDOF 4
ENDMDL
MODEL 3
REMARK VINA RESULT:      -6.7      1.442      2.061
REMARK  Name = 
REMARK  8 active torsions:
REMARK  status: ('A' for Active; 'I' for Inactive)
REMARK    1  A    between atoms: C_1  and  C_2
REMARK    2  A    between atoms: C_4  and  C_5
REMARK    3  A    between atoms: C_5  and  C_6
REMARK    4  A    between atoms: C_5  and  C_7
REMARK    5  A    between atoms: N_11  and  C_12
REMARK    6  A    between atoms: C_14  and  N_15
REMARK    7  A    between atoms: C_22  and  C_23
REMARK    8  A    between atoms: C_23  and  C_24
REMARK                            x       y       z     vdW  Elec       q    Type
REMARK                         _______ _______ _______ _____ _____    ______ ____
ROOT
ATOM      1  C   UNL     1      -3.135  10.799  16.835  0.00  0.00    +0.000 C 
ATOM      2  C   UNL     1      -2.813  11.633  18.037  0.00  0.00    +0.000 A 
ATOM      3  C   UNL     1      -3.777  11.883  19.016  0.00  0.00    +0.000 A 
ATOM      4  C   UNL     1      -3.471  12.656  20.151  0.00  0.00    +0.000 A 
ATOM      5  C   UNL     1      -2.228  13.291  20.238  0.00  0.00    +0.000 A 
ATOM      6  C   UNL     1      -1.209  12.837  19.422  0.00  0.00    +0.000 A 
ATOM      7  C   UNL     1      -1.511  12.079  18.269  0.00  0.00    +0.000 A 
ENDROOT
BRANCH   6   8
ATOM      8  N   UNL     1       0.108  12.831  19.995  0.00  0.00    +0.000 N 
ATOM      9  C   UNL     1       1.091  12.007  19.310  0.00  0.00    +0.000 C 
ATOM     10  C   UNL     1       1.073  10.738  20.096  0.00  0.00    +0.000 A 
ATOM     11  C   UNL     1       0.594  11.025  21.375  0.00  0.00    +0.000 A 
ATOM     12  C   UNL     1       0.242  10.053  22.291  0.00  0.00    +0.000 A 
ATOM     13  C   UNL     1       0.381   8.729  21.887  0.00  0.00    +0.000 A 
ATOM     14  C   UNL     1       0.872   8.419  20.604  0.00  0.00    +0.000 A 
ATOM     15  C   UNL     1       1.239   9.421  19.684  0.00  0.00    +0.000 A 
ATOM     16  C   UNL     1       0.089  12.413  21.359  0.00  0.00    +0.000 C 
ATOM     17  O   UNL     1      -0.427  12.958  22.310  0.00  0.00    +0.000 OA
BRANCH  15  18
ATOM     18  C   UNL     1       1.662   9.046  18.283  0.00  0.00    +0.000 C 
ATOM     19  C   UNL     1       2.255   7.646  18.225  0.00  0.00    +0.000 C 
ATOM     20  F   UNL     1       0.623   9.092  17.400  0.00  0.00    +0.000 F 
ATOM     21  F   UNL     1       2.598   9.906  17.784  0.00  0.00    +0.000 F 
ENDBRANCH  15  18
ENDBRANCH   6   8
BRANCH   4  22
ATOM     22  C   UNL     1      -4.322  12.547  21.417  0.00  0.00    +0.000 C 
ATOM     23  C   UNL     1      -3.902  13.676  22.387  0.00  0.00    +0.000 C 
BRANCH  22  24
ATOM     24  C   UNL     1      -5.803  12.582  21.168  0.00  0.00    +0.000 A 
ATOM     25  N   UNL     1      -6.669  11.619  21.448  0.00  0.00    +0.000 NA
ATOM     26  N   UNL     1      -7.916  12.028  21.048  0.00  0.00    +0.000 NA
ATOM     27  C   UNL     1      -7.797  13.231  20.539  0.00  0.00    +0.000 A 
ATOM     28  N   UNL     1      -6.485  13.612  20.594  0.00  0.00    +0.000 N 
ATOM     29  C   UNL     1      -5.963  14.858  20.075  0.00  0.00    +0.000 C 
ENDBRANCH  22  24
ENDBRANCH   4  22
TORSDOF 4
ENDMDL
MODEL 4
REMARK VINA RESULT:      -6.6      3.149      6.451
REMARK  Name = 
REMARK  8 active torsions:
REMARK  status: ('A' for Active; 'I' for Inactive)
REMARK    1  A    between atoms: C_1  and  C_2
REMARK    2  A    between atoms: C_4  and  C_5
REMARK    3  A    between atoms: C_5  and  C_6
REMARK    4  A    between atoms: C_5  and  C_7
REMARK    5  A    between atoms: N_11  and  C_12
REMARK    6  A    between atoms: C_14  and  N_15
REMARK    7  A    between atoms: C_22  and  C_23
REMARK    8  A    between atoms: C_23  and  C_24
REMARK                            x       y       z     vdW  Elec       q    Type
REMARK                         _______ _______ _______ _____ _____    ______ ____
ROOT
ATOM      1  C   UNL     1      -3.775  10.715  15.928  0.00  0.00    +0.000 C 
ATOM      2  C   UNL     1      -3.781  11.278  17.315  0.00  0.00    +0.000 A 
ATOM      3  C   UNL     1      -2.608  11.337  18.071  0.00  0.00    +0.000 A 
ATOM      4  C   UNL     1      -2.612  11.878  19.370  0.00  0.00    +0.000 A 
ATOM      5  C   UNL     1      -3.825  12.239  19.963  0.00  0.00    +0.000 A 
ATOM      6  C   UNL     1      -4.919  12.426  19.139  0.00  0.00    +0.000 A 
ATOM      7  C   UNL     1      -4.932  11.867  17.842  0.00  0.00    +0.000 A 
ENDROOT
BRANCH   6   8
ATOM      8  N   UNL     1      -5.812  13.491  19.501  0.00  0.00    +0.000 N 
ATOM      9  C   UNL     1      -5.299  14.444  20.472  0.00  0.00    +0.000 C 
ATOM     10  C   UNL     1      -5.857  13.942  21.764  0.00  0.00    +0.000 A 
ATOM     11  C   UNL     1      -6.992  13.181  21.480  0.00  0.00    +0.000 A 
ATOM     12  C   UNL     1      -7.629  12.390  22.417  0.00  0.00    +0.000 A 
ATOM     13  C   UNL     1      -7.086  12.372  23.698  0.00  0.00    +0.000 A 
ATOM     14  C   UNL     1      -5.948  13.141  24.005  0.00  0.00    +0.000 A 
ATOM     15  C   UNL     1      -5.315  13.954  23.043  0.00  0.00    +0.000 A 
ATOM     16  C   UNL     1      -7.046  12.992  20.017  0.00  0.00    +0.000 C 
ATOM     17  O   UNL     1      -7.897  12.343  19.448  0.00  0.00    +0.000 OA
BRANCH  15  18
ATOM     18  C   UNL     1      -4.037  14.681  23.388  0.00  0.00    +0.000 C 
ATOM     19  C   UNL     1      -4.178  15.507  24.658  0.00  0.00    +0.000 C 
ATOM     20  F   UNL     1      -2.988  13.825  23.565  0.00  0.00    +0.000 F 
ATOM     21  F   UNL     1      -3.647  15.528  22.391  0.00  0.00    +0.000 F 
ENDBRANCH  15  18
ENDBRANCH   6   8
BRANCH   4  22
ATOM     22  C   UNL     1      -1.314  12.378  20.006  0.00  0.00    +0.000 C 
ATOM     23  C   UNL     1      -1.546  13.817  20.523  0.00  0.00    +0.000 C 
BRANCH  22  24
ATOM     24  C   UNL     1      -0.786  11.496  21.102  0.00  0.00    +0.000 A 
ATOM     25  N   UNL     1      -0.984  11.656  22.402  0.00  0.00    +0.000 NA
ATOM     26  N   UNL     1      -0.317  10.658  23.067  0.00  0.00    +0.000 NA
ATOM     27  C   UNL     1       0.268   9.902  22.169  0.00  0.00    +0.000 A 
ATOM     28  N   UNL     1       0.000  10.399  20.924  0.00  0.00    +0.000 N 
ATOM     29  C   UNL     1       0.523   9.857  19.687  0.00  0.00    +0.000 C 
ENDBRANCH  22  24
ENDBRANCH   4  22
TORSDOF 4
ENDMDL
MODEL 5
REMARK VINA RESULT:      -6.5      1.753      2.598
REMARK  Name = 
REMARK  8 active torsions:
REMARK  status: ('A' for Active; 'I' for Inactive)
REMARK    1  A    between atoms: C_1  and  C_2
REMARK    2  A    between atoms: C_4  and  C_5
REMARK    3  A    between atoms: C_5  and  C_6
REMARK    4  A    between atoms: C_5  and  C_7
REMARK    5  A    between atoms: N_11  and  C_12
REMARK    6  A    between atoms: C_14  and  N_15
REMARK    7  A    between atoms: C_22  and  C_23
REMARK    8  A    between atoms: C_23  and  C_24
REMARK                            x       y       z     vdW  Elec       q    Type
REMARK                         _______ _______ _______ _____ _____    ______ ____
ROOT
ATOM      1  C   UNL     1      -2.895   9.905  16.791  0.00  0.00    +0.000 C 
ATOM      2  C   UNL     1      -2.651  10.945  17.840  0.00  0.00    +0.000 A 
ATOM      3  C   UNL     1      -3.704  11.454  18.604  0.00  0.00    +0.000 A 
ATOM      4  C   UNL     1      -3.473  12.423  19.598  0.00  0.00    +0.000 A 
ATOM      5  C   UNL     1      -2.198  12.980  19.735  0.00  0.00    +0.000 A 
ATOM      6  C   UNL     1      -1.131  12.303  19.177  0.00  0.00    +0.000 A 
ATOM      7  C   UNL     1      -1.353  11.345  18.163  0.00  0.00    +0.000 A 
ENDROOT
BRANCH   6   8
ATOM      8  N   UNL     1       0.097  12.331  19.920  0.00  0.00    +0.000 N 
ATOM      9  C   UNL     1       1.181  11.524  19.381  0.00  0.00    +0.000 C 
ATOM     10  C   UNL     1       1.084  10.260  20.170  0.00  0.00    +0.000 A 
ATOM     11  C   UNL     1       0.432  10.546  21.371  0.00  0.00    +0.000 A 
ATOM     12  C   UNL     1      -0.018   9.572  22.240  0.00  0.00    +0.000 A 
ATOM     13  C   UNL     1       0.202   8.249  21.871  0.00  0.00    +0.000 A 
ATOM     14  C   UNL     1       0.867   7.941  20.668  0.00  0.00    +0.000 A 
ATOM     15  C   UNL     1       1.332   8.945  19.796  0.00  0.00    +0.000 A 
ATOM     16  C   UNL     1      -0.095  11.922  21.273  0.00  0.00    +0.000 C 
ATOM     17  O   UNL     1      -0.745  12.462  22.142  0.00  0.00    +0.000 OA
BRANCH  15  18
ATOM     18  C   UNL     1       1.946   8.569  18.468  0.00  0.00    +0.000 C 
ATOM     19  C   UNL     1       2.520   7.160  18.486  0.00  0.00    +0.000 C 
ATOM     20  F   UNL     1       1.045   8.637  17.445  0.00  0.00    +0.000 F 
ATOM     21  F   UNL     1       2.957   9.417  18.115  0.00  0.00    +0.000 F 
ENDBRANCH  15  18
ENDBRANCH   6   8
BRANCH   4  22
ATOM     22  C   UNL     1      -4.483  12.633  20.727  0.00  0.00    +0.000 C 
ATOM     23  C   UNL     1      -3.827  13.517  21.813  0.00  0.00    +0.000 C 
BRANCH  22  24
ATOM     24  C   UNL     1      -5.793  13.220  20.281  0.00  0.00    +0.000 A 
ATOM     25  N   UNL     1      -6.043  14.502  20.061  0.00  0.00    +0.000 NA
ATOM     26  N   UNL     1      -7.358  14.629  19.692  0.00  0.00    +0.000 NA
ATOM     27  C   UNL     1      -7.887  13.429  19.683  0.00  0.00    +0.000 A 
ATOM     28  N   UNL     1      -6.936  12.518  20.051  0.00  0.00    +0.000 N 
ATOM     29  C   UNL     1      -7.167  11.098  20.206  0.00  0.00    +0.000 C 
ENDBRANCH  22  24
ENDBRANCH   4  22
TORSDOF 4
ENDMDL
MODEL 6
REMARK VINA RESULT:      -6.4      4.084      7.767
REMARK  Name = 
REMARK  8 active torsions:
REMARK  status: ('A' for Active; 'I' for Inactive)
REMARK    1  A    between atoms: C_1  and  C_2
REMARK    2  A    between atoms: C_4  and  C_5
REMARK    3  A    between atoms: C_5  and  C_6
REMARK    4  A    between atoms: C_5  and  C_7
REMARK    5  A    between atoms: N_11  and  C_12
REMARK    6  A    between atoms: C_14  and  N_15
REMARK    7  A    between atoms: C_22  and  C_23
REMARK    8  A    between atoms: C_23  and  C_24
REMARK                            x       y       z     vdW  Elec       q    Type
REMARK                         _______ _______ _______ _____ _____    ______ ____
ROOT
ATOM      1  C   UNL     1      -0.201   8.720  22.758  0.00  0.00    +0.000 C 
ATOM      2  C   UNL     1       0.590   8.534  21.501  0.00  0.00    +0.000 A 
ATOM      3  C   UNL     1       1.059   7.272  21.129  0.00  0.00    +0.000 A 
ATOM      4  C   UNL     1       1.792   7.095  19.941  0.00  0.00    +0.000 A 
ATOM      5  C   UNL     1       2.169   8.212  19.190  0.00  0.00    +0.000 A 
ATOM      6  C   UNL     1       1.495   9.398  19.409  0.00  0.00    +0.000 A 
ATOM      7  C   UNL     1       0.775   9.592  20.609  0.00  0.00    +0.000 A 
ENDROOT
BRANCH   6   8
ATOM      8  N   UNL     1       1.246  10.211  18.251  0.00  0.00    +0.000 N 
ATOM      9  C   UNL     1       1.940  11.488  18.214  0.00  0.00    +0.000 C 
ATOM     10  C   UNL     1       0.915  12.443  18.731  0.00  0.00    +0.000 A 
ATOM     11  C   UNL     1      -0.346  11.883  18.523  0.00  0.00    +0.000 A 
ATOM     12  C   UNL     1      -1.504  12.395  19.074  0.00  0.00    +0.000 A 
ATOM     13  C   UNL     1      -1.374  13.525  19.874  0.00  0.00    +0.000 A 
ATOM     14  C   UNL     1      -0.111  14.111  20.088  0.00  0.00    +0.000 A 
ATOM     15  C   UNL     1       1.061  13.585  19.509  0.00  0.00    +0.000 A 
ATOM     16  C   UNL     1      -0.145  10.486  18.089  0.00  0.00    +0.000 C 
ATOM     17  O   UNL     1      -1.048   9.711  17.859  0.00  0.00    +0.000 OA
BRANCH  15  18
ATOM     18  C   UNL     1       2.407  14.183  19.848  0.00  0.00    +0.000 C 
ATOM     19  C   UNL     1       2.271  15.524  20.553  0.00  0.00    +0.000 C 
ATOM     20  F   UNL     1       3.146  13.365  20.653  0.00  0.00    +0.000 F 
ATOM     21  F   UNL     1       3.172  14.382  18.735  0.00  0.00    +0.000 F 
ENDBRANCH  15  18
ENDBRANCH   6   8
BRANCH   4  22
ATOM     22  C   UNL     1       1.896   5.714  19.292  0.00  0.00    +0.000 C 
ATOM     23  C   UNL     1       3.178   5.675  18.428  0.00  0.00    +0.000 C 
BRANCH  22  24
ATOM     24  C   UNL     1       1.876   4.572  20.268  0.00  0.00    +0.000 A 
ATOM     25  N   UNL     1       2.412   4.565  21.480  0.00  0.00    +0.000 NA
ATOM     26  N   UNL     1       2.199   3.331  22.040  0.00  0.00    +0.000 NA
ATOM     27  C   UNL     1       1.532   2.609  21.172  0.00  0.00    +0.000 A 
ATOM     28  N   UNL     1       1.314   3.352  20.046  0.00  0.00    +0.000 N 
ATOM     29  C   UNL     1       0.656   2.868  18.851  0.00  0.00    +0.000 C 
ENDBRANCH  22  24
ENDBRANCH   4  22
TORSDOF 4
ENDMDL
MODEL 7
REMARK VINA RESULT:      -6.4      4.072      6.855
REMARK  Name = 
REMARK  8 active torsions:
REMARK  status: ('A' for Active; 'I' for Inactive)
REMARK    1  A    between atoms: C_1  and  C_2
REMARK    2  A    between atoms: C_4  and  C_5
REMARK    3  A    between atoms: C_5  and  C_6
REMARK    4  A    between atoms: C_5  and  C_7
REMARK    5  A    between atoms: N_11  and  C_12
REMARK    6  A    between atoms: C_14  and  N_15
REMARK    7  A    between atoms: C_22  and  C_23
REMARK    8  A    between atoms: C_23  and  C_24
REMARK                            x       y       z     vdW  Elec       q    Type
REMARK                         _______ _______ _______ _____ _____    ______ ____
ROOT
ATOM      1  C   UNL     1      -0.202  16.895  18.544  0.00  0.00    +0.000 C 
ATOM      2  C   UNL     1       0.744  15.735  18.564  0.00  0.00    +0.000 A 
ATOM      3  C   UNL     1       2.127  15.937  18.565  0.00  0.00    +0.000 A 
ATOM      4  C   UNL     1       3.016  14.847  18.596  0.00  0.00    +0.000 A 
ATOM      5  C   UNL     1       2.515  13.546  18.491  0.00  0.00    +0.000 A 
ATOM      6  C   UNL     1       1.174  13.343  18.753  0.00  0.00    +0.000 A 
ATOM      7  C   UNL     1       0.272  14.429  18.702  0.00  0.00    +0.000 A 
ENDROOT
BRANCH   6   8
ATOM      8  N   UNL     1       0.836  12.125  19.433  0.00  0.00    +0.000 N 
ATOM      9  C   UNL     1      -0.142  11.279  18.768  0.00  0.00    +0.000 C 
ATOM     10  C   UNL     1      -1.423  11.654  19.439  0.00  0.00    +0.000 A 
ATOM     11  C   UNL     1      -1.117  12.187  20.692  0.00  0.00    +0.000 A 
ATOM     12  C   UNL     1      -2.042  12.834  21.488  0.00  0.00    +0.000 A 
ATOM     13  C   UNL     1      -3.335  12.945  20.987  0.00  0.00    +0.000 A 
ATOM     14  C   UNL     1      -3.665  12.405  19.729  0.00  0.00    +0.000 A 
ATOM     15  C   UNL     1      -2.714  11.736  18.932  0.00  0.00    +0.000 A 
ATOM     16  C   UNL     1       0.347  12.374  20.750  0.00  0.00    +0.000 C 
ATOM     17  O   UNL     1       0.932  12.853  21.697  0.00  0.00    +0.000 OA
BRANCH  15  18
ATOM     18  C   UNL     1      -3.085  11.264  17.546  0.00  0.00    +0.000 C 
ATOM     19  C   UNL     1      -3.184   9.748  17.470  0.00  0.00    +0.000 C 
ATOM     20  F   UNL     1      -4.277  11.780  17.127  0.00  0.00    +0.000 F 
ATOM     21  F   UNL     1      -2.172  11.660  16.611  0.00  0.00    +0.000 F 
ENDBRANCH  15  18
ENDBRANCH   6   8
BRANCH   4  22
ATOM     22  C   UNL     1       4.459  15.035  19.067  0.00  0.00    +0.000 C 
ATOM     23  C   UNL     1       5.400  14.825  17.858  0.00  0.00    +0.000 C 
BRANCH  22  24
ATOM     24  C   UNL     1       4.724  16.360  19.725  0.00  0.00    +0.000 A 
ATOM     25  N   UNL     1       5.263  17.426  19.152  0.00  0.00    +0.000 NA
ATOM     26  N   UNL     1       5.357  18.421  20.093  0.00  0.00    +0.000 NA
ATOM     27  C   UNL     1       4.867  17.955  21.216  0.00  0.00    +0.000 A 
ATOM     28  N   UNL     1       4.463  16.663  21.026  0.00  0.00    +0.000 N 
ATOM     29  C   UNL     1       3.920  15.805  22.059  0.00  0.00    +0.000 C 
ENDBRANCH  22  24
ENDBRANCH   4  22
TORSDOF 4
ENDMDL
MODEL 8
REMARK VINA RESULT:      -6.4      1.576      2.245
REMARK  Name = 
REMARK  8 active torsions:
REMARK  status: ('A' for Active; 'I' for Inactive)
REMARK    1  A    between atoms: C_1  and  C_2
REMARK    2  A    between atoms: C_4  and  C_5
REMARK    3  A    between atoms: C_5  and  C_6
REMARK    4  A    between atoms: C_5  and  C_7
REMARK    5  A    between atoms: N_11  and  C_12
REMARK    6  A    between atoms: C_14  and  N_15
REMARK    7  A    between atoms: C_22  and  C_23
REMARK    8  A    between atoms: C_23  and  C_24
REMARK                            x       y       z     vdW  Elec       q    Type
REMARK                         _______ _______ _______ _____ _____    ______ ____
ROOT
ATOM      1  C   UNL     1      -4.412  11.381  18.404  0.00  0.00    +0.000 C 
ATOM      2  C   UNL     1      -3.950  12.262  19.523  0.00  0.00    +0.000 A 
ATOM      3  C   UNL     1      -4.830  12.662  20.532  0.00  0.00    +0.000 A 
ATOM      4  C   UNL     1      -4.393  13.481  21.590  0.00  0.00    +0.000 A 
ATOM      5  C   UNL     1      -3.098  14.008  21.564  0.00  0.00    +0.000 A 
ATOM      6  C   UNL     1      -2.172  13.412  20.730  0.00  0.00    +0.000 A 
ATOM      7  C   UNL     1      -2.604  12.607  19.652  0.00  0.00    +0.000 A 
ENDROOT
BRANCH   6   8
ATOM      8  N   UNL     1      -0.828  13.329  21.230  0.00  0.00    +0.000 N 
ATOM      9  C   UNL     1       0.125  12.642  20.372  0.00  0.00    +0.000 C 
ATOM     10  C   UNL     1       0.151  11.260  20.937  0.00  0.00    +0.000 A 
ATOM     11  C   UNL     1      -0.265  11.327  22.268  0.00  0.00    +0.000 A 
ATOM     12  C   UNL     1      -0.566  10.212  23.026  0.00  0.00    +0.000 A 
ATOM     13  C   UNL     1      -0.441   8.974  22.401  0.00  0.00    +0.000 A 
ATOM     14  C   UNL     1      -0.012   8.887  21.063  0.00  0.00    +0.000 A 
ATOM     15  C   UNL     1       0.304  10.032  20.306  0.00  0.00    +0.000 A 
ATOM     16  C   UNL     1      -0.777  12.691  22.505  0.00  0.00    +0.000 C 
ATOM     17  O   UNL     1      -1.249  13.065  23.557  0.00  0.00    +0.000 OA
BRANCH  15  18
ATOM     18  C   UNL     1       0.659   9.899  18.843  0.00  0.00    +0.000 C 
ATOM     19  C   UNL     1      -0.568  10.003  17.949  0.00  0.00    +0.000 C 
ATOM     20  F   UNL     1       1.549  10.851  18.439  0.00  0.00    +0.000 F 
ATOM     21  F   UNL     1       1.261   8.704  18.571  0.00  0.00    +0.000 F 
ENDBRANCH  15  18
ENDBRANCH   6   8
BRANCH   4  22
ATOM     22  C   UNL     1      -5.173  13.533  22.904  0.00  0.00    +0.000 C 
ATOM     23  C   UNL     1      -4.439  12.654  23.944  0.00  0.00    +0.000 C 
BRANCH  22  24
ATOM     24  C   UNL     1      -5.390  14.921  23.437  0.00  0.00    +0.000 A 
ATOM     25  N   UNL     1      -4.640  15.542  24.336  0.00  0.00    +0.000 NA
ATOM     26  N   UNL     1      -5.184  16.780  24.571  0.00  0.00    +0.000 NA
ATOM     27  C   UNL     1      -6.245  16.900  23.810  0.00  0.00    +0.000 A 
ATOM     28  N   UNL     1      -6.410  15.752  23.087  0.00  0.00    +0.000 N 
ATOM     29  C   UNL     1      -7.507  15.497  22.178  0.00  0.00    +0.000 C 
ENDBRANCH  22  24
ENDBRANCH   4  22
TORSDOF 4
ENDMDL
MODEL 9
REMARK VINA RESULT:      -6.4      1.270      2.034
REMARK  Name = 
REMARK  8 active torsions:
REMARK  status: ('A' for Active; 'I' for Inactive)
REMARK    1  A    between atoms: C_1  and  C_2
REMARK    2  A    between atoms: C_4  and  C_5
REMARK    3  A    between atoms: C_5  and  C_6
REMARK    4  A    between atoms: C_5  and  C_7
REMARK    5  A    between atoms: N_11  and  C_12
REMARK    6  A    between atoms: C_14  and  N_15
REMARK    7  A    between atoms: C_22  and  C_23
REMARK    8  A    between atoms: C_23  and  C_24
REMARK                            x       y       z     vdW  Elec       q    Type
REMARK                         _______ _______ _______ _____ _____    ______ ____
ROOT
ATOM      1  C   UNL     1      -3.622  10.481  17.433  0.00  0.00    +0.000 C 
ATOM      2  C   UNL     1      -3.315  11.479  18.506  0.00  0.00    +0.000 A 
ATOM      3  C   UNL     1      -4.296  11.882  19.414  0.00  0.00    +0.000 A 
ATOM      4  C   UNL     1      -4.004  12.811  20.430  0.00  0.00    +0.000 A 
ATOM      5  C   UNL     1      -2.755  13.438  20.452  0.00  0.00    +0.000 A 
ATOM      6  C   UNL     1      -1.725  12.858  19.736  0.00  0.00    +0.000 A 
ATOM      7  C   UNL     1      -2.012  11.942  18.700  0.00  0.00    +0.000 A 
ENDROOT
BRANCH   6   8
ATOM      8  N   UNL     1      -0.421  12.923  20.334  0.00  0.00    +0.000 N 
ATOM      9  C   UNL     1       0.642  12.248  19.607  0.00  0.00    +0.000 C 
ATOM     10  C   UNL     1       0.727  10.922  20.290  0.00  0.00    +0.000 A 
ATOM     11  C   UNL     1       0.207  11.062  21.577  0.00  0.00    +0.000 A 
ATOM     12  C   UNL     1      -0.068   9.991  22.405  0.00  0.00    +0.000 A 
ATOM     13  C   UNL     1       0.195   8.721  21.899  0.00  0.00    +0.000 A 
ATOM     14  C   UNL     1       0.730   8.561  20.607  0.00  0.00    +0.000 A 
ATOM     15  C   UNL     1       1.018   9.664  19.778  0.00  0.00    +0.000 A 
ATOM     16  C   UNL     1      -0.421  12.396  21.660  0.00  0.00    +0.000 C 
ATOM     17  O   UNL     1      -0.998  12.813  22.641  0.00  0.00    +0.000 OA
BRANCH  15  18
ATOM     18  C   UNL     1       1.493   9.442  18.360  0.00  0.00    +0.000 C 
ATOM     19  C   UNL     1       2.209   8.109  18.203  0.00  0.00    +0.000 C 
ATOM     20  F   UNL     1       0.466   9.469  17.462  0.00  0.00    +0.000 F 
ATOM     21  F   UNL     1       2.355  10.419  17.952  0.00  0.00    +0.000 F 
ENDBRANCH  15  18
ENDBRANCH   6   8
BRANCH   4  22
ATOM     22  C   UNL     1      -4.884  12.899  21.678  0.00  0.00    +0.000 C 
ATOM     23  C   UNL     1      -4.001  12.635  22.919  0.00  0.00    +0.000 C 
BRANCH  22  24
ATOM     24  C   UNL     1      -5.626  14.198  21.818  0.00  0.00    +0.000 A 
ATOM     25  N   UNL     1      -5.228  15.259  22.505  0.00  0.00    +0.000 NA
ATOM     26  N   UNL     1      -6.194  16.227  22.403  0.00  0.00    +0.000 NA
ATOM     27  C   UNL     1      -7.158  15.752  21.653  0.00  0.00    +0.000 A 
ATOM     28  N   UNL     1      -6.840  14.479  21.269  0.00  0.00    +0.000 N 
ATOM     29  C   UNL     1      -7.691  13.616  20.477  0.00  0.00    +0.000 C 
ENDBRANCH  22  24
ENDBRANCH   4  22
TORSDOF 4
ENDMDL
