MODEL 1
REMARK VINA RESULT:      -8.9      0.000      0.000
REMARK  Name = 
REMARK  7 active torsions:
REMARK  status: ('A' for Active; 'I' for Inactive)
REMARK    1  A    between atoms: C_1  and  C_2
REMARK    2  A    between atoms: C_4  and  C_5
REMARK    3  A    between atoms: C_14  and  C_15
REMARK    4  A    between atoms: C_15  and  C_16
REMARK    5  A    between atoms: C_16  and  C_17
REMARK    6  A    between atoms: N_19  and  C_20
REMARK    7  A    between atoms: C_28  and  C_29
REMARK                            x       y       z     vdW  Elec       q    Type
REMARK                         _______ _______ _______ _____ _____    ______ ____
ROOT
ATOM      1  C   UNL     1       7.521   6.461  17.262  0.00  0.00    +0.000 C 
ENDROOT
BRANCH   1   9
ATOM      2  C   UNL     1       5.059   6.334  15.450  0.00  0.00    +0.000 C 
ATOM      3  C   UNL     1       5.110   5.755  16.842  0.00  0.00    +0.000 A 
ATOM      4  N   UNL     1       3.936   5.149  17.215  0.00  0.00    +0.000 NA
ATOM      5  C   UNL     1       3.850   4.636  18.396  0.00  0.00    +0.000 A 
ATOM      6  N   UNL     1       4.878   4.687  19.297  0.00  0.00    +0.000 N 
ATOM      7  C   UNL     1       6.057   5.305  19.012  0.00  0.00    +0.000 A 
ATOM      8  O   UNL     1       6.935   5.409  19.862  0.00  0.00    +0.000 OA
ATOM      9  C   UNL     1       6.198   5.840  17.633  0.00  0.00    +0.000 A 
ATOM     10  H   UNL     1       4.815   4.275  20.213  0.00  0.00    +0.000 HD
BRANCH   5  11
ATOM     11  C   UNL     1       2.613   3.947  18.816  0.00  0.00    +0.000 A 
ATOM     12  C   UNL     1       2.015   4.349  20.010  0.00  0.00    +0.000 A 
ATOM     13  C   UNL     1       0.882   3.678  20.422  0.00  0.00    +0.000 A 
ATOM     14  N   UNL     1       0.331   2.655  19.733  0.00  0.00    +0.000 NA
ATOM     15  C   UNL     1       0.943   2.280  18.589  0.00  0.00    +0.000 A 
ATOM     16  C   UNL     1       2.076   2.891  18.084  0.00  0.00    +0.000 A 
ENDBRANCH   5  11
ENDBRANCH   1   9
BRANCH   1  17
ATOM     17  C   UNL     1       7.552   7.991  17.280  0.00  0.00    +0.000 C 
BRANCH  17  18
ATOM     18  C   UNL     1       8.411   8.626  18.363  0.00  0.00    +0.000 C 
ATOM     19  O   UNL     1       8.954   7.996  19.260  0.00  0.00    +0.000 OA
ATOM     20  N   UNL     1       8.587   9.975  18.144  0.00  0.00    +0.000 N 
ATOM     21  H   UNL     1       7.995  10.419  17.450  0.00  0.00    +0.000 HD
BRANCH  20  22
ATOM     22  C   UNL     1       9.569  10.821  18.821  0.00  0.00    +0.000 C 
ATOM     23  C   UNL     1       9.232  11.056  20.315  0.00  0.00    +0.000 C 
ATOM     24  C   UNL     1       9.674  12.469  20.544  0.00  0.00    +0.000 A 
ATOM     25  C   UNL     1       9.740  13.155  21.748  0.00  0.00    +0.000 A 
ATOM     26  C   UNL     1      10.096  14.508  21.732  0.00  0.00    +0.000 A 
ATOM     27  C   UNL     1      10.390  15.155  20.523  0.00  0.00    +0.000 A 
ATOM     28  C   UNL     1      10.328  14.458  19.318  0.00  0.00    +0.000 A 
ATOM     29  C   UNL     1       9.958  13.120  19.343  0.00  0.00    +0.000 A 
ATOM     30  C   UNL     1       9.698  12.231  18.158  0.00  0.00    +0.000 C 
ATOM     31  C   UNL     1       8.446  12.722  17.428  0.00  0.00    +0.000 C 
ENDBRANCH  20  22
ENDBRANCH  17  18
ENDBRANCH   1  17
TORSDOF 5
ENDMDL
MODEL 2
REMARK VINA RESULT:      -8.6      1.071      1.641
REMARK  Name = 
REMARK  7 active torsions:
REMARK  status: ('A' for Active; 'I' for Inactive)
REMARK    1  A    between atoms: C_1  and  C_2
REMARK    2  A    between atoms: C_4  and  C_5
REMARK    3  A    between atoms: C_14  and  C_15
REMARK    4  A    between atoms: C_15  and  C_16
REMARK    5  A    between atoms: C_16  and  C_17
REMARK    6  A    between atoms: N_19  and  C_20
REMARK    7  A    between atoms: C_28  and  C_29
REMARK                            x       y       z     vdW  Elec       q    Type
REMARK                         _______ _______ _______ _____ _____    ______ ____
ROOT
ATOM      1  C   UNL     1       7.573   7.081  17.157  0.00  0.00    +0.000 C 
ENDROOT
BRANCH   1   9
ATOM      2  C   UNL     1       7.449   5.471  19.756  0.00  0.00    +0.000 C 
ATOM      3  C   UNL     1       6.298   5.600  18.789  0.00  0.00    +0.000 A 
ATOM      4  N   UNL     1       5.174   4.927  19.201  0.00  0.00    +0.000 NA
ATOM      5  C   UNL     1       4.129   4.944  18.444  0.00  0.00    +0.000 A 
ATOM      6  N   UNL     1       4.102   5.593  17.241  0.00  0.00    +0.000 N 
ATOM      7  C   UNL     1       5.190   6.247  16.750  0.00  0.00    +0.000 A 
ATOM      8  O   UNL     1       5.170   6.754  15.633  0.00  0.00    +0.000 OA
ATOM      9  C   UNL     1       6.379   6.297  17.639  0.00  0.00    +0.000 A 
ATOM     10  H   UNL     1       3.282   5.616  16.658  0.00  0.00    +0.000 HD
BRANCH   5  11
ATOM     11  C   UNL     1       2.893   4.259  18.874  0.00  0.00    +0.000 A 
ATOM     12  C   UNL     1       2.348   4.609  20.109  0.00  0.00    +0.000 A 
ATOM     13  C   UNL     1       1.216   3.940  20.528  0.00  0.00    +0.000 A 
ATOM     14  N   UNL     1       0.618   2.967  19.808  0.00  0.00    +0.000 NA
ATOM     15  C   UNL     1       1.179   2.641  18.623  0.00  0.00    +0.000 A 
ATOM     16  C   UNL     1       2.305   3.255  18.109  0.00  0.00    +0.000 A 
ENDBRANCH   5  11
ENDBRANCH   1   9
BRANCH   1  17
ATOM     17  C   UNL     1       7.471   8.598  17.326  0.00  0.00    +0.000 C 
BRANCH  17  18
ATOM     18  C   UNL     1       8.423   9.220  18.336  0.00  0.00    +0.000 C 
ATOM     19  O   UNL     1       9.059   8.578  19.161  0.00  0.00    +0.000 OA
ATOM     20  N   UNL     1       8.560  10.576  18.135  0.00  0.00    +0.000 N 
ATOM     21  H   UNL     1       7.898  11.028  17.513  0.00  0.00    +0.000 HD
BRANCH  20  22
ATOM     22  C   UNL     1       9.592  11.421  18.735  0.00  0.00    +0.000 C 
ATOM     23  C   UNL     1       9.391  11.626  20.258  0.00  0.00    +0.000 C 
ATOM     24  C   UNL     1       9.840  13.041  20.471  0.00  0.00    +0.000 A 
ATOM     25  C   UNL     1      10.010  13.706  21.676  0.00  0.00    +0.000 A 
ATOM     26  C   UNL     1      10.350  15.062  21.652  0.00  0.00    +0.000 A 
ATOM     27  C   UNL     1      10.527  15.734  20.433  0.00  0.00    +0.000 A 
ATOM     28  C   UNL     1      10.361  15.056  19.226  0.00  0.00    +0.000 A 
ATOM     29  C   UNL     1      10.007  13.714  19.260  0.00  0.00    +0.000 A 
ATOM     30  C   UNL     1       9.647  12.844  18.089  0.00  0.00    +0.000 C 
ATOM     31  C   UNL     1       8.330  13.334  17.485  0.00  0.00    +0.000 C 
ENDBRANCH  20  22
ENDBRANCH  17  18
ENDBRANCH   1  17
TORSDOF 5
ENDMDL
MODEL 3
REMARK VINA RESULT:      -8.3      5.882      8.129
REMARK  Name = 
REMARK  7 active torsions:
REMARK  status: ('A' for Active; 'I' for Inactive)
REMARK    1  A    between atoms: C_1  and  C_2
REMARK    2  A    between atoms: C_4  and  C_5
REMARK    3  A    between atoms: C_14  and  C_15
REMARK    4  A    between atoms: C_15  and  C_16
REMARK    5  A    between atoms: C_16  and  C_17
REMARK    6  A    between atoms: N_19  and  C_20
REMARK    7  A    between atoms: C_28  and  C_29
REMARK                            x       y       z     vdW  Elec       q    Type
REMARK                         _______ _______ _______ _____ _____    ______ ____
ROOT
ATOM      1  C   UNL     1       4.116   3.239  19.995  0.00  0.00    +0.000 C 
ENDROOT
BRANCH   1   9
ATOM      2  C   UNL     1       1.323   3.387  21.236  0.00  0.00    +0.000 C 
ATOM      3  C   UNL     1       2.067   4.581  20.689  0.00  0.00    +0.000 A 
ATOM      4  N   UNL     1       1.364   5.754  20.816  0.00  0.00    +0.000 NA
ATOM      5  C   UNL     1       1.888   6.843  20.362  0.00  0.00    +0.000 A 
ATOM      6  N   UNL     1       3.108   6.871  19.745  0.00  0.00    +0.000 N 
ATOM      7  C   UNL     1       3.843   5.742  19.550  0.00  0.00    +0.000 A 
ATOM      8  O   UNL     1       4.897   5.777  18.923  0.00  0.00    +0.000 OA
ATOM      9  C   UNL     1       3.288   4.492  20.127  0.00  0.00    +0.000 A 
ATOM     10  H   UNL     1       3.522   7.723  19.403  0.00  0.00    +0.000 HD
BRANCH   5  11
ATOM     11  C   UNL     1       1.174   8.127  20.513  0.00  0.00    +0.000 A 
ATOM     12  C   UNL     1       1.295   9.065  19.488  0.00  0.00    +0.000 A 
ATOM     13  C   UNL     1       0.661  10.280  19.648  0.00  0.00    +0.000 A 
ATOM     14  N   UNL     1      -0.062  10.604  20.742  0.00  0.00    +0.000 NA
ATOM     15  C   UNL     1      -0.148   9.679  21.722  0.00  0.00    +0.000 A 
ATOM     16  C   UNL     1       0.442   8.430  21.658  0.00  0.00    +0.000 A 
ENDBRANCH   5  11
ENDBRANCH   1   9
BRANCH   1  17
ATOM     17  C   UNL     1       3.644   2.253  18.924  0.00  0.00    +0.000 C 
BRANCH  17  18
ATOM     18  C   UNL     1       3.529   2.809  17.513  0.00  0.00    +0.000 C 
ATOM     19  O   UNL     1       2.469   2.947  16.917  0.00  0.00    +0.000 OA
ATOM     20  N   UNL     1       4.749   3.235  17.035  0.00  0.00    +0.000 N 
ATOM     21  H   UNL     1       5.578   2.962  17.552  0.00  0.00    +0.000 HD
BRANCH  20  22
ATOM     22  C   UNL     1       4.951   4.065  15.848  0.00  0.00    +0.000 C 
ATOM     23  C   UNL     1       5.028   3.235  14.541  0.00  0.00    +0.000 C 
ATOM     24  C   UNL     1       6.046   3.978  13.728  0.00  0.00    +0.000 A 
ATOM     25  C   UNL     1       6.402   3.758  12.406  0.00  0.00    +0.000 A 
ATOM     26  C   UNL     1       7.448   4.508  11.859  0.00  0.00    +0.000 A 
ATOM     27  C   UNL     1       8.116   5.471  12.629  0.00  0.00    +0.000 A 
ATOM     28  C   UNL     1       7.748   5.691  13.955  0.00  0.00    +0.000 A 
ATOM     29  C   UNL     1       6.719   4.930  14.494  0.00  0.00    +0.000 A 
ATOM     30  C   UNL     1       6.264   4.910  15.927  0.00  0.00    +0.000 C 
ATOM     31  C   UNL     1       7.370   4.311  16.798  0.00  0.00    +0.000 C 
ENDBRANCH  20  22
ENDBRANCH  17  18
ENDBRANCH   1  17
TORSDOF 5
ENDMDL
MODEL 4
REMARK VINA RESULT:      -8.3      6.628      9.425
REMARK  Name = 
REMARK  7 active torsions:
REMARK  status: ('A' for Active; 'I' for Inactive)
REMARK    1  A    between atoms: C_1  and  C_2
REMARK    2  A    between atoms: C_4  and  C_5
REMARK    3  A    between atoms: C_14  and  C_15
REMARK    4  A    between atoms: C_15  and  C_16
REMARK    5  A    between atoms: C_16  and  C_17
REMARK    6  A    between atoms: N_19  and  C_20
REMARK    7  A    between atoms: C_28  and  C_29
REMARK                            x       y       z     vdW  Elec       q    Type
REMARK                         _______ _______ _______ _____ _____    ______ ____
ROOT
ATOM      1  C   UNL     1       1.427   8.573  20.547  0.00  0.00    +0.000 C 
ENDROOT
BRANCH   1   9
ATOM      2  C   UNL     1      -0.256  10.103  18.500  0.00  0.00    +0.000 C 
ATOM      3  C   UNL     1      -0.317  10.342  19.988  0.00  0.00    +0.000 A 
ATOM      4  N   UNL     1      -1.220  11.315  20.338  0.00  0.00    +0.000 NA
ATOM      5  C   UNL     1      -1.345  11.627  21.584  0.00  0.00    +0.000 A 
ATOM      6  N   UNL     1      -0.601  11.036  22.568  0.00  0.00    +0.000 N 
ATOM      7  C   UNL     1       0.339  10.093  22.293  0.00  0.00    +0.000 A 
ATOM      8  O   UNL     1       1.051   9.634  23.181  0.00  0.00    +0.000 OA
ATOM      9  C   UNL     1       0.448   9.672  20.872  0.00  0.00    +0.000 A 
ATOM     10  H   UNL     1      -0.709  11.271  23.541  0.00  0.00    +0.000 HD
BRANCH   5  11
ATOM     11  C   UNL     1      -2.332  12.645  21.997  0.00  0.00    +0.000 A 
ATOM     12  C   UNL     1      -2.995  12.458  23.210  0.00  0.00    +0.000 A 
ATOM     13  C   UNL     1      -3.945  13.388  23.576  0.00  0.00    +0.000 A 
ATOM     14  N   UNL     1      -4.266  14.461  22.821  0.00  0.00    +0.000 NA
ATOM     15  C   UNL     1      -3.617  14.606  21.645  0.00  0.00    +0.000 A 
ATOM     16  C   UNL     1      -2.643  13.736  21.190  0.00  0.00    +0.000 A 
ENDBRANCH   5  11
ENDBRANCH   1   9
BRANCH   1  17
ATOM     17  C   UNL     1       1.209   7.259  21.299  0.00  0.00    +0.000 C 
BRANCH  17  18
ATOM     18  C   UNL     1       1.721   6.004  20.609  0.00  0.00    +0.000 C 
ATOM     19  O   UNL     1       1.056   4.988  20.459  0.00  0.00    +0.000 OA
ATOM     20  N   UNL     1       2.980   6.193  20.082  0.00  0.00    +0.000 N 
ATOM     21  H   UNL     1       3.490   7.022  20.369  0.00  0.00    +0.000 HD
BRANCH  20  22
ATOM     22  C   UNL     1       3.641   5.303  19.128  0.00  0.00    +0.000 C 
ATOM     23  C   UNL     1       5.146   5.101  19.438  0.00  0.00    +0.000 C 
ATOM     24  C   UNL     1       5.764   5.014  18.075  0.00  0.00    +0.000 A 
ATOM     25  C   UNL     1       7.074   4.690  17.755  0.00  0.00    +0.000 A 
ATOM     26  C   UNL     1       7.474   4.755  16.417  0.00  0.00    +0.000 A 
ATOM     27  C   UNL     1       6.566   5.132  15.417  0.00  0.00    +0.000 A 
ATOM     28  C   UNL     1       5.249   5.449  15.746  0.00  0.00    +0.000 A 
ATOM     29  C   UNL     1       4.866   5.397  17.079  0.00  0.00    +0.000 A 
ATOM     30  C   UNL     1       3.548   5.830  17.659  0.00  0.00    +0.000 C 
ATOM     31  C   UNL     1       3.412   7.347  17.521  0.00  0.00    +0.000 C 
ENDBRANCH  20  22
ENDBRANCH  17  18
ENDBRANCH   1  17
TORSDOF 5
ENDMDL
MODEL 5
REMARK VINA RESULT:      -8.3      7.724      9.749
REMARK  Name = 
REMARK  7 active torsions:
REMARK  status: ('A' for Active; 'I' for Inactive)
REMARK    1  A    between atoms: C_1  and  C_2
REMARK    2  A    between atoms: C_4  and  C_5
REMARK    3  A    between atoms: C_14  and  C_15
REMARK    4  A    between atoms: C_15  and  C_16
REMARK    5  A    between atoms: C_16  and  C_17
REMARK    6  A    between atoms: N_19  and  C_20
REMARK    7  A    between atoms: C_28  and  C_29
REMARK                            x       y       z     vdW  Elec       q    Type
REMARK                         _______ _______ _______ _____ _____    ______ ____
ROOT
ATOM      1  C   UNL     1       0.411  10.729  19.350  0.00  0.00    +0.000 C 
ENDROOT
BRANCH   1   9
ATOM      2  C   UNL     1       0.387   8.987  21.865  0.00  0.00    +0.000 C 
ATOM      3  C   UNL     1       1.081   8.604  20.581  0.00  0.00    +0.000 A 
ATOM      4  N   UNL     1       1.696   7.378  20.650  0.00  0.00    +0.000 NA
ATOM      5  C   UNL     1       2.344   6.951  19.619  0.00  0.00    +0.000 A 
ATOM      6  N   UNL     1       2.455   7.678  18.467  0.00  0.00    +0.000 N 
ATOM      7  C   UNL     1       1.905   8.916  18.339  0.00  0.00    +0.000 A 
ATOM      8  O   UNL     1       2.085   9.585  17.327  0.00  0.00    +0.000 OA
ATOM      9  C   UNL     1       1.097   9.395  19.490  0.00  0.00    +0.000 A 
ATOM     10  H   UNL     1       2.950   7.338  17.658  0.00  0.00    +0.000 HD
BRANCH   5  11
ATOM     11  C   UNL     1       2.989   5.623  19.648  0.00  0.00    +0.000 A 
ATOM     12  C   UNL     1       2.316   4.585  20.293  0.00  0.00    +0.000 A 
ATOM     13  C   UNL     1       2.937   3.354  20.355  0.00  0.00    +0.000 A 
ATOM     14  N   UNL     1       4.157   3.108  19.831  0.00  0.00    +0.000 NA
ATOM     15  C   UNL     1       4.788   4.138  19.227  0.00  0.00    +0.000 A 
ATOM     16  C   UNL     1       4.252   5.406  19.103  0.00  0.00    +0.000 A 
ENDBRANCH   5  11
ENDBRANCH   1   9
BRANCH   1  17
ATOM     17  C   UNL     1       1.201  11.930  19.873  0.00  0.00    +0.000 C 
BRANCH  17  18
ATOM     18  C   UNL     1       0.580  12.677  21.043  0.00  0.00    +0.000 C 
ATOM     19  O   UNL     1       1.158  13.544  21.685  0.00  0.00    +0.000 OA
ATOM     20  N   UNL     1      -0.743  12.332  21.220  0.00  0.00    +0.000 N 
ATOM     21  H   UNL     1      -1.087  11.519  20.722  0.00  0.00    +0.000 HD
BRANCH  20  22
ATOM     22  C   UNL     1      -1.701  13.053  22.057  0.00  0.00    +0.000 C 
ATOM     23  C   UNL     1      -2.162  12.231  23.287  0.00  0.00    +0.000 C 
ATOM     24  C   UNL     1      -3.601  12.623  23.435  0.00  0.00    +0.000 A 
ATOM     25  C   UNL     1      -4.469  12.296  24.467  0.00  0.00    +0.000 A 
ATOM     26  C   UNL     1      -5.808  12.688  24.369  0.00  0.00    +0.000 A 
ATOM     27  C   UNL     1      -6.262  13.407  23.253  0.00  0.00    +0.000 A 
ATOM     28  C   UNL     1      -5.382  13.737  22.223  0.00  0.00    +0.000 A 
ATOM     29  C   UNL     1      -4.059  13.329  22.323  0.00  0.00    +0.000 A 
ATOM     30  C   UNL     1      -2.991  13.458  21.273  0.00  0.00    +0.000 C 
ATOM     31  C   UNL     1      -3.340  12.556  20.087  0.00  0.00    +0.000 C 
ENDBRANCH  20  22
ENDBRANCH  17  18
ENDBRANCH   1  17
TORSDOF 5
ENDMDL
MODEL 6
REMARK VINA RESULT:      -8.2      1.347      2.064
REMARK  Name = 
REMARK  7 active torsions:
REMARK  status: ('A' for Active; 'I' for Inactive)
REMARK    1  A    between atoms: C_1  and  C_2
REMARK    2  A    between atoms: C_4  and  C_5
REMARK    3  A    between atoms: C_14  and  C_15
REMARK    4  A    between atoms: C_15  and  C_16
REMARK    5  A    between atoms: C_16  and  C_17
REMARK    6  A    between atoms: N_19  and  C_20
REMARK    7  A    between atoms: C_28  and  C_29
REMARK                            x       y       z     vdW  Elec       q    Type
REMARK                         _______ _______ _______ _____ _____    ______ ____
ROOT
ATOM      1  C   UNL     1       7.862   7.397  17.337  0.00  0.00    +0.000 C 
ENDROOT
BRANCH   1   9
ATOM      2  C   UNL     1       7.821   5.570  19.791  0.00  0.00    +0.000 C 
ATOM      3  C   UNL     1       6.713   5.632  18.769  0.00  0.00    +0.000 A 
ATOM      4  N   UNL     1       5.669   4.788  19.058  0.00  0.00    +0.000 NA
ATOM      5  C   UNL     1       4.671   4.735  18.242  0.00  0.00    +0.000 A 
ATOM      6  N   UNL     1       4.619   5.475  17.093  0.00  0.00    +0.000 N 
ATOM      7  C   UNL     1       5.633   6.303  16.722  0.00  0.00    +0.000 A 
ATOM      8  O   UNL     1       5.603   6.895  15.648  0.00  0.00    +0.000 OA
ATOM      9  C   UNL     1       6.759   6.429  17.683  0.00  0.00    +0.000 A 
ATOM     10  H   UNL     1       3.833   5.442  16.464  0.00  0.00    +0.000 HD
BRANCH   5  11
ATOM     11  C   UNL     1       3.517   3.864  18.541  0.00  0.00    +0.000 A 
ATOM     12  C   UNL     1       3.641   2.501  18.272  0.00  0.00    +0.000 A 
ATOM     13  C   UNL     1       2.549   1.693  18.513  0.00  0.00    +0.000 A 
ATOM     14  N   UNL     1       1.372   2.155  18.989  0.00  0.00    +0.000 NA
ATOM     15  C   UNL     1       1.279   3.481  19.225  0.00  0.00    +0.000 A 
ATOM     16  C   UNL     1       2.315   4.375  19.025  0.00  0.00    +0.000 A 
ENDBRANCH   5  11
ENDBRANCH   1   9
BRANCH   1  17
ATOM     17  C   UNL     1       7.522   8.875  17.543  0.00  0.00    +0.000 C 
BRANCH  17  18
ATOM     18  C   UNL     1       8.516   9.676  18.370  0.00  0.00    +0.000 C 
ATOM     19  O   UNL     1       9.272   9.184  19.196  0.00  0.00    +0.000 OA
ATOM     20  N   UNL     1       8.533  11.003  17.996  0.00  0.00    +0.000 N 
ATOM     21  H   UNL     1       7.785  11.331  17.395  0.00  0.00    +0.000 HD
BRANCH  20  22
ATOM     22  C   UNL     1       9.552  11.978  18.382  0.00  0.00    +0.000 C 
ATOM     23  C   UNL     1       9.723  12.091  19.918  0.00  0.00    +0.000 C 
ATOM     24  C   UNL     1      10.003  13.550  20.121  0.00  0.00    +0.000 A 
ATOM     25  C   UNL     1      10.380  14.188  21.293  0.00  0.00    +0.000 A 
ATOM     26  C   UNL     1      10.503  15.581  21.290  0.00  0.00    +0.000 A 
ATOM     27  C   UNL     1      10.260  16.317  20.121  0.00  0.00    +0.000 A 
ATOM     28  C   UNL     1       9.888  15.668  18.945  0.00  0.00    +0.000 A 
ATOM     29  C   UNL     1       9.752  14.287  18.963  0.00  0.00    +0.000 A 
ATOM     30  C   UNL     1       9.232  13.415  17.855  0.00  0.00    +0.000 C 
ATOM     31  C   UNL     1       7.746  13.711  17.638  0.00  0.00    +0.000 C 
ENDBRANCH  20  22
ENDBRANCH  17  18
ENDBRANCH   1  17
TORSDOF 5
ENDMDL
MODEL 7
REMARK VINA RESULT:      -8.2      6.613      8.906
REMARK  Name = 
REMARK  7 active torsions:
REMARK  status: ('A' for Active; 'I' for Inactive)
REMARK    1  A    between atoms: C_1  and  C_2
REMARK    2  A    between atoms: C_4  and  C_5
REMARK    3  A    between atoms: C_14  and  C_15
REMARK    4  A    between atoms: C_15  and  C_16
REMARK    5  A    between atoms: C_16  and  C_17
REMARK    6  A    between atoms: N_19  and  C_20
REMARK    7  A    between atoms: C_28  and  C_29
REMARK                            x       y       z     vdW  Elec       q    Type
REMARK                         _______ _______ _______ _____ _____    ______ ____
ROOT
ATOM      1  C   UNL     1       1.086   7.798  20.627  0.00  0.00    +0.000 C 
ENDROOT
BRANCH   1   9
ATOM      2  C   UNL     1       1.996   9.173  18.050  0.00  0.00    +0.000 C 
ATOM      3  C   UNL     1       2.551   7.860  18.545  0.00  0.00    +0.000 A 
ATOM      4  N   UNL     1       3.523   7.345  17.724  0.00  0.00    +0.000 NA
ATOM      5  C   UNL     1       4.058   6.211  18.031  0.00  0.00    +0.000 A 
ATOM      6  N   UNL     1       3.682   5.495  19.134  0.00  0.00    +0.000 N 
ATOM      7  C   UNL     1       2.699   5.924  19.972  0.00  0.00    +0.000 A 
ATOM      8  O   UNL     1       2.322   5.229  20.909  0.00  0.00    +0.000 OA
ATOM      9  C   UNL     1       2.122   7.260  19.673  0.00  0.00    +0.000 A 
ATOM     10  H   UNL     1       4.109   4.617  19.380  0.00  0.00    +0.000 HD
BRANCH   5  11
ATOM     11  C   UNL     1       5.129   5.645  17.187  0.00  0.00    +0.000 A 
ATOM     12  C   UNL     1       6.238   5.089  17.825  0.00  0.00    +0.000 A 
ATOM     13  C   UNL     1       7.257   4.598  17.036  0.00  0.00    +0.000 A 
ATOM     14  N   UNL     1       7.236   4.632  15.686  0.00  0.00    +0.000 NA
ATOM     15  C   UNL     1       6.156   5.191  15.099  0.00  0.00    +0.000 A 
ATOM     16  C   UNL     1       5.078   5.704  15.796  0.00  0.00    +0.000 A 
ENDBRANCH   5  11
ENDBRANCH   1   9
BRANCH   1  17
ATOM     17  C   UNL     1       1.641   8.520  21.855  0.00  0.00    +0.000 C 
BRANCH  17  18
ATOM     18  C   UNL     1       0.696   9.498  22.536  0.00  0.00    +0.000 C 
ATOM     19  O   UNL     1       0.496   9.527  23.743  0.00  0.00    +0.000 OA
ATOM     20  N   UNL     1       0.180  10.410  21.641  0.00  0.00    +0.000 N 
ATOM     21  H   UNL     1       0.307  10.223  20.653  0.00  0.00    +0.000 HD
BRANCH  20  22
ATOM     22  C   UNL     1      -0.527  11.640  21.999  0.00  0.00    +0.000 C 
ATOM     23  C   UNL     1      -1.701  11.394  22.981  0.00  0.00    +0.000 C 
ATOM     24  C   UNL     1      -2.732  12.385  22.531  0.00  0.00    +0.000 A 
ATOM     25  C   UNL     1      -3.932  12.702  23.149  0.00  0.00    +0.000 A 
ATOM     26  C   UNL     1      -4.800  13.595  22.512  0.00  0.00    +0.000 A 
ATOM     27  C   UNL     1      -4.459  14.166  21.277  0.00  0.00    +0.000 A 
ATOM     28  C   UNL     1      -3.247  13.847  20.665  0.00  0.00    +0.000 A 
ATOM     29  C   UNL     1      -2.400  12.947  21.298  0.00  0.00    +0.000 A 
ATOM     30  C   UNL     1      -1.125  12.368  20.751  0.00  0.00    +0.000 C 
ATOM     31  C   UNL     1      -1.454  11.459  19.565  0.00  0.00    +0.000 C 
ENDBRANCH  20  22
ENDBRANCH  17  18
ENDBRANCH   1  17
TORSDOF 5
ENDMDL
MODEL 8
REMARK VINA RESULT:      -8.2      6.612      9.366
REMARK  Name = 
REMARK  7 active torsions:
REMARK  status: ('A' for Active; 'I' for Inactive)
REMARK    1  A    between atoms: C_1  and  C_2
REMARK    2  A    between atoms: C_4  and  C_5
REMARK    3  A    between atoms: C_14  and  C_15
REMARK    4  A    between atoms: C_15  and  C_16
REMARK    5  A    between atoms: C_16  and  C_17
REMARK    6  A    between atoms: N_19  and  C_20
REMARK    7  A    between atoms: C_28  and  C_29
REMARK                            x       y       z     vdW  Elec       q    Type
REMARK                         _______ _______ _______ _____ _____    ______ ____
ROOT
ATOM      1  C   UNL     1       1.519   8.429  21.036  0.00  0.00    +0.000 C 
ENDROOT
BRANCH   1   9
ATOM      2  C   UNL     1       0.673   9.807  18.439  0.00  0.00    +0.000 C 
ATOM      3  C   UNL     1       0.200  10.228  19.809  0.00  0.00    +0.000 A 
ATOM      4  N   UNL     1      -0.666  11.293  19.773  0.00  0.00    +0.000 NA
ATOM      5  C   UNL     1      -1.121  11.759  20.887  0.00  0.00    +0.000 A 
ATOM      6  N   UNL     1      -0.762  11.244  22.102  0.00  0.00    +0.000 N 
ATOM      7  C   UNL     1       0.121  10.215  22.217  0.00  0.00    +0.000 A 
ATOM      8  O   UNL     1       0.491   9.821  23.318  0.00  0.00    +0.000 OA
ATOM      9  C   UNL     1       0.601   9.620  20.943  0.00  0.00    +0.000 A 
ATOM     10  H   UNL     1      -1.128  11.600  22.970  0.00  0.00    +0.000 HD
BRANCH   5  11
ATOM     11  C   UNL     1      -2.080  12.882  20.883  0.00  0.00    +0.000 A 
ATOM     12  C   UNL     1      -1.596  14.156  21.179  0.00  0.00    +0.000 A 
ATOM     13  C   UNL     1      -2.499  15.198  21.215  0.00  0.00    +0.000 A 
ATOM     14  N   UNL     1      -3.821  15.045  20.982  0.00  0.00    +0.000 NA
ATOM     15  C   UNL     1      -4.260  13.797  20.712  0.00  0.00    +0.000 A 
ATOM     16  C   UNL     1      -3.438  12.688  20.645  0.00  0.00    +0.000 A 
ENDBRANCH   5  11
ENDBRANCH   1   9
BRANCH   1  17
ATOM     17  C   UNL     1       0.823   7.079  21.223  0.00  0.00    +0.000 C 
BRANCH  17  18
ATOM     18  C   UNL     1       1.548   5.871  20.652  0.00  0.00    +0.000 C 
ATOM     19  O   UNL     1       1.151   4.719  20.764  0.00  0.00    +0.000 OA
ATOM     20  N   UNL     1       2.644   6.245  19.905  0.00  0.00    +0.000 N 
ATOM     21  H   UNL     1       2.958   7.206  19.979  0.00  0.00    +0.000 HD
BRANCH  20  22
ATOM     22  C   UNL     1       3.388   5.371  18.998  0.00  0.00    +0.000 C 
ATOM     23  C   UNL     1       4.832   5.090  19.485  0.00  0.00    +0.000 C 
ATOM     24  C   UNL     1       5.616   5.038  18.208  0.00  0.00    +0.000 A 
ATOM     25  C   UNL     1       6.943   4.672  18.039  0.00  0.00    +0.000 A 
ATOM     26  C   UNL     1       7.513   4.781  16.766  0.00  0.00    +0.000 A 
ATOM     27  C   UNL     1       6.754   5.240  15.680  0.00  0.00    +0.000 A 
ATOM     28  C   UNL     1       5.419   5.599  15.856  0.00  0.00    +0.000 A 
ATOM     29  C   UNL     1       4.867   5.504  17.126  0.00  0.00    +0.000 A 
ATOM     30  C   UNL     1       3.503   5.966  17.557  0.00  0.00    +0.000 C 
ATOM     31  C   UNL     1       3.442   7.493  17.479  0.00  0.00    +0.000 C 
ENDBRANCH  20  22
ENDBRANCH  17  18
ENDBRANCH   1  17
TORSDOF 5
ENDMDL
MODEL 9
REMARK VINA RESULT:      -8.1      1.410      2.342
REMARK  Name = 
REMARK  7 active torsions:
REMARK  status: ('A' for Active; 'I' for Inactive)
REMARK    1  A    between atoms: C_1  and  C_2
REMARK    2  A    between atoms: C_4  and  C_5
REMARK    3  A    between atoms: C_14  and  C_15
REMARK    4  A    between atoms: C_15  and  C_16
REMARK    5  A    between atoms: C_16  and  C_17
REMARK    6  A    between atoms: N_19  and  C_20
REMARK    7  A    between atoms: C_28  and  C_29
REMARK                            x       y       z     vdW  Elec       q    Type
REMARK                         _______ _______ _______ _____ _____    ______ ____
ROOT
ATOM      1  C   UNL     1       7.776   7.207  17.357  0.00  0.00    +0.000 C 
ENDROOT
BRANCH   1   9
ATOM      2  C   UNL     1       7.657   5.421  19.839  0.00  0.00    +0.000 C 
ATOM      3  C   UNL     1       6.490   5.653  18.911  0.00  0.00    +0.000 A 
ATOM      4  N   UNL     1       5.354   4.987  19.302  0.00  0.00    +0.000 NA
ATOM      5  C   UNL     1       4.294   5.090  18.573  0.00  0.00    +0.000 A 
ATOM      6  N   UNL     1       4.262   5.822  17.419  0.00  0.00    +0.000 N 
ATOM      7  C   UNL     1       5.359   6.477  16.950  0.00  0.00    +0.000 A 
ATOM      8  O   UNL     1       5.331   7.061  15.872  0.00  0.00    +0.000 OA
ATOM      9  C   UNL     1       6.568   6.427  17.811  0.00  0.00    +0.000 A 
ATOM     10  H   UNL     1       3.431   5.912  16.859  0.00  0.00    +0.000 HD
BRANCH   5  11
ATOM     11  C   UNL     1       3.047   4.413  18.983  0.00  0.00    +0.000 A 
ATOM     12  C   UNL     1       2.484   4.768  20.209  0.00  0.00    +0.000 A 
ATOM     13  C   UNL     1       1.341   4.108  20.610  0.00  0.00    +0.000 A 
ATOM     14  N   UNL     1       0.748   3.138  19.881  0.00  0.00    +0.000 NA
ATOM     15  C   UNL     1       1.326   2.807  18.706  0.00  0.00    +0.000 A 
ATOM     16  C   UNL     1       2.465   3.412  18.209  0.00  0.00    +0.000 A 
ENDBRANCH   5  11
ENDBRANCH   1   9
BRANCH   1  17
ATOM     17  C   UNL     1       8.319   8.218  18.368  0.00  0.00    +0.000 C 
BRANCH  17  18
ATOM     18  C   UNL     1       8.299   9.674  17.928  0.00  0.00    +0.000 C 
ATOM     19  O   UNL     1       7.466  10.146  17.167  0.00  0.00    +0.000 OA
ATOM     20  N   UNL     1       9.265  10.413  18.577  0.00  0.00    +0.000 N 
ATOM     21  H   UNL     1       9.979   9.907  19.088  0.00  0.00    +0.000 HD
BRANCH  20  22
ATOM     22  C   UNL     1       9.339  11.873  18.602  0.00  0.00    +0.000 C 
ATOM     23  C   UNL     1      10.654  12.419  17.990  0.00  0.00    +0.000 C 
ATOM     24  C   UNL     1      10.956  13.612  18.846  0.00  0.00    +0.000 A 
ATOM     25  C   UNL     1      11.946  14.564  18.657  0.00  0.00    +0.000 A 
ATOM     26  C   UNL     1      12.120  15.555  19.629  0.00  0.00    +0.000 A 
ATOM     27  C   UNL     1      11.303  15.589  20.768  0.00  0.00    +0.000 A 
ATOM     28  C   UNL     1      10.305  14.632  20.948  0.00  0.00    +0.000 A 
ATOM     29  C   UNL     1      10.151  13.644  19.985  0.00  0.00    +0.000 A 
ATOM     30  C   UNL     1       9.240  12.450  20.051  0.00  0.00    +0.000 C 
ATOM     31  C   UNL     1       9.723  11.511  21.158  0.00  0.00    +0.000 C 
ENDBRANCH  20  22
ENDBRANCH  17  18
ENDBRANCH   1  17
TORSDOF 5
ENDMDL
