MODEL 1
REMARK VINA RESULT:      -8.8      0.000      0.000
REMARK  Name = 
REMARK  7 active torsions:
REMARK  status: ('A' for Active; 'I' for Inactive)
REMARK    1  A    between atoms: C_1  and  C_2
REMARK    2  A    between atoms: C_2  and  N_3
REMARK    3  A    between atoms: N_3  and  S_4
REMARK    4  A    between atoms: S_4  and  C_7
REMARK    5  A    between atoms: C_10  and  N_11
REMARK    6  A    between atoms: N_11  and  C_12
REMARK    7  A    between atoms: C_14  and  C_15
REMARK                            x       y       z     vdW  Elec       q    Type
REMARK                         _______ _______ _______ _____ _____    ______ ____
ROOT
ATOM      1  N   UNL     1       2.450   7.348  19.542  0.00  0.00    +0.000 N 
ATOM      2  H   UNL     1       3.374   7.692  19.772  0.00  0.00    +0.000 HD
ENDROOT
BRANCH   1   3
ATOM      3  C   UNL     1       2.540   6.066  18.931  0.00  0.00    +0.000 A 
ATOM      4  N   UNL     1       1.820   5.025  19.397  0.00  0.00    +0.000 NA
ATOM      5  C   UNL     1       2.001   3.810  18.820  0.00  0.00    +0.000 A 
ATOM      6  N   UNL     1       2.871   3.588  17.813  0.00  0.00    +0.000 NA
ATOM      7  C   UNL     1       3.600   4.601  17.370  0.00  0.00    +0.000 A 
ATOM      8  C   UNL     1       4.514   4.323  16.366  0.00  0.00    +0.000 A 
ATOM      9  C   UNL     1       5.333   5.315  15.854  0.00  0.00    +0.000 A 
ATOM     10  F   UNL     1       6.223   5.009  14.902  0.00  0.00    +0.000 F 
ATOM     11  C   UNL     1       5.246   6.612  16.321  0.00  0.00    +0.000 A 
ATOM     12  C   UNL     1       4.332   6.909  17.331  0.00  0.00    +0.000 A 
ATOM     13  C   UNL     1       3.490   5.902  17.885  0.00  0.00    +0.000 A 
BRANCH   5  14
ATOM     14  C   UNL     1       1.227   2.584  19.317  0.00  0.00    +0.000 C 
ATOM     15  F   UNL     1       1.951   1.422  19.332  0.00  0.00    +0.000 F 
ATOM     16  F   UNL     1       0.755   2.734  20.591  0.00  0.00    +0.000 F 
ATOM     17  F   UNL     1       0.124   2.314  18.553  0.00  0.00    +0.000 F 
ENDBRANCH   5  14
ENDBRANCH   1   3
BRANCH   1  21
ATOM     18  C   UNL     1      -0.057  10.714  18.950  0.00  0.00    +0.000 A 
ATOM     19  C   UNL     1       0.095  10.208  20.242  0.00  0.00    +0.000 A 
ATOM     20  C   UNL     1       0.921   9.091  20.468  0.00  0.00    +0.000 A 
ATOM     21  C   UNL     1       1.568   8.446  19.411  0.00  0.00    +0.000 A 
ATOM     22  C   UNL     1       1.411   8.994  18.119  0.00  0.00    +0.000 A 
ATOM     23  C   UNL     1       0.597  10.104  17.879  0.00  0.00    +0.000 A 
BRANCH  18  24
ATOM     24  S   UNL     1      -1.127  12.101  18.630  0.00  0.00    +0.000 S 
ATOM     25  O   UNL     1      -0.336  13.310  18.663  0.00  0.00    +0.000 OA
ATOM     26  O   UNL     1      -2.294  11.916  19.462  0.00  0.00    +0.000 OA
BRANCH  24  27
ATOM     27  N   UNL     1      -1.613  11.825  17.025  0.00  0.00    +0.000 NA
ATOM     28  H   UNL     1      -1.520  12.671  16.466  0.00  0.00    +0.000 HD
BRANCH  27  30
ATOM     29  C   UNL     1      -2.665   9.858  16.039  0.00  0.00    +0.000 C 
ATOM     30  C   UNL     1      -2.899  11.131  16.836  0.00  0.00    +0.000 C 
ENDBRANCH  27  30
ENDBRANCH  24  27
ENDBRANCH  18  24
ENDBRANCH   1  21
TORSDOF 6
ENDMDL
MODEL 2
REMARK VINA RESULT:      -8.6      0.534      1.274
REMARK  Name = 
REMARK  7 active torsions:
REMARK  status: ('A' for Active; 'I' for Inactive)
REMARK    1  A    between atoms: C_1  and  C_2
REMARK    2  A    between atoms: C_2  and  N_3
REMARK    3  A    between atoms: N_3  and  S_4
REMARK    4  A    between atoms: S_4  and  C_7
REMARK    5  A    between atoms: C_10  and  N_11
REMARK    6  A    between atoms: N_11  and  C_12
REMARK    7  A    between atoms: C_14  and  C_15
REMARK                            x       y       z     vdW  Elec       q    Type
REMARK                         _______ _______ _______ _____ _____    ______ ____
ROOT
ATOM      1  N   UNL     1       2.681   7.286  19.346  0.00  0.00    +0.000 N 
ATOM      2  H   UNL     1       3.621   7.636  19.488  0.00  0.00    +0.000 HD
ENDROOT
BRANCH   1   3
ATOM      3  C   UNL     1       2.723   5.969  18.807  0.00  0.00    +0.000 A 
ATOM      4  N   UNL     1       1.946   4.990  19.312  0.00  0.00    +0.000 NA
ATOM      5  C   UNL     1       2.080   3.738  18.805  0.00  0.00    +0.000 A 
ATOM      6  N   UNL     1       2.958   3.422  17.831  0.00  0.00    +0.000 NA
ATOM      7  C   UNL     1       3.743   4.374  17.351  0.00  0.00    +0.000 A 
ATOM      8  C   UNL     1       4.663   4.000  16.384  0.00  0.00    +0.000 A 
ATOM      9  C   UNL     1       5.537   4.924  15.838  0.00  0.00    +0.000 A 
ATOM     10  F   UNL     1       6.431   4.526  14.923  0.00  0.00    +0.000 F 
ATOM     11  C   UNL     1       5.503   6.248  16.232  0.00  0.00    +0.000 A 
ATOM     12  C   UNL     1       4.584   6.640  17.205  0.00  0.00    +0.000 A 
ATOM     13  C   UNL     1       3.685   5.705  17.792  0.00  0.00    +0.000 A 
BRANCH   5  14
ATOM     14  C   UNL     1       1.239   2.577  19.349  0.00  0.00    +0.000 C 
ATOM     15  F   UNL     1       0.727   2.785  20.602  0.00  0.00    +0.000 F 
ATOM     16  F   UNL     1       0.162   2.287  18.560  0.00  0.00    +0.000 F 
ATOM     17  F   UNL     1       1.949   1.411  19.437  0.00  0.00    +0.000 F 
ENDBRANCH   5  14
ENDBRANCH   1   3
BRANCH   1  21
ATOM     18  C   UNL     1      -0.112  10.467  19.140  0.00  0.00    +0.000 A 
ATOM     19  C   UNL     1       0.575  10.099  17.982  0.00  0.00    +0.000 A 
ATOM     20  C   UNL     1       1.509   9.047  18.021  0.00  0.00    +0.000 A 
ATOM     21  C   UNL     1       1.795   8.380  19.215  0.00  0.00    +0.000 A 
ATOM     22  C   UNL     1       1.069   8.761  20.365  0.00  0.00    +0.000 A 
ATOM     23  C   UNL     1       0.137   9.802  20.341  0.00  0.00    +0.000 A 
BRANCH  18  24
ATOM     24  S   UNL     1      -1.268  11.821  19.127  0.00  0.00    +0.000 S 
ATOM     25  O   UNL     1      -0.763  12.850  18.248  0.00  0.00    +0.000 OA
ATOM     26  O   UNL     1      -1.608  12.081  20.508  0.00  0.00    +0.000 OA
BRANCH  24  27
ATOM     27  N   UNL     1      -2.638  11.125  18.402  0.00  0.00    +0.000 NA
ATOM     28  H   UNL     1      -2.796  10.181  18.752  0.00  0.00    +0.000 HD
BRANCH  27  30
ATOM     29  C   UNL     1      -2.678   9.843  16.328  0.00  0.00    +0.000 C 
ATOM     30  C   UNL     1      -2.734  11.235  16.935  0.00  0.00    +0.000 C 
ENDBRANCH  27  30
ENDBRANCH  24  27
ENDBRANCH  18  24
ENDBRANCH   1  21
TORSDOF 6
ENDMDL
MODEL 3
REMARK VINA RESULT:      -8.6      1.024      3.883
REMARK  Name = 
REMARK  7 active torsions:
REMARK  status: ('A' for Active; 'I' for Inactive)
REMARK    1  A    between atoms: C_1  and  C_2
REMARK    2  A    between atoms: C_2  and  N_3
REMARK    3  A    between atoms: N_3  and  S_4
REMARK    4  A    between atoms: S_4  and  C_7
REMARK    5  A    between atoms: C_10  and  N_11
REMARK    6  A    between atoms: N_11  and  C_12
REMARK    7  A    between atoms: C_14  and  C_15
REMARK                            x       y       z     vdW  Elec       q    Type
REMARK                         _______ _______ _______ _____ _____    ______ ____
ROOT
ATOM      1  N   UNL     1       2.345   7.560  19.669  0.00  0.00    +0.000 N 
ATOM      2  H   UNL     1       2.964   7.792  20.437  0.00  0.00    +0.000 HD
ENDROOT
BRANCH   1   3
ATOM      3  C   UNL     1       2.906   6.514  18.884  0.00  0.00    +0.000 A 
ATOM      4  N   UNL     1       3.779   6.786  17.893  0.00  0.00    +0.000 NA
ATOM      5  C   UNL     1       4.227   5.755  17.131  0.00  0.00    +0.000 A 
ATOM      6  N   UNL     1       3.834   4.476  17.307  0.00  0.00    +0.000 NA
ATOM      7  C   UNL     1       2.955   4.209  18.261  0.00  0.00    +0.000 A 
ATOM      8  C   UNL     1       2.543   2.891  18.381  0.00  0.00    +0.000 A 
ATOM      9  C   UNL     1       1.613   2.520  19.337  0.00  0.00    +0.000 A 
ATOM     10  F   UNL     1       1.216   1.243  19.412  0.00  0.00    +0.000 F 
ATOM     11  C   UNL     1       1.085   3.454  20.208  0.00  0.00    +0.000 A 
ATOM     12  C   UNL     1       1.489   4.784  20.101  0.00  0.00    +0.000 A 
ATOM     13  C   UNL     1       2.433   5.192  19.115  0.00  0.00    +0.000 A 
BRANCH   5  14
ATOM     14  C   UNL     1       5.206   6.000  15.977  0.00  0.00    +0.000 C 
ATOM     15  F   UNL     1       4.878   7.053  15.167  0.00  0.00    +0.000 F 
ATOM     16  F   UNL     1       6.479   6.255  16.407  0.00  0.00    +0.000 F 
ATOM     17  F   UNL     1       5.315   4.921  15.143  0.00  0.00    +0.000 F 
ENDBRANCH   5  14
ENDBRANCH   1   3
BRANCH   1  21
ATOM     18  C   UNL     1      -0.271  10.831  19.016  0.00  0.00    +0.000 A 
ATOM     19  C   UNL     1       0.426  10.300  17.929  0.00  0.00    +0.000 A 
ATOM     20  C   UNL     1       1.302   9.215  18.116  0.00  0.00    +0.000 A 
ATOM     21  C   UNL     1       1.521   8.675  19.387  0.00  0.00    +0.000 A 
ATOM     22  C   UNL     1       0.786   9.219  20.462  0.00  0.00    +0.000 A 
ATOM     23  C   UNL     1      -0.089  10.296  20.292  0.00  0.00    +0.000 A 
BRANCH  18  24
ATOM     24  S   UNL     1      -1.354  12.230  18.814  0.00  0.00    +0.000 S 
ATOM     25  O   UNL     1      -0.575  13.439  18.955  0.00  0.00    +0.000 OA
ATOM     26  O   UNL     1      -2.521  11.962  19.623  0.00  0.00    +0.000 OA
BRANCH  24  27
ATOM     27  N   UNL     1      -1.832  12.090  17.190  0.00  0.00    +0.000 NA
ATOM     28  H   UNL     1      -1.852  13.002  16.736  0.00  0.00    +0.000 HD
BRANCH  27  30
ATOM     29  C   UNL     1      -2.692  10.230  15.868  0.00  0.00    +0.000 C 
ATOM     30  C   UNL     1      -3.027  11.271  16.923  0.00  0.00    +0.000 C 
ENDBRANCH  27  30
ENDBRANCH  24  27
ENDBRANCH  18  24
ENDBRANCH   1  21
TORSDOF 6
ENDMDL
MODEL 4
REMARK VINA RESULT:      -8.5      1.038      3.771
REMARK  Name = 
REMARK  7 active torsions:
REMARK  status: ('A' for Active; 'I' for Inactive)
REMARK    1  A    between atoms: C_1  and  C_2
REMARK    2  A    between atoms: C_2  and  N_3
REMARK    3  A    between atoms: N_3  and  S_4
REMARK    4  A    between atoms: S_4  and  C_7
REMARK    5  A    between atoms: C_10  and  N_11
REMARK    6  A    between atoms: N_11  and  C_12
REMARK    7  A    between atoms: C_14  and  C_15
REMARK                            x       y       z     vdW  Elec       q    Type
REMARK                         _______ _______ _______ _____ _____    ______ ____
ROOT
ATOM      1  N   UNL     1       2.333   7.426  19.884  0.00  0.00    +0.000 N 
ATOM      2  H   UNL     1       3.006   7.644  20.609  0.00  0.00    +0.000 HD
ENDROOT
BRANCH   1   3
ATOM      3  C   UNL     1       2.856   6.428  19.013  0.00  0.00    +0.000 A 
ATOM      4  N   UNL     1       3.764   6.742  18.068  0.00  0.00    +0.000 NA
ATOM      5  C   UNL     1       4.173   5.764  17.220  0.00  0.00    +0.000 A 
ATOM      6  N   UNL     1       3.709   4.499  17.267  0.00  0.00    +0.000 NA
ATOM      7  C   UNL     1       2.796   4.192  18.176  0.00  0.00    +0.000 A 
ATOM      8  C   UNL     1       2.311   2.893  18.163  0.00  0.00    +0.000 A 
ATOM      9  C   UNL     1       1.341   2.487  19.064  0.00  0.00    +0.000 A 
ATOM     10  F   UNL     1       0.875   1.233  19.010  0.00  0.00    +0.000 F 
ATOM     11  C   UNL     1       0.844   3.363  20.010  0.00  0.00    +0.000 A 
ATOM     12  C   UNL     1       1.321   4.673  20.036  0.00  0.00    +0.000 A 
ATOM     13  C   UNL     1       2.308   5.119  19.110  0.00  0.00    +0.000 A 
BRANCH   5  14
ATOM     14  C   UNL     1       5.190   6.062  16.112  0.00  0.00    +0.000 C 
ATOM     15  F   UNL     1       6.434   6.414  16.562  0.00  0.00    +0.000 F 
ATOM     16  F   UNL     1       5.394   4.997  15.279  0.00  0.00    +0.000 F 
ATOM     17  F   UNL     1       4.795   7.088  15.299  0.00  0.00    +0.000 F 
ENDBRANCH   5  14
ENDBRANCH   1   3
BRANCH   1  21
ATOM     18  C   UNL     1      -0.122  10.813  19.203  0.00  0.00    +0.000 A 
ATOM     19  C   UNL     1      -0.117  10.230  20.472  0.00  0.00    +0.000 A 
ATOM     20  C   UNL     1       0.688   9.104  20.726  0.00  0.00    +0.000 A 
ATOM     21  C   UNL     1       1.462   8.527  19.716  0.00  0.00    +0.000 A 
ATOM     22  C   UNL     1       1.452   9.151  18.450  0.00  0.00    +0.000 A 
ATOM     23  C   UNL     1       0.660  10.271  18.182  0.00  0.00    +0.000 A 
BRANCH  18  24
ATOM     24  S   UNL     1      -1.162  12.213  18.844  0.00  0.00    +0.000 S 
ATOM     25  O   UNL     1      -0.356  13.411  18.901  0.00  0.00    +0.000 OA
ATOM     26  O   UNL     1      -2.359  12.046  19.636  0.00  0.00    +0.000 OA
BRANCH  24  27
ATOM     27  N   UNL     1      -1.596  11.939  17.224  0.00  0.00    +0.000 NA
ATOM     28  H   UNL     1      -1.571  12.806  16.689  0.00  0.00    +0.000 HD
BRANCH  27  30
ATOM     29  C   UNL     1      -2.697  10.438  15.650  0.00  0.00    +0.000 C 
ATOM     30  C   UNL     1      -2.811  11.138  16.994  0.00  0.00    +0.000 C 
ENDBRANCH  27  30
ENDBRANCH  24  27
ENDBRANCH  18  24
ENDBRANCH   1  21
TORSDOF 6
ENDMDL
MODEL 5
REMARK VINA RESULT:      -8.5      2.434      4.588
REMARK  Name = 
REMARK  7 active torsions:
REMARK  status: ('A' for Active; 'I' for Inactive)
REMARK    1  A    between atoms: C_1  and  C_2
REMARK    2  A    between atoms: C_2  and  N_3
REMARK    3  A    between atoms: N_3  and  S_4
REMARK    4  A    between atoms: S_4  and  C_7
REMARK    5  A    between atoms: C_10  and  N_11
REMARK    6  A    between atoms: N_11  and  C_12
REMARK    7  A    between atoms: C_14  and  C_15
REMARK                            x       y       z     vdW  Elec       q    Type
REMARK                         _______ _______ _______ _____ _____    ______ ____
ROOT
ATOM      1  N   UNL     1       3.015   7.199  17.731  0.00  0.00    +0.000 N 
ATOM      2  H   UNL     1       2.535   6.937  16.878  0.00  0.00    +0.000 HD
ENDROOT
BRANCH   1   3
ATOM      3  C   UNL     1       3.878   6.149  18.152  0.00  0.00    +0.000 A 
ATOM      4  N   UNL     1       5.217   6.313  18.153  0.00  0.00    +0.000 NA
ATOM      5  C   UNL     1       5.993   5.253  18.497  0.00  0.00    +0.000 A 
ATOM      6  N   UNL     1       5.495   4.044  18.826  0.00  0.00    +0.000 NA
ATOM      7  C   UNL     1       4.182   3.870  18.800  0.00  0.00    +0.000 A 
ATOM      8  C   UNL     1       3.712   2.601  19.101  0.00  0.00    +0.000 A 
ATOM      9  C   UNL     1       2.356   2.322  19.081  0.00  0.00    +0.000 A 
ATOM     10  F   UNL     1       1.935   1.080  19.352  0.00  0.00    +0.000 F 
ATOM     11  C   UNL     1       1.436   3.306  18.776  0.00  0.00    +0.000 A 
ATOM     12  C   UNL     1       1.893   4.588  18.471  0.00  0.00    +0.000 A 
ATOM     13  C   UNL     1       3.284   4.896  18.470  0.00  0.00    +0.000 A 
BRANCH   5  14
ATOM     14  C   UNL     1       7.522   5.370  18.499  0.00  0.00    +0.000 C 
ATOM     15  F   UNL     1       8.173   4.314  17.919  0.00  0.00    +0.000 F 
ATOM     16  F   UNL     1       7.970   6.480  17.840  0.00  0.00    +0.000 F 
ATOM     17  F   UNL     1       8.039   5.465  19.762  0.00  0.00    +0.000 F 
ENDBRANCH   5  14
ENDBRANCH   1   3
BRANCH   1  21
ATOM     18  C   UNL     1       0.861  10.330  19.609  0.00  0.00    +0.000 A 
ATOM     19  C   UNL     1       1.096   9.153  20.322  0.00  0.00    +0.000 A 
ATOM     20  C   UNL     1       1.808   8.096  19.724  0.00  0.00    +0.000 A 
ATOM     21  C   UNL     1       2.256   8.185  18.403  0.00  0.00    +0.000 A 
ATOM     22  C   UNL     1       2.022   9.396  17.715  0.00  0.00    +0.000 A 
ATOM     23  C   UNL     1       1.319  10.454  18.297  0.00  0.00    +0.000 A 
BRANCH  18  24
ATOM     24  S   UNL     1      -0.071  11.665  20.329  0.00  0.00    +0.000 S 
ATOM     25  O   UNL     1      -1.477  11.416  20.109  0.00  0.00    +0.000 OA
ATOM     26  O   UNL     1       0.574  12.887  19.906  0.00  0.00    +0.000 OA
BRANCH  24  27
ATOM     27  N   UNL     1       0.250  11.482  21.987  0.00  0.00    +0.000 NA
ATOM     28  H   UNL     1       1.126  10.984  22.137  0.00  0.00    +0.000 HD
BRANCH  27  30
ATOM     29  C   UNL     1      -0.496   9.620  23.374  0.00  0.00    +0.000 C 
ATOM     30  C   UNL     1      -0.860  10.988  22.822  0.00  0.00    +0.000 C 
ENDBRANCH  27  30
ENDBRANCH  24  27
ENDBRANCH  18  24
ENDBRANCH   1  21
TORSDOF 6
ENDMDL
MODEL 6
REMARK VINA RESULT:      -8.5      1.323      2.156
REMARK  Name = 
REMARK  7 active torsions:
REMARK  status: ('A' for Active; 'I' for Inactive)
REMARK    1  A    between atoms: C_1  and  C_2
REMARK    2  A    between atoms: C_2  and  N_3
REMARK    3  A    between atoms: N_3  and  S_4
REMARK    4  A    between atoms: S_4  and  C_7
REMARK    5  A    between atoms: C_10  and  N_11
REMARK    6  A    between atoms: N_11  and  C_12
REMARK    7  A    between atoms: C_14  and  C_15
REMARK                            x       y       z     vdW  Elec       q    Type
REMARK                         _______ _______ _______ _____ _____    ______ ____
ROOT
ATOM      1  N   UNL     1       2.366   7.641  19.926  0.00  0.00    +0.000 N 
ATOM      2  H   UNL     1       3.240   8.096  20.162  0.00  0.00    +0.000 HD
ENDROOT
BRANCH   1   3
ATOM      3  C   UNL     1       2.599   6.283  19.567  0.00  0.00    +0.000 A 
ATOM      4  N   UNL     1       2.133   5.276  20.334  0.00  0.00    +0.000 NA
ATOM      5  C   UNL     1       2.447   4.004  19.981  0.00  0.00    +0.000 A 
ATOM      6  N   UNL     1       3.209   3.696  18.911  0.00  0.00    +0.000 NA
ATOM      7  C   UNL     1       3.692   4.683  18.171  0.00  0.00    +0.000 A 
ATOM      8  C   UNL     1       4.507   4.328  17.108  0.00  0.00    +0.000 A 
ATOM      9  C   UNL     1       5.072   5.292  16.291  0.00  0.00    +0.000 A 
ATOM     10  F   UNL     1       5.875   4.918  15.287  0.00  0.00    +0.000 F 
ATOM     11  C   UNL     1       4.822   6.634  16.506  0.00  0.00    +0.000 A 
ATOM     12  C   UNL     1       4.004   7.008  17.572  0.00  0.00    +0.000 A 
ATOM     13  C   UNL     1       3.424   6.035  18.436  0.00  0.00    +0.000 A 
BRANCH   5  14
ATOM     14  C   UNL     1       1.964   2.816  20.821  0.00  0.00    +0.000 C 
ATOM     15  F   UNL     1       0.828   3.057  21.547  0.00  0.00    +0.000 F 
ATOM     16  F   UNL     1       1.685   1.711  20.066  0.00  0.00    +0.000 F 
ATOM     17  F   UNL     1       2.897   2.405  21.733  0.00  0.00    +0.000 F 
ENDBRANCH   5  14
ENDBRANCH   1   3
BRANCH   1  21
ATOM     18  C   UNL     1      -0.592  10.506  18.922  0.00  0.00    +0.000 A 
ATOM     19  C   UNL     1       0.225   9.999  17.909  0.00  0.00    +0.000 A 
ATOM     20  C   UNL     1       1.216   9.048  18.214  0.00  0.00    +0.000 A 
ATOM     21  C   UNL     1       1.429   8.622  19.528  0.00  0.00    +0.000 A 
ATOM     22  C   UNL     1       0.573   9.136  20.526  0.00  0.00    +0.000 A 
ATOM     23  C   UNL     1      -0.417  10.080  20.239  0.00  0.00    +0.000 A 
BRANCH  18  24
ATOM     24  S   UNL     1      -1.826  11.740  18.571  0.00  0.00    +0.000 S 
ATOM     25  O   UNL     1      -2.293  12.293  19.822  0.00  0.00    +0.000 OA
ATOM     26  O   UNL     1      -2.723  11.156  17.600  0.00  0.00    +0.000 OA
BRANCH  24  27
ATOM     27  N   UNL     1      -0.928  12.935  17.763  0.00  0.00    +0.000 NA
ATOM     28  H   UNL     1      -0.354  12.525  17.028  0.00  0.00    +0.000 HD
BRANCH  27  30
ATOM     29  C   UNL     1       1.284  13.591  18.552  0.00  0.00    +0.000 C 
ATOM     30  C   UNL     1      -0.203  13.899  18.609  0.00  0.00    +0.000 C 
ENDBRANCH  27  30
ENDBRANCH  24  27
ENDBRANCH  18  24
ENDBRANCH   1  21
TORSDOF 6
ENDMDL
MODEL 7
REMARK VINA RESULT:      -8.5      1.241      1.820
REMARK  Name = 
REMARK  7 active torsions:
REMARK  status: ('A' for Active; 'I' for Inactive)
REMARK    1  A    between atoms: C_1  and  C_2
REMARK    2  A    between atoms: C_2  and  N_3
REMARK    3  A    between atoms: N_3  and  S_4
REMARK    4  A    between atoms: S_4  and  C_7
REMARK    5  A    between atoms: C_10  and  N_11
REMARK    6  A    between atoms: N_11  and  C_12
REMARK    7  A    between atoms: C_14  and  C_15
REMARK                            x       y       z     vdW  Elec       q    Type
REMARK                         _______ _______ _______ _____ _____    ______ ____
ROOT
ATOM      1  N   UNL     1       2.612   7.180  19.665  0.00  0.00    +0.000 N 
ATOM      2  H   UNL     1       3.546   7.524  19.858  0.00  0.00    +0.000 HD
ENDROOT
BRANCH   1   3
ATOM      3  C   UNL     1       2.679   5.916  19.013  0.00  0.00    +0.000 A 
ATOM      4  N   UNL     1       1.963   4.867  19.464  0.00  0.00    +0.000 NA
ATOM      5  C   UNL     1       2.121   3.669  18.847  0.00  0.00    +0.000 A 
ATOM      6  N   UNL     1       2.966   3.472  17.813  0.00  0.00    +0.000 NA
ATOM      7  C   UNL     1       3.692   4.493  17.384  0.00  0.00    +0.000 A 
ATOM      8  C   UNL     1       4.580   4.239  16.351  0.00  0.00    +0.000 A 
ATOM      9  C   UNL     1       5.394   5.241  15.850  0.00  0.00    +0.000 A 
ATOM     10  F   UNL     1       6.260   4.959  14.868  0.00  0.00    +0.000 F 
ATOM     11  C   UNL     1       5.328   6.525  16.358  0.00  0.00    +0.000 A 
ATOM     12  C   UNL     1       4.440   6.796  17.398  0.00  0.00    +0.000 A 
ATOM     13  C   UNL     1       3.604   5.778  17.941  0.00  0.00    +0.000 A 
BRANCH   5  14
ATOM     14  C   UNL     1       1.350   2.433  19.324  0.00  0.00    +0.000 C 
ATOM     15  F   UNL     1       0.222   2.152  18.600  0.00  0.00    +0.000 F 
ATOM     16  F   UNL     1       2.100   1.291  19.284  0.00  0.00    +0.000 F 
ATOM     17  F   UNL     1       0.930   2.545  20.621  0.00  0.00    +0.000 F 
ENDBRANCH   5  14
ENDBRANCH   1   3
BRANCH   1  21
ATOM     18  C   UNL     1       0.071  10.553  19.312  0.00  0.00    +0.000 A 
ATOM     19  C   UNL     1       0.214   9.947  20.561  0.00  0.00    +0.000 A 
ATOM     20  C   UNL     1       1.050   8.825  20.708  0.00  0.00    +0.000 A 
ATOM     21  C   UNL     1       1.719   8.274  19.611  0.00  0.00    +0.000 A 
ATOM     22  C   UNL     1       1.571   8.922  18.365  0.00  0.00    +0.000 A 
ATOM     23  C   UNL     1       0.746  10.038  18.204  0.00  0.00    +0.000 A 
BRANCH  18  24
ATOM     24  S   UNL     1      -1.013  11.949  19.090  0.00  0.00    +0.000 S 
ATOM     25  O   UNL     1      -1.142  12.636  20.355  0.00  0.00    +0.000 OA
ATOM     26  O   UNL     1      -2.157  11.464  18.352  0.00  0.00    +0.000 OA
BRANCH  24  27
ATOM     27  N   UNL     1      -0.123  12.938  18.034  0.00  0.00    +0.000 NA
ATOM     28  H   UNL     1       0.268  12.394  17.266  0.00  0.00    +0.000 HD
BRANCH  27  30
ATOM     29  C   UNL     1       2.253  13.436  18.273  0.00  0.00    +0.000 C 
ATOM     30  C   UNL     1       0.844  13.861  18.654  0.00  0.00    +0.000 C 
ENDBRANCH  27  30
ENDBRANCH  24  27
ENDBRANCH  18  24
ENDBRANCH   1  21
TORSDOF 6
ENDMDL
MODEL 8
REMARK VINA RESULT:      -8.4      2.510      4.570
REMARK  Name = 
REMARK  7 active torsions:
REMARK  status: ('A' for Active; 'I' for Inactive)
REMARK    1  A    between atoms: C_1  and  C_2
REMARK    2  A    between atoms: C_2  and  N_3
REMARK    3  A    between atoms: N_3  and  S_4
REMARK    4  A    between atoms: S_4  and  C_7
REMARK    5  A    between atoms: C_10  and  N_11
REMARK    6  A    between atoms: N_11  and  C_12
REMARK    7  A    between atoms: C_14  and  C_15
REMARK                            x       y       z     vdW  Elec       q    Type
REMARK                         _______ _______ _______ _____ _____    ______ ____
ROOT
ATOM      1  N   UNL     1       3.006   7.193  17.769  0.00  0.00    +0.000 N 
ATOM      2  H   UNL     1       2.503   6.966  16.919  0.00  0.00    +0.000 HD
ENDROOT
BRANCH   1   3
ATOM      3  C   UNL     1       3.886   6.130  18.119  0.00  0.00    +0.000 A 
ATOM      4  N   UNL     1       5.223   6.297  18.074  0.00  0.00    +0.000 NA
ATOM      5  C   UNL     1       6.013   5.228  18.349  0.00  0.00    +0.000 A 
ATOM      6  N   UNL     1       5.529   4.006  18.653  0.00  0.00    +0.000 NA
ATOM      7  C   UNL     1       4.216   3.830  18.671  0.00  0.00    +0.000 A 
ATOM      8  C   UNL     1       3.760   2.550  18.943  0.00  0.00    +0.000 A 
ATOM      9  C   UNL     1       2.404   2.268  18.965  0.00  0.00    +0.000 A 
ATOM     10  F   UNL     1       1.995   1.016  19.207  0.00  0.00    +0.000 F 
ATOM     11  C   UNL     1       1.473   3.261  18.732  0.00  0.00    +0.000 A 
ATOM     12  C   UNL     1       1.916   4.554  18.456  0.00  0.00    +0.000 A 
ATOM     13  C   UNL     1       3.305   4.865  18.413  0.00  0.00    +0.000 A 
BRANCH   5  14
ATOM     14  C   UNL     1       7.541   5.348  18.297  0.00  0.00    +0.000 C 
ATOM     15  F   UNL     1       8.142   5.484  19.519  0.00  0.00    +0.000 F 
ATOM     16  F   UNL     1       8.138   4.264  17.717  0.00  0.00    +0.000 F 
ATOM     17  F   UNL     1       7.958   6.426  17.565  0.00  0.00    +0.000 F 
ENDBRANCH   5  14
ENDBRANCH   1   3
BRANCH   1  21
ATOM     18  C   UNL     1       0.888  10.222  19.844  0.00  0.00    +0.000 A 
ATOM     19  C   UNL     1       1.161   9.021  20.502  0.00  0.00    +0.000 A 
ATOM     20  C   UNL     1       1.862   7.998  19.837  0.00  0.00    +0.000 A 
ATOM     21  C   UNL     1       2.262   8.143  18.506  0.00  0.00    +0.000 A 
ATOM     22  C   UNL     1       1.990   9.376  17.875  0.00  0.00    +0.000 A 
ATOM     23  C   UNL     1       1.297  10.403  18.522  0.00  0.00    +0.000 A 
BRANCH  18  24
ATOM     24  S   UNL     1      -0.032  11.517  20.647  0.00  0.00    +0.000 S 
ATOM     25  O   UNL     1      -0.935  12.106  19.685  0.00  0.00    +0.000 OA
ATOM     26  O   UNL     1       0.930  12.302  21.388  0.00  0.00    +0.000 OA
BRANCH  24  27
ATOM     27  N   UNL     1      -0.954  10.658  21.787  0.00  0.00    +0.000 NA
ATOM     28  H   UNL     1      -1.783  10.252  21.354  0.00  0.00    +0.000 HD
BRANCH  27  30
ATOM     29  C   UNL     1      -2.538  12.106  22.945  0.00  0.00    +0.000 C 
ATOM     30  C   UNL     1      -1.229  11.342  23.062  0.00  0.00    +0.000 C 
ENDBRANCH  27  30
ENDBRANCH  24  27
ENDBRANCH  18  24
ENDBRANCH   1  21
TORSDOF 6
ENDMDL
MODEL 9
REMARK VINA RESULT:      -8.4      2.582      4.654
REMARK  Name = 
REMARK  7 active torsions:
REMARK  status: ('A' for Active; 'I' for Inactive)
REMARK    1  A    between atoms: C_1  and  C_2
REMARK    2  A    between atoms: C_2  and  N_3
REMARK    3  A    between atoms: N_3  and  S_4
REMARK    4  A    between atoms: S_4  and  C_7
REMARK    5  A    between atoms: C_10  and  N_11
REMARK    6  A    between atoms: N_11  and  C_12
REMARK    7  A    between atoms: C_14  and  C_15
REMARK                            x       y       z     vdW  Elec       q    Type
REMARK                         _______ _______ _______ _____ _____    ______ ____
ROOT
ATOM      1  N   UNL     1       2.981   7.162  17.740  0.00  0.00    +0.000 N 
ATOM      2  H   UNL     1       2.413   6.836  16.967  0.00  0.00    +0.000 HD
ENDROOT
BRANCH   1   3
ATOM      3  C   UNL     1       3.850   6.125  18.183  0.00  0.00    +0.000 A 
ATOM      4  N   UNL     1       5.186   6.308  18.208  0.00  0.00    +0.000 NA
ATOM      5  C   UNL     1       5.970   5.261  18.571  0.00  0.00    +0.000 A 
ATOM      6  N   UNL     1       5.483   4.046  18.896  0.00  0.00    +0.000 NA
ATOM      7  C   UNL     1       4.173   3.854  18.846  0.00  0.00    +0.000 A 
ATOM      8  C   UNL     1       3.715   2.580  19.144  0.00  0.00    +0.000 A 
ATOM      9  C   UNL     1       2.364   2.281  19.100  0.00  0.00    +0.000 A 
ATOM     10  F   UNL     1       1.955   1.034  19.369  0.00  0.00    +0.000 F 
ATOM     11  C   UNL     1       1.437   3.251  18.774  0.00  0.00    +0.000 A 
ATOM     12  C   UNL     1       1.881   4.538  18.471  0.00  0.00    +0.000 A 
ATOM     13  C   UNL     1       3.267   4.866  18.495  0.00  0.00    +0.000 A 
BRANCH   5  14
ATOM     14  C   UNL     1       7.497   5.398  18.601  0.00  0.00    +0.000 C 
ATOM     15  F   UNL     1       8.174   4.333  18.071  0.00  0.00    +0.000 F 
ATOM     16  F   UNL     1       7.945   6.492  17.914  0.00  0.00    +0.000 F 
ATOM     17  F   UNL     1       7.986   5.543  19.870  0.00  0.00    +0.000 F 
ENDBRANCH   5  14
ENDBRANCH   1   3
BRANCH   1  21
ATOM     18  C   UNL     1       0.874  10.214  19.792  0.00  0.00    +0.000 A 
ATOM     19  C   UNL     1       1.284  10.446  18.477  0.00  0.00    +0.000 A 
ATOM     20  C   UNL     1       1.986   9.451  17.772  0.00  0.00    +0.000 A 
ATOM     21  C   UNL     1       2.319   8.236  18.378  0.00  0.00    +0.000 A 
ATOM     22  C   UNL     1       1.872   8.023  19.700  0.00  0.00    +0.000 A 
ATOM     23  C   UNL     1       1.172   9.000  20.412  0.00  0.00    +0.000 A 
BRANCH  18  24
ATOM     24  S   UNL     1       0.020  11.471  20.720  0.00  0.00    +0.000 S 
ATOM     25  O   UNL     1      -0.832  12.211  19.817  0.00  0.00    +0.000 OA
ATOM     26  O   UNL     1       1.016  12.115  21.547  0.00  0.00    +0.000 OA
BRANCH  24  27
ATOM     27  N   UNL     1      -0.967  10.554  21.754  0.00  0.00    +0.000 NA
ATOM     28  H   UNL     1      -1.827  10.273  21.284  0.00  0.00    +0.000 HD
BRANCH  27  30
ATOM     29  C   UNL     1      -2.417  11.985  23.096  0.00  0.00    +0.000 C 
ATOM     30  C   UNL     1      -1.185  11.094  23.108  0.00  0.00    +0.000 C 
ENDBRANCH  27  30
ENDBRANCH  24  27
ENDBRANCH  18  24
ENDBRANCH   1  21
TORSDOF 6
ENDMDL
