MODEL 1
REMARK VINA RESULT:      -8.6      0.000      0.000
REMARK  Name = 
REMARK  4 active torsions:
REMARK  status: ('A' for Active; 'I' for Inactive)
REMARK    1  A    between atoms: C_2  and  C_4
REMARK    2  A    between atoms: C_8  and  N_9
REMARK    3  A    between atoms: C_10  and  C_12
REMARK    4  A    between atoms: C_12  and  C_13
REMARK                            x       y       z     vdW  Elec       q    Type
REMARK                         _______ _______ _______ _____ _____    ______ ____
ROOT
ATOM      1  N   UNL     1       3.134   5.895  18.739  0.00  0.00    +0.000 N 
ATOM      2  C   UNL     1       2.626   4.760  18.107  0.00  0.00    +0.000 C 
ATOM      3  O   UNL     1       1.505   4.691  17.593  0.00  0.00    +0.000 OA
ATOM      4  H   UNL     1       4.092   5.848  19.070  0.00  0.00    +0.000 HD
ENDROOT
BRANCH   1   9
ATOM      5  C   UNL     1       1.332   8.725  20.361  0.00  0.00    +0.000 A 
ATOM      6  C   UNL     1       1.222   9.637  19.307  0.00  0.00    +0.000 A 
ATOM      7  C   UNL     1       1.702   9.296  18.050  0.00  0.00    +0.000 A 
ATOM      8  C   UNL     1       2.315   8.057  17.846  0.00  0.00    +0.000 A 
ATOM      9  C   UNL     1       2.476   7.143  18.893  0.00  0.00    +0.000 A 
ATOM     10  C   UNL     1       1.971   7.485  20.155  0.00  0.00    +0.000 A 
BRANCH   5  12
ATOM     11  N   UNL     1      -0.490   8.781  21.983  0.00  0.00    +0.000 N 
ATOM     12  C   UNL     1       0.821   9.062  21.717  0.00  0.00    +0.000 C 
ATOM     13  O   UNL     1       1.547   9.555  22.569  0.00  0.00    +0.000 OA
ATOM     14  H   UNL     1      -0.814   8.958  22.924  0.00  0.00    +0.000 HD
ATOM     15  H   UNL     1      -1.055   8.190  21.395  0.00  0.00    +0.000 HD
ENDBRANCH   5  12
ENDBRANCH   1   9
BRANCH   2  16
ATOM     16  C   UNL     1       3.603   3.515  18.065  0.00  0.00    +0.000 C 
ATOM     17  C   UNL     1       2.856   2.160  17.715  0.00  0.00    +0.000 C 
ATOM     18  C   UNL     1       3.729   1.454  18.756  0.00  0.00    +0.000 C 
ATOM     19  C   UNL     1       3.932   2.817  19.434  0.00  0.00    +0.000 C 
BRANCH  16  20
ATOM     20  C   UNL     1       4.811   3.938  17.077  0.00  0.00    +0.000 A 
ATOM     21  C   UNL     1       4.689   3.859  15.670  0.00  0.00    +0.000 A 
ATOM     22  C   UNL     1       5.688   4.318  14.808  0.00  0.00    +0.000 A 
ATOM     23  C   UNL     1       6.843   4.874  15.338  0.00  0.00    +0.000 A 
ATOM     24  F   UNL     1       7.786   5.347  14.513  0.00  0.00    +0.000 F 
ATOM     25  C   UNL     1       7.020   4.962  16.709  0.00  0.00    +0.000 A 
ATOM     26  C   UNL     1       6.011   4.500  17.553  0.00  0.00    +0.000 A 
ATOM     27  F   UNL     1       6.182   4.636  18.877  0.00  0.00    +0.000 F 
ENDBRANCH  16  20
ENDBRANCH   2  16
TORSDOF 4
ENDMDL
MODEL 2
REMARK VINA RESULT:      -8.2      1.147      1.152
REMARK  Name = 
REMARK  4 active torsions:
REMARK  status: ('A' for Active; 'I' for Inactive)
REMARK    1  A    between atoms: C_2  and  C_4
REMARK    2  A    between atoms: C_8  and  N_9
REMARK    3  A    between atoms: C_10  and  C_12
REMARK    4  A    between atoms: C_12  and  C_13
REMARK                            x       y       z     vdW  Elec       q    Type
REMARK                         _______ _______ _______ _____ _____    ______ ____
ROOT
ATOM      1  N   UNL     1       2.659   6.034  18.141  0.00  0.00    +0.000 N 
ATOM      2  C   UNL     1       3.709   5.318  18.717  0.00  0.00    +0.000 C 
ATOM      3  O   UNL     1       4.380   5.714  19.675  0.00  0.00    +0.000 OA
ATOM      4  H   UNL     1       2.144   5.576  17.396  0.00  0.00    +0.000 HD
ENDROOT
BRANCH   1   9
ATOM      5  C   UNL     1       1.302   8.726  20.329  0.00  0.00    +0.000 A 
ATOM      6  C   UNL     1       1.290   9.823  19.462  0.00  0.00    +0.000 A 
ATOM      7  C   UNL     1       1.686   9.659  18.142  0.00  0.00    +0.000 A 
ATOM      8  C   UNL     1       2.118   8.410  17.689  0.00  0.00    +0.000 A 
ATOM      9  C   UNL     1       2.181   7.306  18.547  0.00  0.00    +0.000 A 
ATOM     10  C   UNL     1       1.760   7.473  19.874  0.00  0.00    +0.000 A 
BRANCH   5  12
ATOM     11  N   UNL     1       1.853   9.115  22.675  0.00  0.00    +0.000 N 
ATOM     12  C   UNL     1       0.877   8.873  21.748  0.00  0.00    +0.000 C 
ATOM     13  O   UNL     1      -0.299   8.800  22.073  0.00  0.00    +0.000 OA
ATOM     14  H   UNL     1       1.550   9.273  23.627  0.00  0.00    +0.000 HD
ATOM     15  H   UNL     1       2.789   9.392  22.428  0.00  0.00    +0.000 HD
ENDBRANCH   5  12
ENDBRANCH   1   9
BRANCH   2  16
ATOM     16  C   UNL     1       4.002   3.905  18.065  0.00  0.00    +0.000 C 
ATOM     17  C   UNL     1       2.681   3.151  17.616  0.00  0.00    +0.000 C 
ATOM     18  C   UNL     1       3.296   1.846  18.130  0.00  0.00    +0.000 C 
ATOM     19  C   UNL     1       4.195   2.692  19.045  0.00  0.00    +0.000 C 
BRANCH  16  20
ATOM     20  C   UNL     1       5.097   4.174  16.907  0.00  0.00    +0.000 A 
ATOM     21  C   UNL     1       4.740   4.229  15.539  0.00  0.00    +0.000 A 
ATOM     22  C   UNL     1       5.661   4.563  14.542  0.00  0.00    +0.000 A 
ATOM     23  C   UNL     1       6.971   4.852  14.893  0.00  0.00    +0.000 A 
ATOM     24  F   UNL     1       7.845   5.206  13.942  0.00  0.00    +0.000 F 
ATOM     25  C   UNL     1       7.376   4.798  16.216  0.00  0.00    +0.000 A 
ATOM     26  C   UNL     1       6.444   4.465  17.197  0.00  0.00    +0.000 A 
ATOM     27  F   UNL     1       6.845   4.464  18.477  0.00  0.00    +0.000 F 
ENDBRANCH  16  20
ENDBRANCH   2  16
TORSDOF 4
ENDMDL
MODEL 3
REMARK VINA RESULT:      -8.0      1.518      1.987
REMARK  Name = 
REMARK  4 active torsions:
REMARK  status: ('A' for Active; 'I' for Inactive)
REMARK    1  A    between atoms: C_2  and  C_4
REMARK    2  A    between atoms: C_8  and  N_9
REMARK    3  A    between atoms: C_10  and  C_12
REMARK    4  A    between atoms: C_12  and  C_13
REMARK                            x       y       z     vdW  Elec       q    Type
REMARK                         _______ _______ _______ _____ _____    ______ ____
ROOT
ATOM      1  N   UNL     1       2.942   5.558  19.441  0.00  0.00    +0.000 N 
ATOM      2  C   UNL     1       2.613   4.688  18.401  0.00  0.00    +0.000 C 
ATOM      3  O   UNL     1       1.659   4.847  17.633  0.00  0.00    +0.000 OA
ATOM      4  H   UNL     1       3.785   5.350  19.966  0.00  0.00    +0.000 HD
ENDROOT
BRANCH   1   9
ATOM      5  C   UNL     1       1.566   9.009  19.158  0.00  0.00    +0.000 A 
ATOM      6  C   UNL     1       0.869   9.140  20.362  0.00  0.00    +0.000 A 
ATOM      7  C   UNL     1       0.894   8.105  21.287  0.00  0.00    +0.000 A 
ATOM      8  C   UNL     1       1.592   6.928  21.004  0.00  0.00    +0.000 A 
ATOM      9  C   UNL     1       2.262   6.754  19.788  0.00  0.00    +0.000 A 
ATOM     10  C   UNL     1       2.250   7.811  18.867  0.00  0.00    +0.000 A 
BRANCH   5  12
ATOM     11  N   UNL     1       0.466  10.923  18.119  0.00  0.00    +0.000 N 
ATOM     12  C   UNL     1       1.561  10.105  18.152  0.00  0.00    +0.000 C 
ATOM     13  O   UNL     1       2.505  10.283  17.396  0.00  0.00    +0.000 OA
ATOM     14  H   UNL     1       0.496  11.702  17.474  0.00  0.00    +0.000 HD
ATOM     15  H   UNL     1      -0.224  10.947  18.851  0.00  0.00    +0.000 HD
ENDBRANCH   5  12
ENDBRANCH   1   9
BRANCH   2  16
ATOM     16  C   UNL     1       3.573   3.440  18.234  0.00  0.00    +0.000 C 
ATOM     17  C   UNL     1       2.806   2.134  17.764  0.00  0.00    +0.000 C 
ATOM     18  C   UNL     1       3.675   1.321  18.727  0.00  0.00    +0.000 C 
ATOM     19  C   UNL     1       3.900   2.612  19.529  0.00  0.00    +0.000 C 
BRANCH  16  20
ATOM     20  C   UNL     1       4.781   3.938  17.282  0.00  0.00    +0.000 A 
ATOM     21  C   UNL     1       4.698   3.869  15.872  0.00  0.00    +0.000 A 
ATOM     22  C   UNL     1       5.693   4.391  15.041  0.00  0.00    +0.000 A 
ATOM     23  C   UNL     1       6.802   5.002  15.606  0.00  0.00    +0.000 A 
ATOM     24  F   UNL     1       7.739   5.534  14.810  0.00  0.00    +0.000 F 
ATOM     25  C   UNL     1       6.939   5.083  16.982  0.00  0.00    +0.000 A 
ATOM     26  C   UNL     1       5.937   4.558  17.795  0.00  0.00    +0.000 A 
ATOM     27  F   UNL     1       6.066   4.689  19.123  0.00  0.00    +0.000 F 
ENDBRANCH  16  20
ENDBRANCH   2  16
TORSDOF 4
ENDMDL
MODEL 4
REMARK VINA RESULT:      -8.0      3.941      7.814
REMARK  Name = 
REMARK  4 active torsions:
REMARK  status: ('A' for Active; 'I' for Inactive)
REMARK    1  A    between atoms: C_2  and  C_4
REMARK    2  A    between atoms: C_8  and  N_9
REMARK    3  A    between atoms: C_10  and  C_12
REMARK    4  A    between atoms: C_12  and  C_13
REMARK                            x       y       z     vdW  Elec       q    Type
REMARK                         _______ _______ _______ _____ _____    ______ ____
ROOT
ATOM      1  N   UNL     1       7.091   4.733  15.496  0.00  0.00    +0.000 N 
ATOM      2  C   UNL     1       6.284   5.595  16.240  0.00  0.00    +0.000 C 
ATOM      3  O   UNL     1       5.467   6.381  15.750  0.00  0.00    +0.000 OA
ATOM      4  H   UNL     1       7.680   4.091  16.016  0.00  0.00    +0.000 HD
ENDROOT
BRANCH   1   9
ATOM      5  C   UNL     1       6.287   3.462  12.087  0.00  0.00    +0.000 A 
ATOM      6  C   UNL     1       7.030   4.326  11.276  0.00  0.00    +0.000 A 
ATOM      7  C   UNL     1       7.831   5.298  11.860  0.00  0.00    +0.000 A 
ATOM      8  C   UNL     1       7.877   5.427  13.250  0.00  0.00    +0.000 A 
ATOM      9  C   UNL     1       7.111   4.604  14.084  0.00  0.00    +0.000 A 
ATOM     10  C   UNL     1       6.319   3.611  13.489  0.00  0.00    +0.000 A 
BRANCH   5  12
ATOM     11  N   UNL     1       5.966   1.161  11.340  0.00  0.00    +0.000 N 
ATOM     12  C   UNL     1       5.425   2.408  11.488  0.00  0.00    +0.000 C 
ATOM     13  O   UNL     1       4.271   2.640  11.157  0.00  0.00    +0.000 OA
ATOM     14  H   UNL     1       5.355   0.437  10.988  0.00  0.00    +0.000 HD
ATOM     15  H   UNL     1       6.822   0.877  11.788  0.00  0.00    +0.000 HD
ENDBRANCH   5  12
ENDBRANCH   1   9
BRANCH   2  16
ATOM     16  C   UNL     1       6.461   5.501  17.810  0.00  0.00    +0.000 C 
ATOM     17  C   UNL     1       7.184   6.773  18.423  0.00  0.00    +0.000 C 
ATOM     18  C   UNL     1       7.959   5.838  19.355  0.00  0.00    +0.000 C 
ATOM     19  C   UNL     1       7.710   4.709  18.342  0.00  0.00    +0.000 C 
BRANCH  16  20
ATOM     20  C   UNL     1       4.994   5.161  18.399  0.00  0.00    +0.000 A 
ATOM     21  C   UNL     1       4.300   6.063  19.239  0.00  0.00    +0.000 A 
ATOM     22  C   UNL     1       2.991   5.823  19.668  0.00  0.00    +0.000 A 
ATOM     23  C   UNL     1       2.341   4.667  19.262  0.00  0.00    +0.000 A 
ATOM     24  F   UNL     1       1.076   4.454  19.644  0.00  0.00    +0.000 F 
ATOM     25  C   UNL     1       2.982   3.745  18.452  0.00  0.00    +0.000 A 
ATOM     26  C   UNL     1       4.286   4.001  18.032  0.00  0.00    +0.000 A 
ATOM     27  F   UNL     1       4.872   3.118  17.210  0.00  0.00    +0.000 F 
ENDBRANCH  16  20
ENDBRANCH   2  16
TORSDOF 4
ENDMDL
MODEL 5
REMARK VINA RESULT:      -7.9      1.773      3.494
REMARK  Name = 
REMARK  4 active torsions:
REMARK  status: ('A' for Active; 'I' for Inactive)
REMARK    1  A    between atoms: C_2  and  C_4
REMARK    2  A    between atoms: C_8  and  N_9
REMARK    3  A    between atoms: C_10  and  C_12
REMARK    4  A    between atoms: C_12  and  C_13
REMARK                            x       y       z     vdW  Elec       q    Type
REMARK                         _______ _______ _______ _____ _____    ______ ____
ROOT
ATOM      1  N   UNL     1       3.098   6.638  17.929  0.00  0.00    +0.000 N 
ATOM      2  C   UNL     1       4.416   6.606  17.473  0.00  0.00    +0.000 C 
ATOM      3  O   UNL     1       5.156   7.594  17.410  0.00  0.00    +0.000 OA
ATOM      4  H   UNL     1       2.611   5.750  17.990  0.00  0.00    +0.000 HD
ENDROOT
BRANCH   1   9
ATOM      5  C   UNL     1       1.297   8.927  20.252  0.00  0.00    +0.000 A 
ATOM      6  C   UNL     1       1.053  10.034  19.434  0.00  0.00    +0.000 A 
ATOM      7  C   UNL     1       1.444  10.003  18.102  0.00  0.00    +0.000 A 
ATOM      8  C   UNL     1       2.099   8.880  17.589  0.00  0.00    +0.000 A 
ATOM      9  C   UNL     1       2.393   7.776  18.397  0.00  0.00    +0.000 A 
ATOM     10  C   UNL     1       1.978   7.806  19.736  0.00  0.00    +0.000 A 
BRANCH   5  12
ATOM     11  N   UNL     1      -0.378   8.494  21.973  0.00  0.00    +0.000 N 
ATOM     12  C   UNL     1       0.884   8.932  21.682  0.00  0.00    +0.000 C 
ATOM     13  O   UNL     1       1.647   9.294  22.566  0.00  0.00    +0.000 OA
ATOM     14  H   UNL     1      -0.631   8.444  22.951  0.00  0.00    +0.000 HD
ATOM     15  H   UNL     1      -0.952   7.994  21.314  0.00  0.00    +0.000 HD
ENDBRANCH   5  12
ENDBRANCH   1   9
BRANCH   2  16
ATOM     16  C   UNL     1       4.947   5.180  17.037  0.00  0.00    +0.000 C 
ATOM     17  C   UNL     1       6.509   5.013  17.259  0.00  0.00    +0.000 C 
ATOM     18  C   UNL     1       6.580   4.263  15.926  0.00  0.00    +0.000 C 
ATOM     19  C   UNL     1       5.283   4.977  15.515  0.00  0.00    +0.000 C 
BRANCH  16  20
ATOM     20  C   UNL     1       4.001   4.109  17.793  0.00  0.00    +0.000 A 
ATOM     21  C   UNL     1       2.988   3.395  17.111  0.00  0.00    +0.000 A 
ATOM     22  C   UNL     1       2.235   2.394  17.732  0.00  0.00    +0.000 A 
ATOM     23  C   UNL     1       2.482   2.081  19.060  0.00  0.00    +0.000 A 
ATOM     24  F   UNL     1       1.785   1.099  19.646  0.00  0.00    +0.000 F 
ATOM     25  C   UNL     1       3.452   2.760  19.778  0.00  0.00    +0.000 A 
ATOM     26  C   UNL     1       4.194   3.754  19.142  0.00  0.00    +0.000 A 
ATOM     27  F   UNL     1       5.161   4.368  19.840  0.00  0.00    +0.000 F 
ENDBRANCH  16  20
ENDBRANCH   2  16
TORSDOF 4
ENDMDL
MODEL 6
REMARK VINA RESULT:      -7.9      1.075      1.463
REMARK  Name = 
REMARK  4 active torsions:
REMARK  status: ('A' for Active; 'I' for Inactive)
REMARK    1  A    between atoms: C_2  and  C_4
REMARK    2  A    between atoms: C_8  and  N_9
REMARK    3  A    between atoms: C_10  and  C_12
REMARK    4  A    between atoms: C_12  and  C_13
REMARK                            x       y       z     vdW  Elec       q    Type
REMARK                         _______ _______ _______ _____ _____    ______ ____
ROOT
ATOM      1  N   UNL     1       3.156   6.280  19.091  0.00  0.00    +0.000 N 
ATOM      2  C   UNL     1       2.739   5.000  18.723  0.00  0.00    +0.000 C 
ATOM      3  O   UNL     1       1.599   4.722  18.338  0.00  0.00    +0.000 OA
ATOM      4  H   UNL     1       4.135   6.393  19.333  0.00  0.00    +0.000 HD
ENDROOT
BRANCH   1   9
ATOM      5  C   UNL     1       1.013   9.067  20.323  0.00  0.00    +0.000 A 
ATOM      6  C   UNL     1       0.854   9.840  19.168  0.00  0.00    +0.000 A 
ATOM      7  C   UNL     1       1.417   9.413  17.973  0.00  0.00    +0.000 A 
ATOM      8  C   UNL     1       2.159   8.230  17.931  0.00  0.00    +0.000 A 
ATOM      9  C   UNL     1       2.369   7.460  19.080  0.00  0.00    +0.000 A 
ATOM     10  C   UNL     1       1.781   7.886  20.280  0.00  0.00    +0.000 A 
BRANCH   5  12
ATOM     11  N   UNL     1      -0.530   8.683  22.175  0.00  0.00    +0.000 N 
ATOM     12  C   UNL     1       0.415   9.499  21.615  0.00  0.00    +0.000 C 
ATOM     13  O   UNL     1       0.766  10.531  22.168  0.00  0.00    +0.000 OA
ATOM     14  H   UNL     1      -0.887   8.953  23.081  0.00  0.00    +0.000 HD
ATOM     15  H   UNL     1      -0.689   7.737  21.870  0.00  0.00    +0.000 HD
ENDBRANCH   5  12
ENDBRANCH   1   9
BRANCH   2  16
ATOM     16  C   UNL     1       3.850   3.875  18.812  0.00  0.00    +0.000 C 
ATOM     17  C   UNL     1       3.244   2.410  18.761  0.00  0.00    +0.000 C 
ATOM     18  C   UNL     1       4.258   1.994  19.830  0.00  0.00    +0.000 C 
ATOM     19  C   UNL     1       4.344   3.470  20.248  0.00  0.00    +0.000 C 
BRANCH  16  20
ATOM     20  C   UNL     1       4.934   4.238  17.670  0.00  0.00    +0.000 A 
ATOM     21  C   UNL     1       6.260   4.613  17.990  0.00  0.00    +0.000 A 
ATOM     22  C   UNL     1       7.232   4.828  17.009  0.00  0.00    +0.000 A 
ATOM     23  C   UNL     1       6.897   4.671  15.672  0.00  0.00    +0.000 A 
ATOM     24  F   UNL     1       7.836   4.842  14.733  0.00  0.00    +0.000 F 
ATOM     25  C   UNL     1       5.609   4.319  15.303  0.00  0.00    +0.000 A 
ATOM     26  C   UNL     1       4.654   4.107  16.296  0.00  0.00    +0.000 A 
ATOM     27  F   UNL     1       3.425   3.723  15.920  0.00  0.00    +0.000 F 
ENDBRANCH  16  20
ENDBRANCH   2  16
TORSDOF 4
ENDMDL
MODEL 7
REMARK VINA RESULT:      -7.9      1.209      1.313
REMARK  Name = 
REMARK  4 active torsions:
REMARK  status: ('A' for Active; 'I' for Inactive)
REMARK    1  A    between atoms: C_2  and  C_4
REMARK    2  A    between atoms: C_8  and  N_9
REMARK    3  A    between atoms: C_10  and  C_12
REMARK    4  A    between atoms: C_12  and  C_13
REMARK                            x       y       z     vdW  Elec       q    Type
REMARK                         _______ _______ _______ _____ _____    ______ ____
ROOT
ATOM      1  N   UNL     1       2.718   6.247  18.569  0.00  0.00    +0.000 N 
ATOM      2  C   UNL     1       3.943   6.062  17.928  0.00  0.00    +0.000 C 
ATOM      3  O   UNL     1       4.671   6.979  17.536  0.00  0.00    +0.000 OA
ATOM      4  H   UNL     1       2.240   5.415  18.898  0.00  0.00    +0.000 HD
ENDROOT
BRANCH   1   9
ATOM      5  C   UNL     1       1.184   8.980  20.585  0.00  0.00    +0.000 A 
ATOM      6  C   UNL     1       0.967   9.964  19.616  0.00  0.00    +0.000 A 
ATOM      7  C   UNL     1       1.285   9.705  18.290  0.00  0.00    +0.000 A 
ATOM      8  C   UNL     1       1.842   8.476  17.929  0.00  0.00    +0.000 A 
ATOM      9  C   UNL     1       2.109   7.489  18.885  0.00  0.00    +0.000 A 
ATOM     10  C   UNL     1       1.767   7.749  20.220  0.00  0.00    +0.000 A 
BRANCH   5  12
ATOM     11  N   UNL     1      -0.458   9.075  22.387  0.00  0.00    +0.000 N 
ATOM     12  C   UNL     1       0.848   9.229  22.013  0.00  0.00    +0.000 C 
ATOM     13  O   UNL     1       1.705   9.541  22.826  0.00  0.00    +0.000 OA
ATOM     14  H   UNL     1      -0.669   9.187  23.370  0.00  0.00    +0.000 HD
ATOM     15  H   UNL     1      -1.145   8.618  21.809  0.00  0.00    +0.000 HD
ENDBRANCH   5  12
ENDBRANCH   1   9
BRANCH   2  16
ATOM     16  C   UNL     1       4.383   4.553  17.732  0.00  0.00    +0.000 C 
ATOM     17  C   UNL     1       3.152   3.553  17.719  0.00  0.00    +0.000 C 
ATOM     18  C   UNL     1       3.989   2.570  18.542  0.00  0.00    +0.000 C 
ATOM     19  C   UNL     1       4.829   3.766  19.017  0.00  0.00    +0.000 C 
BRANCH  16  20
ATOM     20  C   UNL     1       5.328   4.538  16.421  0.00  0.00    +0.000 A 
ATOM     21  C   UNL     1       4.814   4.261  15.133  0.00  0.00    +0.000 A 
ATOM     22  C   UNL     1       5.602   4.346  13.982  0.00  0.00    +0.000 A 
ATOM     23  C   UNL     1       6.934   4.714  14.094  0.00  0.00    +0.000 A 
ATOM     24  F   UNL     1       7.681   4.831  12.989  0.00  0.00    +0.000 F 
ATOM     25  C   UNL     1       7.491   4.982  15.334  0.00  0.00    +0.000 A 
ATOM     26  C   UNL     1       6.690   4.893  16.470  0.00  0.00    +0.000 A 
ATOM     27  F   UNL     1       7.236   5.201  17.656  0.00  0.00    +0.000 F 
ENDBRANCH  16  20
ENDBRANCH   2  16
TORSDOF 4
ENDMDL
MODEL 8
REMARK VINA RESULT:      -7.9      1.754      2.153
REMARK  Name = 
REMARK  4 active torsions:
REMARK  status: ('A' for Active; 'I' for Inactive)
REMARK    1  A    between atoms: C_2  and  C_4
REMARK    2  A    between atoms: C_8  and  N_9
REMARK    3  A    between atoms: C_10  and  C_12
REMARK    4  A    between atoms: C_12  and  C_13
REMARK                            x       y       z     vdW  Elec       q    Type
REMARK                         _______ _______ _______ _____ _____    ______ ____
ROOT
ATOM      1  N   UNL     1       2.574   5.665  18.832  0.00  0.00    +0.000 N 
ATOM      2  C   UNL     1       3.870   5.159  18.936  0.00  0.00    +0.000 C 
ATOM      3  O   UNL     1       4.783   5.705  19.564  0.00  0.00    +0.000 OA
ATOM      4  H   UNL     1       1.896   5.094  18.338  0.00  0.00    +0.000 HD
ENDROOT
BRANCH   1   9
ATOM      5  C   UNL     1       1.476   9.211  19.155  0.00  0.00    +0.000 A 
ATOM      6  C   UNL     1       1.044   9.258  20.484  0.00  0.00    +0.000 A 
ATOM      7  C   UNL     1       1.160   8.130  21.285  0.00  0.00    +0.000 A 
ATOM      8  C   UNL     1       1.683   6.946  20.758  0.00  0.00    +0.000 A 
ATOM      9  C   UNL     1       2.083   6.859  19.419  0.00  0.00    +0.000 A 
ATOM     10  C   UNL     1       1.982   8.008  18.622  0.00  0.00    +0.000 A 
BRANCH   5  12
ATOM     11  N   UNL     1       0.113  10.808  17.912  0.00  0.00    +0.000 N 
ATOM     12  C   UNL     1       1.368  10.407  18.277  0.00  0.00    +0.000 C 
ATOM     13  O   UNL     1       2.359  11.021  17.910  0.00  0.00    +0.000 OA
ATOM     14  H   UNL     1       0.045  11.656  17.365  0.00  0.00    +0.000 HD
ATOM     15  H   UNL     1      -0.724  10.469  18.357  0.00  0.00    +0.000 HD
ENDBRANCH   5  12
ENDBRANCH   1   9
BRANCH   2  16
ATOM     16  C   UNL     1       4.122   3.785  18.192  0.00  0.00    +0.000 C 
ATOM     17  C   UNL     1       2.775   3.057  17.776  0.00  0.00    +0.000 C 
ATOM     18  C   UNL     1       3.413   1.726  18.182  0.00  0.00    +0.000 C 
ATOM     19  C   UNL     1       4.364   2.519  19.091  0.00  0.00    +0.000 C 
BRANCH  16  20
ATOM     20  C   UNL     1       5.153   4.117  16.992  0.00  0.00    +0.000 A 
ATOM     21  C   UNL     1       4.722   4.239  15.650  0.00  0.00    +0.000 A 
ATOM     22  C   UNL     1       5.587   4.626  14.622  0.00  0.00    +0.000 A 
ATOM     23  C   UNL     1       6.913   4.905  14.917  0.00  0.00    +0.000 A 
ATOM     24  F   UNL     1       7.734   5.311  13.939  0.00  0.00    +0.000 F 
ATOM     25  C   UNL     1       7.389   4.788  16.212  0.00  0.00    +0.000 A 
ATOM     26  C   UNL     1       6.512   4.401  17.224  0.00  0.00    +0.000 A 
ATOM     27  F   UNL     1       6.981   4.338  18.478  0.00  0.00    +0.000 F 
ENDBRANCH  16  20
ENDBRANCH   2  16
TORSDOF 4
ENDMDL
MODEL 9
REMARK VINA RESULT:      -7.8      1.983      3.798
REMARK  Name = 
REMARK  4 active torsions:
REMARK  status: ('A' for Active; 'I' for Inactive)
REMARK    1  A    between atoms: C_2  and  C_4
REMARK    2  A    between atoms: C_8  and  N_9
REMARK    3  A    between atoms: C_10  and  C_12
REMARK    4  A    between atoms: C_12  and  C_13
REMARK                            x       y       z     vdW  Elec       q    Type
REMARK                         _______ _______ _______ _____ _____    ______ ____
ROOT
ATOM      1  N   UNL     1       3.107   6.472  18.049  0.00  0.00    +0.000 N 
ATOM      2  C   UNL     1       4.417   6.420  17.571  0.00  0.00    +0.000 C 
ATOM      3  O   UNL     1       5.152   7.405  17.444  0.00  0.00    +0.000 OA
ATOM      4  H   UNL     1       2.624   5.587  18.164  0.00  0.00    +0.000 HD
ENDROOT
BRANCH   1   9
ATOM      5  C   UNL     1       1.297   8.848  20.276  0.00  0.00    +0.000 A 
ATOM      6  C   UNL     1       1.078   9.933  19.422  0.00  0.00    +0.000 A 
ATOM      7  C   UNL     1       1.488   9.859  18.098  0.00  0.00    +0.000 A 
ATOM      8  C   UNL     1       2.138   8.715  17.628  0.00  0.00    +0.000 A 
ATOM      9  C   UNL     1       2.408   7.632  18.473  0.00  0.00    +0.000 A 
ATOM     10  C   UNL     1       1.973   7.705  19.804  0.00  0.00    +0.000 A 
BRANCH   5  12
ATOM     11  N   UNL     1      -0.418   8.512  21.979  0.00  0.00    +0.000 N 
ATOM     12  C   UNL     1       0.862   8.900  21.698  0.00  0.00    +0.000 C 
ATOM     13  O   UNL     1       1.624   9.257  22.586  0.00  0.00    +0.000 OA
ATOM     14  H   UNL     1      -0.687   8.493  22.954  0.00  0.00    +0.000 HD
ATOM     15  H   UNL     1      -0.998   8.016  21.323  0.00  0.00    +0.000 HD
ENDBRANCH   5  12
ENDBRANCH   1   9
BRANCH   2  16
ATOM     16  C   UNL     1       4.943   4.975  17.197  0.00  0.00    +0.000 C 
ATOM     17  C   UNL     1       6.516   4.836  17.351  0.00  0.00    +0.000 C 
ATOM     18  C   UNL     1       6.531   4.006  16.064  0.00  0.00    +0.000 C 
ATOM     19  C   UNL     1       5.207   4.681  15.675  0.00  0.00    +0.000 C 
BRANCH  16  20
ATOM     20  C   UNL     1       4.048   3.944  18.063  0.00  0.00    +0.000 A 
ATOM     21  C   UNL     1       4.350   3.643  19.412  0.00  0.00    +0.000 A 
ATOM     22  C   UNL     1       3.525   2.834  20.198  0.00  0.00    +0.000 A 
ATOM     23  C   UNL     1       2.368   2.304  19.648  0.00  0.00    +0.000 A 
ATOM     24  F   UNL     1       1.558   1.557  20.410  0.00  0.00    +0.000 F 
ATOM     25  C   UNL     1       2.033   2.554  18.327  0.00  0.00    +0.000 A 
ATOM     26  C   UNL     1       2.868   3.365  17.559  0.00  0.00    +0.000 A 
ATOM     27  F   UNL     1       2.503   3.633  16.297  0.00  0.00    +0.000 F 
ENDBRANCH  16  20
ENDBRANCH   2  16
TORSDOF 4
ENDMDL
