MODEL 1
REMARK VINA RESULT:      -9.2      0.000      0.000
REMARK  Name = 
REMARK  5 active torsions:
REMARK  status: ('A' for Active; 'I' for Inactive)
REMARK    1  A    between atoms: C_8  and  S_9
REMARK    2  A    between atoms: S_9  and  N_12
REMARK    3  A    between atoms: N_12  and  C_13
REMARK    4  A    between atoms: C_17  and  O_18
REMARK    5  A    between atoms: O_18  and  C_19
REMARK                            x       y       z     vdW  Elec       q    Type
REMARK                         _______ _______ _______ _____ _____    ______ ____
ROOT
ATOM      1  S   UNL     1       2.620   2.769  19.531  0.00  0.00    +0.000 S 
ATOM      2  O   UNL     1       2.203   1.541  18.894  0.00  0.00    +0.000 OA
ATOM      3  O   UNL     1       3.050   2.790  20.915  0.00  0.00    +0.000 OA
ENDROOT
BRANCH   1  11
ATOM      4  O   UNL     1       7.433   5.466  15.421  0.00  0.00    +0.000 OA
ATOM      5  C   UNL     1       7.144   5.304  16.588  0.00  0.00    +0.000 C 
ATOM      6  N   UNL     1       7.832   5.720  17.689  0.00  0.00    +0.000 N 
ATOM      7  C   UNL     1       7.203   5.383  18.849  0.00  0.00    +0.000 C 
ATOM      8  O   UNL     1       7.542   5.632  19.987  0.00  0.00    +0.000 OA
ATOM      9  C   UNL     1       5.993   4.657  18.470  0.00  0.00    +0.000 A 
ATOM     10  C   UNL     1       5.007   4.094  19.253  0.00  0.00    +0.000 A 
ATOM     11  C   UNL     1       3.939   3.485  18.581  0.00  0.00    +0.000 A 
ATOM     12  C   UNL     1       3.891   3.437  17.166  0.00  0.00    +0.000 A 
ATOM     13  C   UNL     1       4.916   4.008  16.400  0.00  0.00    +0.000 A 
ATOM     14  C   UNL     1       5.951   4.615  17.082  0.00  0.00    +0.000 A 
ATOM     15  H   UNL     1       8.695   6.239  17.648  0.00  0.00    +0.000 HD
ENDBRANCH   1  11
BRANCH   1  16
ATOM     16  N   UNL     1       1.395   3.904  19.396  0.00  0.00    +0.000 N 
ATOM     17  H   UNL     1       0.460   3.556  19.188  0.00  0.00    +0.000 HD
BRANCH  16  18
ATOM     18  C   UNL     1       1.687   5.283  19.317  0.00  0.00    +0.000 A 
ATOM     19  C   UNL     1       2.032   5.868  18.101  0.00  0.00    +0.000 A 
ATOM     20  C   UNL     1       2.330   7.229  18.053  0.00  0.00    +0.000 A 
ATOM     21  C   UNL     1       2.262   8.002  19.214  0.00  0.00    +0.000 A 
ATOM     22  C   UNL     1       1.818   7.431  20.410  0.00  0.00    +0.000 A 
ATOM     23  C   UNL     1       1.556   6.062  20.465  0.00  0.00    +0.000 A 
BRANCH  22  24
ATOM     24  O   UNL     1       1.657   8.119  21.591  0.00  0.00    +0.000 OA
BRANCH  24  25
ATOM     25  C   UNL     1       0.730   9.134  21.676  0.00  0.00    +0.000 A 
ATOM     26  C   UNL     1       0.288   9.897  20.591  0.00  0.00    +0.000 A 
ATOM     27  C   UNL     1      -0.612  10.945  20.792  0.00  0.00    +0.000 A 
ATOM     28  C   UNL     1      -1.123  11.190  22.064  0.00  0.00    +0.000 A 
ATOM     29  C   UNL     1      -0.748  10.378  23.135  0.00  0.00    +0.000 A 
ATOM     30  C   UNL     1       0.177   9.351  22.940  0.00  0.00    +0.000 A 
ENDBRANCH  24  25
ENDBRANCH  22  24
ENDBRANCH  16  18
ENDBRANCH   1  16
TORSDOF 5
ENDMDL
MODEL 2
REMARK VINA RESULT:      -9.2      1.864      2.307
REMARK  Name = 
REMARK  5 active torsions:
REMARK  status: ('A' for Active; 'I' for Inactive)
REMARK    1  A    between atoms: C_8  and  S_9
REMARK    2  A    between atoms: S_9  and  N_12
REMARK    3  A    between atoms: N_12  and  C_13
REMARK    4  A    between atoms: C_17  and  O_18
REMARK    5  A    between atoms: O_18  and  C_19
REMARK                            x       y       z     vdW  Elec       q    Type
REMARK                         _______ _______ _______ _____ _____    ______ ____
ROOT
ATOM      1  S   UNL     1       2.429   4.533  19.966  0.00  0.00    +0.000 S 
ATOM      2  O   UNL     1       1.133   4.425  19.338  0.00  0.00    +0.000 OA
ATOM      3  O   UNL     1       2.828   3.631  21.028  0.00  0.00    +0.000 OA
ENDROOT
BRANCH   1  11
ATOM      4  O   UNL     1       6.893   4.075  14.751  0.00  0.00    +0.000 OA
ATOM      5  C   UNL     1       6.824   4.287  15.944  0.00  0.00    +0.000 C 
ATOM      6  N   UNL     1       7.838   4.586  16.803  0.00  0.00    +0.000 N 
ATOM      7  C   UNL     1       7.396   4.785  18.076  0.00  0.00    +0.000 C 
ATOM      8  O   UNL     1       8.041   5.091  19.057  0.00  0.00    +0.000 OA
ATOM      9  C   UNL     1       5.950   4.575  18.050  0.00  0.00    +0.000 A 
ATOM     10  C   UNL     1       5.019   4.647  19.066  0.00  0.00    +0.000 A 
ATOM     11  C   UNL     1       3.682   4.423  18.711  0.00  0.00    +0.000 A 
ATOM     12  C   UNL     1       3.315   4.117  17.377  0.00  0.00    +0.000 A 
ATOM     13  C   UNL     1       4.288   4.038  16.373  0.00  0.00    +0.000 A 
ATOM     14  C   UNL     1       5.596   4.277  16.741  0.00  0.00    +0.000 A 
ATOM     15  H   UNL     1       8.803   4.676  16.524  0.00  0.00    +0.000 HD
ENDBRANCH   1  11
BRANCH   1  16
ATOM     16  N   UNL     1       2.625   6.086  20.562  0.00  0.00    +0.000 N 
ATOM     17  H   UNL     1       2.843   6.180  21.553  0.00  0.00    +0.000 HD
BRANCH  16  18
ATOM     18  C   UNL     1       2.255   7.212  19.794  0.00  0.00    +0.000 A 
ATOM     19  C   UNL     1       2.629   7.314  18.456  0.00  0.00    +0.000 A 
ATOM     20  C   UNL     1       2.263   8.442  17.724  0.00  0.00    +0.000 A 
ATOM     21  C   UNL     1       1.508   9.452  18.324  0.00  0.00    +0.000 A 
ATOM     22  C   UNL     1       1.050   9.297  19.636  0.00  0.00    +0.000 A 
ATOM     23  C   UNL     1       1.448   8.186  20.379  0.00  0.00    +0.000 A 
BRANCH  22  24
ATOM     24  O   UNL     1       0.251  10.203  20.296  0.00  0.00    +0.000 OA
BRANCH  24  25
ATOM     25  C   UNL     1       0.275  11.533  19.938  0.00  0.00    +0.000 A 
ATOM     26  C   UNL     1      -0.616  12.128  19.040  0.00  0.00    +0.000 A 
ATOM     27  C   UNL     1      -0.470  13.473  18.697  0.00  0.00    +0.000 A 
ATOM     28  C   UNL     1       0.523  14.242  19.300  0.00  0.00    +0.000 A 
ATOM     29  C   UNL     1       1.361  13.672  20.258  0.00  0.00    +0.000 A 
ATOM     30  C   UNL     1       1.237  12.319  20.576  0.00  0.00    +0.000 A 
ENDBRANCH  24  25
ENDBRANCH  22  24
ENDBRANCH  16  18
ENDBRANCH   1  16
TORSDOF 5
ENDMDL
MODEL 3
REMARK VINA RESULT:      -9.2      2.394      7.661
REMARK  Name = 
REMARK  5 active torsions:
REMARK  status: ('A' for Active; 'I' for Inactive)
REMARK    1  A    between atoms: C_8  and  S_9
REMARK    2  A    between atoms: S_9  and  N_12
REMARK    3  A    between atoms: N_12  and  C_13
REMARK    4  A    between atoms: C_17  and  O_18
REMARK    5  A    between atoms: O_18  and  C_19
REMARK                            x       y       z     vdW  Elec       q    Type
REMARK                         _______ _______ _______ _____ _____    ______ ____
ROOT
ATOM      1  S   UNL     1       3.259   3.173  17.983  0.00  0.00    +0.000 S 
ATOM      2  O   UNL     1       2.602   2.019  18.553  0.00  0.00    +0.000 OA
ATOM      3  O   UNL     1       3.169   3.466  16.566  0.00  0.00    +0.000 OA
ENDROOT
BRANCH   1  11
ATOM      4  O   UNL     1       1.134   8.530  21.739  0.00  0.00    +0.000 OA
ATOM      5  C   UNL     1       1.481   8.216  20.620  0.00  0.00    +0.000 C 
ATOM      6  N   UNL     1       1.601   9.016  19.523  0.00  0.00    +0.000 N 
ATOM      7  C   UNL     1       2.038   8.331  18.430  0.00  0.00    +0.000 C 
ATOM      8  O   UNL     1       2.271   8.760  17.319  0.00  0.00    +0.000 OA
ATOM      9  C   UNL     1       2.202   6.941  18.848  0.00  0.00    +0.000 A 
ATOM     10  C   UNL     1       2.615   5.836  18.133  0.00  0.00    +0.000 A 
ATOM     11  C   UNL     1       2.702   4.627  18.837  0.00  0.00    +0.000 A 
ATOM     12  C   UNL     1       2.361   4.548  20.210  0.00  0.00    +0.000 A 
ATOM     13  C   UNL     1       1.932   5.688  20.903  0.00  0.00    +0.000 A 
ATOM     14  C   UNL     1       1.868   6.870  20.195  0.00  0.00    +0.000 A 
ATOM     15  H   UNL     1       1.412  10.006  19.527  0.00  0.00    +0.000 HD
ENDBRANCH   1  11
BRANCH   1  16
ATOM     16  N   UNL     1       4.892   3.116  18.354  0.00  0.00    +0.000 N 
ATOM     17  H   UNL     1       5.212   2.337  18.928  0.00  0.00    +0.000 HD
BRANCH  16  18
ATOM     18  C   UNL     1       5.733   4.222  18.103  0.00  0.00    +0.000 A 
ATOM     19  C   UNL     1       6.082   5.097  19.130  0.00  0.00    +0.000 A 
ATOM     20  C   UNL     1       6.903   6.189  18.853  0.00  0.00    +0.000 A 
ATOM     21  C   UNL     1       7.385   6.392  17.559  0.00  0.00    +0.000 A 
ATOM     22  C   UNL     1       7.114   5.456  16.556  0.00  0.00    +0.000 A 
ATOM     23  C   UNL     1       6.263   4.384  16.825  0.00  0.00    +0.000 A 
BRANCH  22  24
ATOM     24  O   UNL     1       7.593   5.531  15.268  0.00  0.00    +0.000 OA
BRANCH  24  25
ATOM     25  C   UNL     1       6.945   4.863  14.252  0.00  0.00    +0.000 A 
ATOM     26  C   UNL     1       5.647   4.349  14.343  0.00  0.00    +0.000 A 
ATOM     27  C   UNL     1       5.101   3.634  13.276  0.00  0.00    +0.000 A 
ATOM     28  C   UNL     1       5.822   3.490  12.092  0.00  0.00    +0.000 A 
ATOM     29  C   UNL     1       7.083   4.072  11.969  0.00  0.00    +0.000 A 
ATOM     30  C   UNL     1       7.644   4.758  13.048  0.00  0.00    +0.000 A 
ENDBRANCH  24  25
ENDBRANCH  22  24
ENDBRANCH  16  18
ENDBRANCH   1  16
TORSDOF 5
ENDMDL
MODEL 4
REMARK VINA RESULT:      -9.1      1.836      2.313
REMARK  Name = 
REMARK  5 active torsions:
REMARK  status: ('A' for Active; 'I' for Inactive)
REMARK    1  A    between atoms: C_8  and  S_9
REMARK    2  A    between atoms: S_9  and  N_12
REMARK    3  A    between atoms: N_12  and  C_13
REMARK    4  A    between atoms: C_17  and  O_18
REMARK    5  A    between atoms: O_18  and  C_19
REMARK                            x       y       z     vdW  Elec       q    Type
REMARK                         _______ _______ _______ _____ _____    ______ ____
ROOT
ATOM      1  S   UNL     1       2.237   4.562  20.247  0.00  0.00    +0.000 S 
ATOM      2  O   UNL     1       0.922   4.416  19.664  0.00  0.00    +0.000 OA
ATOM      3  O   UNL     1       2.669   3.723  21.346  0.00  0.00    +0.000 OA
ENDROOT
BRANCH   1  11
ATOM      4  O   UNL     1       6.546   3.795  14.939  0.00  0.00    +0.000 OA
ATOM      5  C   UNL     1       6.508   4.101  16.113  0.00  0.00    +0.000 C 
ATOM      6  N   UNL     1       7.541   4.492  16.911  0.00  0.00    +0.000 N 
ATOM      7  C   UNL     1       7.133   4.781  18.178  0.00  0.00    +0.000 C 
ATOM      8  O   UNL     1       7.800   5.180  19.110  0.00  0.00    +0.000 OA
ATOM      9  C   UNL     1       5.693   4.535  18.217  0.00  0.00    +0.000 A 
ATOM     10  C   UNL     1       4.793   4.666  19.254  0.00  0.00    +0.000 A 
ATOM     11  C   UNL     1       3.452   4.382  18.963  0.00  0.00    +0.000 A 
ATOM     12  C   UNL     1       3.051   3.961  17.671  0.00  0.00    +0.000 A 
ATOM     13  C   UNL     1       3.995   3.826  16.644  0.00  0.00    +0.000 A 
ATOM     14  C   UNL     1       5.307   4.125  16.948  0.00  0.00    +0.000 A 
ATOM     15  H   UNL     1       8.494   4.582  16.594  0.00  0.00    +0.000 HD
ENDBRANCH   1  11
BRANCH   1  16
ATOM     16  N   UNL     1       2.445   6.148  20.747  0.00  0.00    +0.000 N 
ATOM     17  H   UNL     1       2.583   6.307  21.744  0.00  0.00    +0.000 HD
BRANCH  16  18
ATOM     18  C   UNL     1       2.186   7.225  19.872  0.00  0.00    +0.000 A 
ATOM     19  C   UNL     1       2.587   7.171  18.539  0.00  0.00    +0.000 A 
ATOM     20  C   UNL     1       2.331   8.255  17.700  0.00  0.00    +0.000 A 
ATOM     21  C   UNL     1       1.661   9.377  18.190  0.00  0.00    +0.000 A 
ATOM     22  C   UNL     1       1.172   9.384  19.500  0.00  0.00    +0.000 A 
ATOM     23  C   UNL     1       1.461   8.315  20.349  0.00  0.00    +0.000 A 
BRANCH  22  24
ATOM     24  O   UNL     1       0.447  10.412  20.058  0.00  0.00    +0.000 OA
BRANCH  24  25
ATOM     25  C   UNL     1      -0.779  10.755  19.531  0.00  0.00    +0.000 A 
ATOM     26  C   UNL     1      -1.403  10.085  18.475  0.00  0.00    +0.000 A 
ATOM     27  C   UNL     1      -2.621  10.549  17.974  0.00  0.00    +0.000 A 
ATOM     28  C   UNL     1      -3.250  11.639  18.571  0.00  0.00    +0.000 A 
ATOM     29  C   UNL     1      -2.670  12.259  19.677  0.00  0.00    +0.000 A 
ATOM     30  C   UNL     1      -1.436  11.817  20.157  0.00  0.00    +0.000 A 
ENDBRANCH  24  25
ENDBRANCH  22  24
ENDBRANCH  16  18
ENDBRANCH   1  16
TORSDOF 5
ENDMDL
MODEL 5
REMARK VINA RESULT:      -9.0      3.713      7.206
REMARK  Name = 
REMARK  5 active torsions:
REMARK  status: ('A' for Active; 'I' for Inactive)
REMARK    1  A    between atoms: C_8  and  S_9
REMARK    2  A    between atoms: S_9  and  N_12
REMARK    3  A    between atoms: N_12  and  C_13
REMARK    4  A    between atoms: C_17  and  O_18
REMARK    5  A    between atoms: O_18  and  C_19
REMARK                            x       y       z     vdW  Elec       q    Type
REMARK                         _______ _______ _______ _____ _____    ______ ____
ROOT
ATOM      1  S   UNL     1       5.429   5.518  15.303  0.00  0.00    +0.000 S 
ATOM      2  O   UNL     1       5.206   4.491  14.311  0.00  0.00    +0.000 OA
ATOM      3  O   UNL     1       5.134   6.909  15.026  0.00  0.00    +0.000 OA
ENDROOT
BRANCH   1  11
ATOM      4  O   UNL     1       1.777   4.366  21.018  0.00  0.00    +0.000 OA
ATOM      5  C   UNL     1       2.431   3.805  20.164  0.00  0.00    +0.000 C 
ATOM      6  N   UNL     1       2.680   2.471  20.038  0.00  0.00    +0.000 N 
ATOM      7  C   UNL     1       3.438   2.188  18.943  0.00  0.00    +0.000 C 
ATOM      8  O   UNL     1       3.803   1.102  18.542  0.00  0.00    +0.000 OA
ATOM      9  C   UNL     1       3.730   3.466  18.299  0.00  0.00    +0.000 A 
ATOM     10  C   UNL     1       4.461   3.747  17.162  0.00  0.00    +0.000 A 
ATOM     11  C   UNL     1       4.531   5.092  16.776  0.00  0.00    +0.000 A 
ATOM     12  C   UNL     1       3.898   6.110  17.531  0.00  0.00    +0.000 A 
ATOM     13  C   UNL     1       3.175   5.791  18.688  0.00  0.00    +0.000 A 
ATOM     14  C   UNL     1       3.106   4.459  19.042  0.00  0.00    +0.000 A 
ATOM     15  H   UNL     1       2.322   1.771  20.670  0.00  0.00    +0.000 HD
ENDBRANCH   1  11
BRANCH   1  16
ATOM     16  N   UNL     1       7.027   5.461  15.804  0.00  0.00    +0.000 N 
ATOM     17  H   UNL     1       7.628   4.763  15.367  0.00  0.00    +0.000 HD
BRANCH  16  18
ATOM     18  C   UNL     1       7.455   6.166  16.950  0.00  0.00    +0.000 A 
ATOM     19  C   UNL     1       7.781   5.486  18.122  0.00  0.00    +0.000 A 
ATOM     20  C   UNL     1       8.187   6.207  19.244  0.00  0.00    +0.000 A 
ATOM     21  C   UNL     1       8.284   7.599  19.185  0.00  0.00    +0.000 A 
ATOM     22  C   UNL     1       8.053   8.266  17.978  0.00  0.00    +0.000 A 
ATOM     23  C   UNL     1       7.612   7.548  16.867  0.00  0.00    +0.000 A 
BRANCH  22  24
ATOM     24  O   UNL     1       8.183   9.625  17.800  0.00  0.00    +0.000 OA
BRANCH  24  25
ATOM     25  C   UNL     1       9.118  10.329  18.526  0.00  0.00    +0.000 A 
ATOM     26  C   UNL     1       9.112  10.452  19.918  0.00  0.00    +0.000 A 
ATOM     27  C   UNL     1      10.073  11.239  20.556  0.00  0.00    +0.000 A 
ATOM     28  C   UNL     1      11.081  11.847  19.811  0.00  0.00    +0.000 A 
ATOM     29  C   UNL     1      11.138  11.659  18.430  0.00  0.00    +0.000 A 
ATOM     30  C   UNL     1      10.158  10.900  17.789  0.00  0.00    +0.000 A 
ENDBRANCH  24  25
ENDBRANCH  22  24
ENDBRANCH  16  18
ENDBRANCH   1  16
TORSDOF 5
ENDMDL
MODEL 6
REMARK VINA RESULT:      -9.0      4.685     10.218
REMARK  Name = 
REMARK  5 active torsions:
REMARK  status: ('A' for Active; 'I' for Inactive)
REMARK    1  A    between atoms: C_8  and  S_9
REMARK    2  A    between atoms: S_9  and  N_12
REMARK    3  A    between atoms: N_12  and  C_13
REMARK    4  A    between atoms: C_17  and  O_18
REMARK    5  A    between atoms: O_18  and  C_19
REMARK                            x       y       z     vdW  Elec       q    Type
REMARK                         _______ _______ _______ _____ _____    ______ ____
ROOT
ATOM      1  S   UNL     1      -0.012  11.181  21.943  0.00  0.00    +0.000 S 
ATOM      2  O   UNL     1       1.112  11.988  21.527  0.00  0.00    +0.000 OA
ATOM      3  O   UNL     1       0.058  10.346  23.126  0.00  0.00    +0.000 OA
ENDROOT
BRANCH   1  11
ATOM      4  O   UNL     1      -5.361  15.493  22.291  0.00  0.00    +0.000 OA
ATOM      5  C   UNL     1      -4.871  14.521  22.828  0.00  0.00    +0.000 C 
ATOM      6  N   UNL     1      -5.352  13.818  23.891  0.00  0.00    +0.000 N 
ATOM      7  C   UNL     1      -4.553  12.765  24.219  0.00  0.00    +0.000 C 
ATOM      8  O   UNL     1      -4.719  11.939  25.091  0.00  0.00    +0.000 OA
ATOM      9  C   UNL     1      -3.425  12.795  23.289  0.00  0.00    +0.000 A 
ATOM     10  C   UNL     1      -2.331  11.962  23.185  0.00  0.00    +0.000 A 
ATOM     11  C   UNL     1      -1.426  12.236  22.151  0.00  0.00    +0.000 A 
ATOM     12  C   UNL     1      -1.622  13.330  21.272  0.00  0.00    +0.000 A 
ATOM     13  C   UNL     1      -2.738  14.165  21.414  0.00  0.00    +0.000 A 
ATOM     14  C   UNL     1      -3.624  13.867  22.429  0.00  0.00    +0.000 A 
ATOM     15  H   UNL     1      -6.215  14.037  24.365  0.00  0.00    +0.000 HD
ENDBRANCH   1  11
BRANCH   1  16
ATOM     16  N   UNL     1      -0.469  10.179  20.680  0.00  0.00    +0.000 N 
ATOM     17  H   UNL     1      -1.436   9.860  20.666  0.00  0.00    +0.000 HD
BRANCH  16  18
ATOM     18  C   UNL     1       0.496   9.601  19.827  0.00  0.00    +0.000 A 
ATOM     19  C   UNL     1       0.855  10.224  18.633  0.00  0.00    +0.000 A 
ATOM     20  C   UNL     1       1.800   9.625  17.802  0.00  0.00    +0.000 A 
ATOM     21  C   UNL     1       2.395   8.418  18.174  0.00  0.00    +0.000 A 
ATOM     22  C   UNL     1       2.106   7.849  19.418  0.00  0.00    +0.000 A 
ATOM     23  C   UNL     1       1.134   8.430  20.232  0.00  0.00    +0.000 A 
BRANCH  22  24
ATOM     24  O   UNL     1       2.684   6.698  19.904  0.00  0.00    +0.000 OA
BRANCH  24  25
ATOM     25  C   UNL     1       2.152   5.470  19.578  0.00  0.00    +0.000 A 
ATOM     26  C   UNL     1       2.163   4.917  18.294  0.00  0.00    +0.000 A 
ATOM     27  C   UNL     1       1.544   3.689  18.055  0.00  0.00    +0.000 A 
ATOM     28  C   UNL     1       0.973   2.980  19.110  0.00  0.00    +0.000 A 
ATOM     29  C   UNL     1       1.034   3.490  20.407  0.00  0.00    +0.000 A 
ATOM     30  C   UNL     1       1.623   4.733  20.640  0.00  0.00    +0.000 A 
ENDBRANCH  24  25
ENDBRANCH  22  24
ENDBRANCH  16  18
ENDBRANCH   1  16
TORSDOF 5
ENDMDL
MODEL 7
REMARK VINA RESULT:      -8.8      2.527      4.209
REMARK  Name = 
REMARK  5 active torsions:
REMARK  status: ('A' for Active; 'I' for Inactive)
REMARK    1  A    between atoms: C_8  and  S_9
REMARK    2  A    between atoms: S_9  and  N_12
REMARK    3  A    between atoms: N_12  and  C_13
REMARK    4  A    between atoms: C_17  and  O_18
REMARK    5  A    between atoms: O_18  and  C_19
REMARK                            x       y       z     vdW  Elec       q    Type
REMARK                         _______ _______ _______ _____ _____    ______ ____
ROOT
ATOM      1  S   UNL     1       6.351   4.909  18.272  0.00  0.00    +0.000 S 
ATOM      2  O   UNL     1       7.719   4.791  18.721  0.00  0.00    +0.000 OA
ATOM      3  O   UNL     1       5.611   6.144  18.433  0.00  0.00    +0.000 OA
ENDROOT
BRANCH   1  11
ATOM      4  O   UNL     1       5.624   3.077  11.681  0.00  0.00    +0.000 OA
ATOM      5  C   UNL     1       6.305   3.754  12.422  0.00  0.00    +0.000 C 
ATOM      6  N   UNL     1       7.360   4.553  12.098  0.00  0.00    +0.000 N 
ATOM      7  C   UNL     1       7.881   5.188  13.184  0.00  0.00    +0.000 C 
ATOM      8  O   UNL     1       8.798   5.981  13.223  0.00  0.00    +0.000 OA
ATOM      9  C   UNL     1       7.102   4.743  14.338  0.00  0.00    +0.000 A 
ATOM     10  C   UNL     1       7.214   5.075  15.672  0.00  0.00    +0.000 A 
ATOM     11  C   UNL     1       6.281   4.498  16.545  0.00  0.00    +0.000 A 
ATOM     12  C   UNL     1       5.287   3.605  16.075  0.00  0.00    +0.000 A 
ATOM     13  C   UNL     1       5.211   3.279  14.714  0.00  0.00    +0.000 A 
ATOM     14  C   UNL     1       6.129   3.870  13.871  0.00  0.00    +0.000 A 
ATOM     15  H   UNL     1       7.700   4.680  11.157  0.00  0.00    +0.000 HD
ENDBRANCH   1  11
BRANCH   1  16
ATOM     16  N   UNL     1       5.430   3.705  18.986  0.00  0.00    +0.000 N 
ATOM     17  H   UNL     1       5.844   2.776  19.046  0.00  0.00    +0.000 HD
BRANCH  16  18
ATOM     18  C   UNL     1       4.058   3.903  19.256  0.00  0.00    +0.000 A 
ATOM     19  C   UNL     1       3.134   2.887  19.024  0.00  0.00    +0.000 A 
ATOM     20  C   UNL     1       1.783   3.113  19.285  0.00  0.00    +0.000 A 
ATOM     21  C   UNL     1       1.365   4.344  19.794  0.00  0.00    +0.000 A 
ATOM     22  C   UNL     1       2.308   5.324  20.119  0.00  0.00    +0.000 A 
ATOM     23  C   UNL     1       3.654   5.110  19.823  0.00  0.00    +0.000 A 
BRANCH  22  24
ATOM     24  O   UNL     1       2.006   6.543  20.682  0.00  0.00    +0.000 OA
BRANCH  24  25
ATOM     25  C   UNL     1       1.817   7.645  19.877  0.00  0.00    +0.000 A 
ATOM     26  C   UNL     1       1.151   8.810  20.272  0.00  0.00    +0.000 A 
ATOM     27  C   UNL     1       0.960   9.850  19.361  0.00  0.00    +0.000 A 
ATOM     28  C   UNL     1       1.494   9.758  18.077  0.00  0.00    +0.000 A 
ATOM     29  C   UNL     1       2.230   8.633  17.707  0.00  0.00    +0.000 A 
ATOM     30  C   UNL     1       2.392   7.578  18.607  0.00  0.00    +0.000 A 
ENDBRANCH  24  25
ENDBRANCH  22  24
ENDBRANCH  16  18
ENDBRANCH   1  16
TORSDOF 5
ENDMDL
MODEL 8
REMARK VINA RESULT:      -8.8      1.972      2.450
REMARK  Name = 
REMARK  5 active torsions:
REMARK  status: ('A' for Active; 'I' for Inactive)
REMARK    1  A    between atoms: C_8  and  S_9
REMARK    2  A    between atoms: S_9  and  N_12
REMARK    3  A    between atoms: N_12  and  C_13
REMARK    4  A    between atoms: C_17  and  O_18
REMARK    5  A    between atoms: O_18  and  C_19
REMARK                            x       y       z     vdW  Elec       q    Type
REMARK                         _______ _______ _______ _____ _____    ______ ____
ROOT
ATOM      1  S   UNL     1       3.138   3.191  18.308  0.00  0.00    +0.000 S 
ATOM      2  O   UNL     1       3.057   2.328  17.152  0.00  0.00    +0.000 OA
ATOM      3  O   UNL     1       3.323   2.648  19.639  0.00  0.00    +0.000 OA
ENDROOT
BRANCH   1  11
ATOM      4  O   UNL     1       7.924   7.933  16.922  0.00  0.00    +0.000 OA
ATOM      5  C   UNL     1       7.614   7.087  17.734  0.00  0.00    +0.000 C 
ATOM      6  N   UNL     1       8.256   6.758  18.890  0.00  0.00    +0.000 N 
ATOM      7  C   UNL     1       7.615   5.770  19.574  0.00  0.00    +0.000 C 
ATOM      8  O   UNL     1       7.915   5.279  20.642  0.00  0.00    +0.000 OA
ATOM      9  C   UNL     1       6.448   5.402  18.775  0.00  0.00    +0.000 A 
ATOM     10  C   UNL     1       5.470   4.458  19.006  0.00  0.00    +0.000 A 
ATOM     11  C   UNL     1       4.446   4.365  18.054  0.00  0.00    +0.000 A 
ATOM     12  C   UNL     1       4.434   5.190  16.902  0.00  0.00    +0.000 A 
ATOM     13  C   UNL     1       5.452   6.130  16.692  0.00  0.00    +0.000 A 
ATOM     14  C   UNL     1       6.441   6.215  17.649  0.00  0.00    +0.000 A 
ATOM     15  H   UNL     1       9.096   7.212  19.214  0.00  0.00    +0.000 HD
ENDBRANCH   1  11
BRANCH   1  16
ATOM     16  N   UNL     1       1.769   4.155  18.373  0.00  0.00    +0.000 N 
ATOM     17  H   UNL     1       0.994   3.905  17.760  0.00  0.00    +0.000 HD
BRANCH  16  18
ATOM     18  C   UNL     1       1.785   5.394  19.049  0.00  0.00    +0.000 A 
ATOM     19  C   UNL     1       1.744   5.446  20.441  0.00  0.00    +0.000 A 
ATOM     20  C   UNL     1       1.746   6.683  21.083  0.00  0.00    +0.000 A 
ATOM     21  C   UNL     1       1.809   7.860  20.335  0.00  0.00    +0.000 A 
ATOM     22  C   UNL     1       1.951   7.800  18.946  0.00  0.00    +0.000 A 
ATOM     23  C   UNL     1       1.911   6.563  18.302  0.00  0.00    +0.000 A 
BRANCH  22  24
ATOM     24  O   UNL     1       2.084   8.897  18.126  0.00  0.00    +0.000 OA
BRANCH  24  25
ATOM     25  C   UNL     1       1.245   9.980  18.282  0.00  0.00    +0.000 A 
ATOM     26  C   UNL     1       1.668  11.266  18.632  0.00  0.00    +0.000 A 
ATOM     27  C   UNL     1       0.732  12.282  18.825  0.00  0.00    +0.000 A 
ATOM     28  C   UNL     1      -0.621  12.035  18.601  0.00  0.00    +0.000 A 
ATOM     29  C   UNL     1      -1.037  10.775  18.171  0.00  0.00    +0.000 A 
ATOM     30  C   UNL     1      -0.105   9.749  18.012  0.00  0.00    +0.000 A 
ENDBRANCH  24  25
ENDBRANCH  22  24
ENDBRANCH  16  18
ENDBRANCH   1  16
TORSDOF 5
ENDMDL
MODEL 9
REMARK VINA RESULT:      -8.8      3.687      7.177
REMARK  Name = 
REMARK  5 active torsions:
REMARK  status: ('A' for Active; 'I' for Inactive)
REMARK    1  A    between atoms: C_8  and  S_9
REMARK    2  A    between atoms: S_9  and  N_12
REMARK    3  A    between atoms: N_12  and  C_13
REMARK    4  A    between atoms: C_17  and  O_18
REMARK    5  A    between atoms: O_18  and  C_19
REMARK                            x       y       z     vdW  Elec       q    Type
REMARK                         _______ _______ _______ _____ _____    ______ ____
ROOT
ATOM      1  S   UNL     1       5.365   5.453  15.471  0.00  0.00    +0.000 S 
ATOM      2  O   UNL     1       5.078   4.354  14.579  0.00  0.00    +0.000 OA
ATOM      3  O   UNL     1       5.092   6.824  15.088  0.00  0.00    +0.000 OA
ENDROOT
BRANCH   1  11
ATOM      4  O   UNL     1       2.339   3.931  21.458  0.00  0.00    +0.000 OA
ATOM      5  C   UNL     1       2.469   4.821  20.644  0.00  0.00    +0.000 C 
ATOM      6  N   UNL     1       1.953   6.082  20.689  0.00  0.00    +0.000 N 
ATOM      7  C   UNL     1       2.320   6.828  19.610  0.00  0.00    +0.000 C 
ATOM      8  O   UNL     1       2.051   7.987  19.373  0.00  0.00    +0.000 OA
ATOM      9  C   UNL     1       3.141   5.963  18.766  0.00  0.00    +0.000 A 
ATOM     10  C   UNL     1       3.760   6.220  17.560  0.00  0.00    +0.000 A 
ATOM     11  C   UNL     1       4.517   5.178  17.007  0.00  0.00    +0.000 A 
ATOM     12  C   UNL     1       4.620   3.920  17.651  0.00  0.00    +0.000 A 
ATOM     13  C   UNL     1       3.967   3.690  18.869  0.00  0.00    +0.000 A 
ATOM     14  C   UNL     1       3.240   4.733  19.403  0.00  0.00    +0.000 A 
ATOM     15  H   UNL     1       1.386   6.430  21.446  0.00  0.00    +0.000 HD
ENDBRANCH   1  11
BRANCH   1  16
ATOM     16  N   UNL     1       6.980   5.396  15.913  0.00  0.00    +0.000 N 
ATOM     17  H   UNL     1       7.559   4.683  15.472  0.00  0.00    +0.000 HD
BRANCH  16  18
ATOM     18  C   UNL     1       7.455   6.124  17.026  0.00  0.00    +0.000 A 
ATOM     19  C   UNL     1       7.842   5.468  18.193  0.00  0.00    +0.000 A 
ATOM     20  C   UNL     1       8.294   6.212  19.282  0.00  0.00    +0.000 A 
ATOM     21  C   UNL     1       8.376   7.603  19.194  0.00  0.00    +0.000 A 
ATOM     22  C   UNL     1       8.083   8.247  17.988  0.00  0.00    +0.000 A 
ATOM     23  C   UNL     1       7.596   7.506  16.912  0.00  0.00    +0.000 A 
BRANCH  22  24
ATOM     24  O   UNL     1       8.191   9.603  17.780  0.00  0.00    +0.000 OA
BRANCH  24  25
ATOM     25  C   UNL     1       9.212  10.311  18.375  0.00  0.00    +0.000 A 
ATOM     26  C   UNL     1      10.271  10.909  17.683  0.00  0.00    +0.000 A 
ATOM     27  C   UNL     1      11.289  11.555  18.385  0.00  0.00    +0.000 A 
ATOM     28  C   UNL     1      11.218  11.666  19.772  0.00  0.00    +0.000 A 
ATOM     29  C   UNL     1      10.122  11.144  20.458  0.00  0.00    +0.000 A 
ATOM     30  C   UNL     1       9.120  10.468  19.760  0.00  0.00    +0.000 A 
ENDBRANCH  24  25
ENDBRANCH  22  24
ENDBRANCH  16  18
ENDBRANCH   1  16
TORSDOF 5
ENDMDL
