MODEL 1
REMARK VINA RESULT:      -7.2      0.000      0.000
REMARK  Name = 
REMARK  5 active torsions:
REMARK  status: ('A' for Active; 'I' for Inactive)
REMARK    1  A    between atoms: C_1  and  C_2
REMARK    2  A    between atoms: C_7  and  N_8
REMARK    3  A    between atoms: N_8  and  C_9
REMARK    4  A    between atoms: C_9  and  C_10
REMARK    5  A    between atoms: N_22  and  C_23
REMARK                            x       y       z     vdW  Elec       q    Type
REMARK                         _______ _______ _______ _____ _____    ______ ____
ROOT
ATOM      1  N   UNL     1       2.937   5.551  19.605  0.00  0.00    +0.000 N 
ATOM      2  C   UNL     1       2.006   6.381  20.279  0.00  0.00    +0.000 C 
ATOM      3  O   UNL     1       1.029   5.916  20.873  0.00  0.00    +0.000 OA
ATOM      4  N   UNL     1       2.220   7.741  20.209  0.00  0.00    +0.000 N 
ATOM      5  H   UNL     1       2.655   8.058  19.347  0.00  0.00    +0.000 HD
ENDROOT
BRANCH   1  12
ATOM      6  C   UNL     1       1.953   3.954  17.337  0.00  0.00    +0.000 C 
ATOM      7  C   UNL     1       1.867   3.518  18.771  0.00  0.00    +0.000 A 
ATOM      8  C   UNL     1       0.924   2.545  19.132  0.00  0.00    +0.000 A 
ATOM      9  C   UNL     1       0.809   2.129  20.457  0.00  0.00    +0.000 A 
ATOM     10  C   UNL     1       1.681   2.632  21.422  0.00  0.00    +0.000 A 
ATOM     11  C   UNL     1       2.591   3.642  21.091  0.00  0.00    +0.000 A 
ATOM     12  C   UNL     1       2.621   4.154  19.784  0.00  0.00    +0.000 A 
ENDBRANCH   1  12
BRANCH   4  13
ATOM     13  C   UNL     1       1.210   8.594  20.729  0.00  0.00    +0.000 A 
ATOM     14  C   UNL     1       0.431   9.393  19.885  0.00  0.00    +0.000 A 
ATOM     15  C   UNL     1      -0.399  10.382  20.417  0.00  0.00    +0.000 A 
ATOM     16  C   UNL     1      -0.434  10.562  21.792  0.00  0.00    +0.000 A 
ATOM     17  F   UNL     1      -1.169  11.558  22.306  0.00  0.00    +0.000 F 
ATOM     18  C   UNL     1       0.301   9.742  22.643  0.00  0.00    +0.000 A 
ATOM     19  C   UNL     1       1.109   8.731  22.115  0.00  0.00    +0.000 A 
ENDBRANCH   4  13
BRANCH   1  20
ATOM     20  C   UNL     1       4.344   5.943  19.439  0.00  0.00    +0.000 C 
BRANCH  20  21
ATOM     21  C   UNL     1       4.608   6.365  18.021  0.00  0.00    +0.000 A 
ATOM     22  N   UNL     1       4.120   7.467  17.482  0.00  0.00    +0.000 NA
ATOM     23  N   UNL     1       4.427   7.477  16.154  0.00  0.00    +0.000 NA
ATOM     24  C   UNL     1       5.124   6.393  15.881  0.00  0.00    +0.000 A 
ATOM     25  N   UNL     1       5.345   5.712  17.057  0.00  0.00    +0.000 N 
ATOM     26  C   UNL     1       6.221   4.575  17.221  0.00  0.00    +0.000 C 
ATOM     27  C   UNL     1       5.825   3.383  16.361  0.00  0.00    +0.000 C 
ATOM     28  C   UNL     1       6.094   3.511  14.859  0.00  0.00    +0.000 C 
ATOM     29  C   UNL     1       6.525   4.876  14.331  0.00  0.00    +0.000 C 
ATOM     30  C   UNL     1       5.497   5.985  14.498  0.00  0.00    +0.000 C 
ENDBRANCH  20  21
ENDBRANCH   1  20
TORSDOF 4
ENDMDL
MODEL 2
REMARK VINA RESULT:      -7.2      3.263      7.108
REMARK  Name = 
REMARK  5 active torsions:
REMARK  status: ('A' for Active; 'I' for Inactive)
REMARK    1  A    between atoms: C_1  and  C_2
REMARK    2  A    between atoms: C_7  and  N_8
REMARK    3  A    between atoms: N_8  and  C_9
REMARK    4  A    between atoms: C_9  and  C_10
REMARK    5  A    between atoms: N_22  and  C_23
REMARK                            x       y       z     vdW  Elec       q    Type
REMARK                         _______ _______ _______ _____ _____    ______ ____
ROOT
ATOM      1  N   UNL     1       3.981   4.799  18.829  0.00  0.00    +0.000 N 
ATOM      2  C   UNL     1       4.365   4.496  17.498  0.00  0.00    +0.000 C 
ATOM      3  O   UNL     1       3.781   3.637  16.831  0.00  0.00    +0.000 OA
ATOM      4  N   UNL     1       5.449   5.182  16.992  0.00  0.00    +0.000 N 
ATOM      5  H   UNL     1       6.152   5.432  17.681  0.00  0.00    +0.000 HD
ENDROOT
BRANCH   1  12
ATOM      6  C   UNL     1       4.284   2.348  20.431  0.00  0.00    +0.000 C 
ATOM      7  C   UNL     1       3.022   2.730  19.711  0.00  0.00    +0.000 A 
ATOM      8  C   UNL     1       2.086   1.733  19.402  0.00  0.00    +0.000 A 
ATOM      9  C   UNL     1       0.913   2.052  18.721  0.00  0.00    +0.000 A 
ATOM     10  C   UNL     1       0.633   3.381  18.403  0.00  0.00    +0.000 A 
ATOM     11  C   UNL     1       1.579   4.381  18.655  0.00  0.00    +0.000 A 
ATOM     12  C   UNL     1       2.817   4.042  19.225  0.00  0.00    +0.000 A 
ENDBRANCH   1  12
BRANCH   4  13
ATOM     13  C   UNL     1       5.954   4.773  15.729  0.00  0.00    +0.000 A 
ATOM     14  C   UNL     1       7.219   5.178  15.289  0.00  0.00    +0.000 A 
ATOM     15  C   UNL     1       7.611   4.957  13.968  0.00  0.00    +0.000 A 
ATOM     16  C   UNL     1       6.725   4.336  13.099  0.00  0.00    +0.000 A 
ATOM     17  F   UNL     1       7.065   4.189  11.810  0.00  0.00    +0.000 F 
ATOM     18  C   UNL     1       5.483   3.889  13.536  0.00  0.00    +0.000 A 
ATOM     19  C   UNL     1       5.101   4.081  14.867  0.00  0.00    +0.000 A 
ENDBRANCH   4  13
BRANCH   1  20
ATOM     20  C   UNL     1       4.188   6.134  19.409  0.00  0.00    +0.000 C 
BRANCH  20  21
ATOM     21  C   UNL     1       3.256   7.130  18.779  0.00  0.00    +0.000 A 
ATOM     22  N   UNL     1       3.381   7.569  17.540  0.00  0.00    +0.000 NA
ATOM     23  N   UNL     1       2.471   8.561  17.334  0.00  0.00    +0.000 NA
ATOM     24  C   UNL     1       1.770   8.719  18.437  0.00  0.00    +0.000 A 
ATOM     25  N   UNL     1       2.170   7.763  19.345  0.00  0.00    +0.000 N 
ATOM     26  C   UNL     1       1.527   7.475  20.606  0.00  0.00    +0.000 C 
ATOM     27  C   UNL     1       1.503   8.666  21.554  0.00  0.00    +0.000 C 
ATOM     28  C   UNL     1       0.536   9.799  21.195  0.00  0.00    +0.000 C 
ATOM     29  C   UNL     1      -0.147   9.742  19.832  0.00  0.00    +0.000 C 
ATOM     30  C   UNL     1       0.791   9.822  18.638  0.00  0.00    +0.000 C 
ENDBRANCH  20  21
ENDBRANCH   1  20
TORSDOF 4
ENDMDL
MODEL 3
REMARK VINA RESULT:      -7.2      1.100      1.940
REMARK  Name = 
REMARK  5 active torsions:
REMARK  status: ('A' for Active; 'I' for Inactive)
REMARK    1  A    between atoms: C_1  and  C_2
REMARK    2  A    between atoms: C_7  and  N_8
REMARK    3  A    between atoms: N_8  and  C_9
REMARK    4  A    between atoms: C_9  and  C_10
REMARK    5  A    between atoms: N_22  and  C_23
REMARK                            x       y       z     vdW  Elec       q    Type
REMARK                         _______ _______ _______ _____ _____    ______ ____
ROOT
ATOM      1  N   UNL     1       2.223   6.369  19.302  0.00  0.00    +0.000 N 
ATOM      2  C   UNL     1       1.649   7.165  20.325  0.00  0.00    +0.000 C 
ATOM      3  O   UNL     1       1.219   6.671  21.372  0.00  0.00    +0.000 OA
ATOM      4  N   UNL     1       1.555   8.519  20.082  0.00  0.00    +0.000 N 
ATOM      5  H   UNL     1       1.419   8.767  19.106  0.00  0.00    +0.000 HD
ENDROOT
BRANCH   1  12
ATOM      6  C   UNL     1       1.286   4.266  17.469  0.00  0.00    +0.000 C 
ATOM      7  C   UNL     1       1.556   4.048  18.930  0.00  0.00    +0.000 A 
ATOM      8  C   UNL     1       0.956   2.959  19.578  0.00  0.00    +0.000 A 
ATOM      9  C   UNL     1       1.174   2.737  20.936  0.00  0.00    +0.000 A 
ATOM     10  C   UNL     1       2.049   3.561  21.644  0.00  0.00    +0.000 A 
ATOM     11  C   UNL     1       2.614   4.683  21.027  0.00  0.00    +0.000 A 
ATOM     12  C   UNL     1       2.293   4.982  19.693  0.00  0.00    +0.000 A 
ENDBRANCH   1  12
BRANCH   4  13
ATOM     13  C   UNL     1       0.831   9.307  21.016  0.00  0.00    +0.000 A 
ATOM     14  C   UNL     1       0.853   9.012  22.384  0.00  0.00    +0.000 A 
ATOM     15  C   UNL     1      -0.029   9.649  23.258  0.00  0.00    +0.000 A 
ATOM     16  C   UNL     1      -0.929  10.574  22.748  0.00  0.00    +0.000 A 
ATOM     17  F   UNL     1      -1.830  11.134  23.568  0.00  0.00    +0.000 F 
ATOM     18  C   UNL     1      -0.929  10.909  21.398  0.00  0.00    +0.000 A 
ATOM     19  C   UNL     1      -0.025  10.295  20.526  0.00  0.00    +0.000 A 
ENDBRANCH   4  13
BRANCH   1  20
ATOM     20  C   UNL     1       3.247   6.902  18.392  0.00  0.00    +0.000 C 
BRANCH  20  21
ATOM     21  C   UNL     1       4.494   6.065  18.458  0.00  0.00    +0.000 A 
ATOM     22  N   UNL     1       5.185   5.865  19.565  0.00  0.00    +0.000 NA
ATOM     23  N   UNL     1       6.325   5.189  19.254  0.00  0.00    +0.000 NA
ATOM     24  C   UNL     1       6.327   4.951  17.958  0.00  0.00    +0.000 A 
ATOM     25  N   UNL     1       5.136   5.403  17.433  0.00  0.00    +0.000 N 
ATOM     26  C   UNL     1       4.664   5.169  16.088  0.00  0.00    +0.000 C 
ATOM     27  C   UNL     1       5.591   5.734  15.020  0.00  0.00    +0.000 C 
ATOM     28  C   UNL     1       6.910   4.987  14.804  0.00  0.00    +0.000 C 
ATOM     29  C   UNL     1       7.278   3.894  15.803  0.00  0.00    +0.000 C 
ATOM     30  C   UNL     1       7.490   4.372  17.231  0.00  0.00    +0.000 C 
ENDBRANCH  20  21
ENDBRANCH   1  20
TORSDOF 4
ENDMDL
MODEL 4
REMARK VINA RESULT:      -7.1      0.964      1.699
REMARK  Name = 
REMARK  5 active torsions:
REMARK  status: ('A' for Active; 'I' for Inactive)
REMARK    1  A    between atoms: C_1  and  C_2
REMARK    2  A    between atoms: C_7  and  N_8
REMARK    3  A    between atoms: N_8  and  C_9
REMARK    4  A    between atoms: C_9  and  C_10
REMARK    5  A    between atoms: N_22  and  C_23
REMARK                            x       y       z     vdW  Elec       q    Type
REMARK                         _______ _______ _______ _____ _____    ______ ____
ROOT
ATOM      1  N   UNL     1       2.790   6.166  19.628  0.00  0.00    +0.000 N 
ATOM      2  C   UNL     1       1.829   6.892  20.376  0.00  0.00    +0.000 C 
ATOM      3  O   UNL     1       0.960   6.324  21.045  0.00  0.00    +0.000 OA
ATOM      4  N   UNL     1       1.882   8.267  20.292  0.00  0.00    +0.000 N 
ATOM      5  H   UNL     1       2.210   8.625  19.399  0.00  0.00    +0.000 HD
ENDROOT
BRANCH   1  12
ATOM      6  C   UNL     1       1.477   4.508  17.581  0.00  0.00    +0.000 C 
ATOM      7  C   UNL     1       1.750   4.050  18.986  0.00  0.00    +0.000 A 
ATOM      8  C   UNL     1       1.001   2.989  19.514  0.00  0.00    +0.000 A 
ATOM      9  C   UNL     1       1.219   2.550  20.818  0.00  0.00    +0.000 A 
ATOM     10  C   UNL     1       2.233   3.123  21.584  0.00  0.00    +0.000 A 
ATOM     11  C   UNL     1       2.954   4.218  21.094  0.00  0.00    +0.000 A 
ATOM     12  C   UNL     1       2.648   4.744  19.828  0.00  0.00    +0.000 A 
ENDBRANCH   1  12
BRANCH   4  13
ATOM     13  C   UNL     1       0.828   9.004  20.893  0.00  0.00    +0.000 A 
ATOM     14  C   UNL     1      -0.002   9.834  20.131  0.00  0.00    +0.000 A 
ATOM     15  C   UNL     1      -0.885  10.716  20.757  0.00  0.00    +0.000 A 
ATOM     16  C   UNL     1      -0.921  10.760  22.143  0.00  0.00    +0.000 A 
ATOM     17  F   UNL     1      -1.710  11.657  22.751  0.00  0.00    +0.000 F 
ATOM     18  C   UNL     1      -0.134   9.907  22.910  0.00  0.00    +0.000 A 
ATOM     19  C   UNL     1       0.728   9.001  22.286  0.00  0.00    +0.000 A 
ENDBRANCH   4  13
BRANCH   1  20
ATOM     20  C   UNL     1       4.127   6.713  19.352  0.00  0.00    +0.000 C 
BRANCH  20  21
ATOM     21  C   UNL     1       5.022   5.648  18.784  0.00  0.00    +0.000 A 
ATOM     22  N   UNL     1       5.824   4.898  19.517  0.00  0.00    +0.000 NA
ATOM     23  N   UNL     1       6.596   4.142  18.687  0.00  0.00    +0.000 NA
ATOM     24  C   UNL     1       6.253   4.408  17.444  0.00  0.00    +0.000 A 
ATOM     25  N   UNL     1       5.191   5.284  17.465  0.00  0.00    +0.000 N 
ATOM     26  C   UNL     1       4.402   5.682  16.322  0.00  0.00    +0.000 C 
ATOM     27  C   UNL     1       5.219   6.372  15.239  0.00  0.00    +0.000 C 
ATOM     28  C   UNL     1       6.153   5.475  14.420  0.00  0.00    +0.000 C 
ATOM     29  C   UNL     1       6.347   4.037  14.890  0.00  0.00    +0.000 C 
ATOM     30  C   UNL     1       6.991   3.888  16.259  0.00  0.00    +0.000 C 
ENDBRANCH  20  21
ENDBRANCH   1  20
TORSDOF 4
ENDMDL
MODEL 5
REMARK VINA RESULT:      -7.1      3.245      6.922
REMARK  Name = 
REMARK  5 active torsions:
REMARK  status: ('A' for Active; 'I' for Inactive)
REMARK    1  A    between atoms: C_1  and  C_2
REMARK    2  A    between atoms: C_7  and  N_8
REMARK    3  A    between atoms: N_8  and  C_9
REMARK    4  A    between atoms: C_9  and  C_10
REMARK    5  A    between atoms: N_22  and  C_23
REMARK                            x       y       z     vdW  Elec       q    Type
REMARK                         _______ _______ _______ _____ _____    ______ ____
ROOT
ATOM      1  N   UNL     1       4.240   4.403  18.958  0.00  0.00    +0.000 N 
ATOM      2  C   UNL     1       4.567   4.152  17.602  0.00  0.00    +0.000 C 
ATOM      3  O   UNL     1       4.033   3.242  16.961  0.00  0.00    +0.000 OA
ATOM      4  N   UNL     1       5.541   4.948  17.039  0.00  0.00    +0.000 N 
ATOM      5  H   UNL     1       6.258   5.264  17.686  0.00  0.00    +0.000 HD
ENDROOT
BRANCH   1  12
ATOM      6  C   UNL     1       1.579   4.510  17.705  0.00  0.00    +0.000 C 
ATOM      7  C   UNL     1       1.866   3.826  19.011  0.00  0.00    +0.000 A 
ATOM      8  C   UNL     1       0.810   3.595  19.905  0.00  0.00    +0.000 A 
ATOM      9  C   UNL     1       1.045   2.977  21.131  0.00  0.00    +0.000 A 
ATOM     10  C   UNL     1       2.324   2.522  21.447  0.00  0.00    +0.000 A 
ATOM     11  C   UNL     1       3.399   2.791  20.592  0.00  0.00    +0.000 A 
ATOM     12  C   UNL     1       3.187   3.527  19.416  0.00  0.00    +0.000 A 
ENDBRANCH   1  12
BRANCH   4  13
ATOM     13  C   UNL     1       6.004   4.604  15.741  0.00  0.00    +0.000 A 
ATOM     14  C   UNL     1       7.274   4.988  15.299  0.00  0.00    +0.000 A 
ATOM     15  C   UNL     1       7.630   4.838  13.957  0.00  0.00    +0.000 A 
ATOM     16  C   UNL     1       6.703   4.308  13.071  0.00  0.00    +0.000 A 
ATOM     17  F   UNL     1       7.009   4.231  11.768  0.00  0.00    +0.000 F 
ATOM     18  C   UNL     1       5.454   3.880  13.508  0.00  0.00    +0.000 A 
ATOM     19  C   UNL     1       5.107   4.000  14.857  0.00  0.00    +0.000 A 
ENDBRANCH   4  13
BRANCH   1  20
ATOM     20  C   UNL     1       4.347   5.748  19.543  0.00  0.00    +0.000 C 
BRANCH  20  21
ATOM     21  C   UNL     1       3.516   6.727  18.762  0.00  0.00    +0.000 A 
ATOM     22  N   UNL     1       3.778   7.082  17.518  0.00  0.00    +0.000 NA
ATOM     23  N   UNL     1       2.927   8.083  17.161  0.00  0.00    +0.000 NA
ATOM     24  C   UNL     1       2.125   8.330  18.176  0.00  0.00    +0.000 A 
ATOM     25  N   UNL     1       2.400   7.423  19.175  0.00  0.00    +0.000 N 
ATOM     26  C   UNL     1       1.625   7.233  20.380  0.00  0.00    +0.000 C 
ATOM     27  C   UNL     1       1.546   8.482  21.246  0.00  0.00    +0.000 C 
ATOM     28  C   UNL     1       0.658   9.615  20.723  0.00  0.00    +0.000 C 
ATOM     29  C   UNL     1       0.113   9.490  19.304  0.00  0.00    +0.000 C 
ATOM     30  C   UNL     1       1.167   9.470  18.208  0.00  0.00    +0.000 C 
ENDBRANCH  20  21
ENDBRANCH   1  20
TORSDOF 4
ENDMDL
MODEL 6
REMARK VINA RESULT:      -6.9      0.691      1.683
REMARK  Name = 
REMARK  5 active torsions:
REMARK  status: ('A' for Active; 'I' for Inactive)
REMARK    1  A    between atoms: C_1  and  C_2
REMARK    2  A    between atoms: C_7  and  N_8
REMARK    3  A    between atoms: N_8  and  C_9
REMARK    4  A    between atoms: C_9  and  C_10
REMARK    5  A    between atoms: N_22  and  C_23
REMARK                            x       y       z     vdW  Elec       q    Type
REMARK                         _______ _______ _______ _____ _____    ______ ____
ROOT
ATOM      1  N   UNL     1       2.363   5.702  19.584  0.00  0.00    +0.000 N 
ATOM      2  C   UNL     1       1.587   6.601  20.358  0.00  0.00    +0.000 C 
ATOM      3  O   UNL     1       0.487   6.282  20.820  0.00  0.00    +0.000 OA
ATOM      4  N   UNL     1       2.100   7.867  20.542  0.00  0.00    +0.000 N 
ATOM      5  H   UNL     1       2.663   8.213  19.770  0.00  0.00    +0.000 HD
ENDROOT
BRANCH   1  12
ATOM      6  C   UNL     1       2.404   3.879  21.894  0.00  0.00    +0.000 C 
ATOM      7  C   UNL     1       2.045   3.457  20.498  0.00  0.00    +0.000 A 
ATOM      8  C   UNL     1       2.146   2.103  20.148  0.00  0.00    +0.000 A 
ATOM      9  C   UNL     1       1.834   1.682  18.857  0.00  0.00    +0.000 A 
ATOM     10  C   UNL     1       1.354   2.599  17.923  0.00  0.00    +0.000 A 
ATOM     11  C   UNL     1       1.298   3.962  18.238  0.00  0.00    +0.000 A 
ATOM     12  C   UNL     1       1.733   4.405  19.497  0.00  0.00    +0.000 A 
ENDBRANCH   1  12
BRANCH   4  13
ATOM     13  C   UNL     1       1.265   8.831  21.166  0.00  0.00    +0.000 A 
ATOM     14  C   UNL     1       1.130   8.881  22.558  0.00  0.00    +0.000 A 
ATOM     15  C   UNL     1       0.146   9.680  23.144  0.00  0.00    +0.000 A 
ATOM     16  C   UNL     1      -0.697  10.416  22.325  0.00  0.00    +0.000 A 
ATOM     17  F   UNL     1      -1.693  11.126  22.875  0.00  0.00    +0.000 F 
ATOM     18  C   UNL     1      -0.543  10.410  20.942  0.00  0.00    +0.000 A 
ATOM     19  C   UNL     1       0.462   9.636  20.355  0.00  0.00    +0.000 A 
ENDBRANCH   4  13
BRANCH   1  20
ATOM     20  C   UNL     1       3.831   5.780  19.548  0.00  0.00    +0.000 C 
BRANCH  20  21
ATOM     21  C   UNL     1       4.297   6.277  18.209  0.00  0.00    +0.000 A 
ATOM     22  N   UNL     1       3.937   7.436  17.691  0.00  0.00    +0.000 NA
ATOM     23  N   UNL     1       4.414   7.514  16.418  0.00  0.00    +0.000 NA
ATOM     24  C   UNL     1       5.088   6.413  16.158  0.00  0.00    +0.000 A 
ATOM     25  N   UNL     1       5.122   5.646  17.302  0.00  0.00    +0.000 N 
ATOM     26  C   UNL     1       5.914   4.453  17.495  0.00  0.00    +0.000 C 
ATOM     27  C   UNL     1       5.576   3.343  16.509  0.00  0.00    +0.000 C 
ATOM     28  C   UNL     1       6.045   3.553  15.066  0.00  0.00    +0.000 C 
ATOM     29  C   UNL     1       6.606   4.922  14.695  0.00  0.00    +0.000 C 
ATOM     30  C   UNL     1       5.619   6.074  14.809  0.00  0.00    +0.000 C 
ENDBRANCH  20  21
ENDBRANCH   1  20
TORSDOF 4
ENDMDL
MODEL 7
REMARK VINA RESULT:      -6.8      4.452      7.353
REMARK  Name = 
REMARK  5 active torsions:
REMARK  status: ('A' for Active; 'I' for Inactive)
REMARK    1  A    between atoms: C_1  and  C_2
REMARK    2  A    between atoms: C_7  and  N_8
REMARK    3  A    between atoms: N_8  and  C_9
REMARK    4  A    between atoms: C_9  and  C_10
REMARK    5  A    between atoms: N_22  and  C_23
REMARK                            x       y       z     vdW  Elec       q    Type
REMARK                         _______ _______ _______ _____ _____    ______ ____
ROOT
ATOM      1  N   UNL     1      -0.188  11.589  18.640  0.00  0.00    +0.000 N 
ATOM      2  C   UNL     1       0.574  12.775  18.789  0.00  0.00    +0.000 C 
ATOM      3  O   UNL     1       0.110  13.886  18.519  0.00  0.00    +0.000 OA
ATOM      4  N   UNL     1       1.877  12.628  19.215  0.00  0.00    +0.000 N 
ATOM      5  H   UNL     1       2.327  11.766  18.916  0.00  0.00    +0.000 HD
ENDROOT
BRANCH   1  12
ATOM      6  C   UNL     1      -2.151  12.592  20.590  0.00  0.00    +0.000 C 
ATOM      7  C   UNL     1      -2.513  12.054  19.235  0.00  0.00    +0.000 A 
ATOM      8  C   UNL     1      -3.818  11.594  19.011  0.00  0.00    +0.000 A 
ATOM      9  C   UNL     1      -4.181  11.076  17.770  0.00  0.00    +0.000 A 
ATOM     10  C   UNL     1      -3.263  11.076  16.720  0.00  0.00    +0.000 A 
ATOM     11  C   UNL     1      -1.941  11.480  16.940  0.00  0.00    +0.000 A 
ATOM     12  C   UNL     1      -1.539  11.882  18.224  0.00  0.00    +0.000 A 
ENDBRANCH   1  12
BRANCH   4  13
ATOM     13  C   UNL     1       2.706  13.781  19.206  0.00  0.00    +0.000 A 
ATOM     14  C   UNL     1       3.396  14.168  18.052  0.00  0.00    +0.000 A 
ATOM     15  C   UNL     1       4.372  15.165  18.114  0.00  0.00    +0.000 A 
ATOM     16  C   UNL     1       4.650  15.758  19.337  0.00  0.00    +0.000 A 
ATOM     17  F   UNL     1       5.637  16.662  19.420  0.00  0.00    +0.000 F 
ATOM     18  C   UNL     1       3.938  15.414  20.481  0.00  0.00    +0.000 A 
ATOM     19  C   UNL     1       2.938  14.439  20.415  0.00  0.00    +0.000 A 
ENDBRANCH   4  13
BRANCH   1  20
ATOM     20  C   UNL     1       0.054  10.404  19.475  0.00  0.00    +0.000 C 
BRANCH  20  21
ATOM     21  C   UNL     1       1.107   9.530  18.853  0.00  0.00    +0.000 A 
ATOM     22  N   UNL     1       1.595   9.720  17.642  0.00  0.00    +0.000 NA
ATOM     23  N   UNL     1       2.415   8.677  17.332  0.00  0.00    +0.000 NA
ATOM     24  C   UNL     1       2.451   7.857  18.361  0.00  0.00    +0.000 A 
ATOM     25  N   UNL     1       1.714   8.411  19.383  0.00  0.00    +0.000 N 
ATOM     26  C   UNL     1       1.651   7.921  20.741  0.00  0.00    +0.000 C 
ATOM     27  C   UNL     1       1.113   6.501  20.842  0.00  0.00    +0.000 C 
ATOM     28  C   UNL     1       2.049   5.385  20.367  0.00  0.00    +0.000 C 
ATOM     29  C   UNL     1       3.329   5.795  19.644  0.00  0.00    +0.000 C 
ATOM     30  C   UNL     1       3.118   6.526  18.327  0.00  0.00    +0.000 C 
ENDBRANCH  20  21
ENDBRANCH   1  20
TORSDOF 4
ENDMDL
MODEL 8
REMARK VINA RESULT:      -6.8      5.234     10.511
REMARK  Name = 
REMARK  5 active torsions:
REMARK  status: ('A' for Active; 'I' for Inactive)
REMARK    1  A    between atoms: C_1  and  C_2
REMARK    2  A    between atoms: C_7  and  N_8
REMARK    3  A    between atoms: N_8  and  C_9
REMARK    4  A    between atoms: C_9  and  C_10
REMARK    5  A    between atoms: N_22  and  C_23
REMARK                            x       y       z     vdW  Elec       q    Type
REMARK                         _______ _______ _______ _____ _____    ______ ____
ROOT
ATOM      1  N   UNL     1      -0.795  12.601  19.652  0.00  0.00    +0.000 N 
ATOM      2  C   UNL     1       0.259  11.655  19.606  0.00  0.00    +0.000 C 
ATOM      3  O   UNL     1       1.445  11.998  19.642  0.00  0.00    +0.000 OA
ATOM      4  N   UNL     1      -0.098  10.329  19.481  0.00  0.00    +0.000 N 
ATOM      5  H   UNL     1      -0.951  10.168  18.952  0.00  0.00    +0.000 HD
ENDROOT
BRANCH   1  12
ATOM      6  C   UNL     1      -0.401  13.708  22.351  0.00  0.00    +0.000 C 
ATOM      7  C   UNL     1      -0.414  14.535  21.097  0.00  0.00    +0.000 A 
ATOM      8  C   UNL     1      -0.683  15.908  21.189  0.00  0.00    +0.000 A 
ATOM      9  C   UNL     1      -0.717  16.700  20.044  0.00  0.00    +0.000 A 
ATOM     10  C   UNL     1      -0.416  16.142  18.803  0.00  0.00    +0.000 A 
ATOM     11  C   UNL     1      -0.198  14.764  18.684  0.00  0.00    +0.000 A 
ATOM     12  C   UNL     1      -0.290  13.943  19.819  0.00  0.00    +0.000 A 
ENDBRANCH   1  12
BRANCH   4  13
ATOM     13  C   UNL     1       0.940   9.386  19.261  0.00  0.00    +0.000 A 
ATOM     14  C   UNL     1       1.503   9.211  17.992  0.00  0.00    +0.000 A 
ATOM     15  C   UNL     1       2.360   8.136  17.742  0.00  0.00    +0.000 A 
ATOM     16  C   UNL     1       2.637   7.245  18.769  0.00  0.00    +0.000 A 
ATOM     17  F   UNL     1       3.397   6.169  18.517  0.00  0.00    +0.000 F 
ATOM     18  C   UNL     1       2.119   7.435  20.046  0.00  0.00    +0.000 A 
ATOM     19  C   UNL     1       1.287   8.528  20.307  0.00  0.00    +0.000 A 
ENDBRANCH   4  13
BRANCH   1  20
ATOM     20  C   UNL     1      -2.112  12.265  20.214  0.00  0.00    +0.000 C 
BRANCH  20  21
ATOM     21  C   UNL     1      -3.099  11.997  19.114  0.00  0.00    +0.000 A 
ATOM     22  N   UNL     1      -2.763  11.532  17.925  0.00  0.00    +0.000 NA
ATOM     23  N   UNL     1      -3.865  11.542  17.124  0.00  0.00    +0.000 NA
ATOM     24  C   UNL     1      -4.885  11.990  17.826  0.00  0.00    +0.000 A 
ATOM     25  N   UNL     1      -4.463  12.196  19.121  0.00  0.00    +0.000 N 
ATOM     26  C   UNL     1      -5.314  12.507  20.246  0.00  0.00    +0.000 C 
ATOM     27  C   UNL     1      -6.090  13.805  20.070  0.00  0.00    +0.000 C 
ATOM     28  C   UNL     1      -7.246  13.773  19.066  0.00  0.00    +0.000 C 
ATOM     29  C   UNL     1      -7.384  12.537  18.183  0.00  0.00    +0.000 C 
ATOM     30  C   UNL     1      -6.219  12.289  17.236  0.00  0.00    +0.000 C 
ENDBRANCH  20  21
ENDBRANCH   1  20
TORSDOF 4
ENDMDL
MODEL 9
REMARK VINA RESULT:      -6.8      6.204      9.598
REMARK  Name = 
REMARK  5 active torsions:
REMARK  status: ('A' for Active; 'I' for Inactive)
REMARK    1  A    between atoms: C_1  and  C_2
REMARK    2  A    between atoms: C_7  and  N_8
REMARK    3  A    between atoms: N_8  and  C_9
REMARK    4  A    between atoms: C_9  and  C_10
REMARK    5  A    between atoms: N_22  and  C_23
REMARK                            x       y       z     vdW  Elec       q    Type
REMARK                         _______ _______ _______ _____ _____    ______ ____
ROOT
ATOM      1  N   UNL     1      -0.273  12.137  20.160  0.00  0.00    +0.000 N 
ATOM      2  C   UNL     1       0.850  12.933  19.822  0.00  0.00    +0.000 C 
ATOM      3  O   UNL     1       1.953  12.761  20.350  0.00  0.00    +0.000 OA
ATOM      4  N   UNL     1       0.646  13.940  18.903  0.00  0.00    +0.000 N 
ATOM      5  H   UNL     1      -0.284  14.351  18.923  0.00  0.00    +0.000 HD
ENDROOT
BRANCH   1  12
ATOM      6  C   UNL     1       0.989   9.650  19.220  0.00  0.00    +0.000 C 
ATOM      7  C   UNL     1       0.387   9.822  20.585  0.00  0.00    +0.000 A 
ATOM      8  C   UNL     1       0.001   8.684  21.307  0.00  0.00    +0.000 A 
ATOM      9  C   UNL     1      -0.575   8.810  22.570  0.00  0.00    +0.000 A 
ATOM     10  C   UNL     1      -0.709  10.071  23.150  0.00  0.00    +0.000 A 
ATOM     11  C   UNL     1      -0.380  11.220  22.423  0.00  0.00    +0.000 A 
ATOM     12  C   UNL     1       0.081  11.102  21.102  0.00  0.00    +0.000 A 
ENDBRANCH   1  12
BRANCH   4  13
ATOM     13  C   UNL     1       1.710  14.854  18.681  0.00  0.00    +0.000 A 
ATOM     14  C   UNL     1       2.802  14.513  17.875  0.00  0.00    +0.000 A 
ATOM     15  C   UNL     1       3.936  15.326  17.842  0.00  0.00    +0.000 A 
ATOM     16  C   UNL     1       3.965  16.471  18.624  0.00  0.00    +0.000 A 
ATOM     17  F   UNL     1       5.079  17.216  18.657  0.00  0.00    +0.000 F 
ATOM     18  C   UNL     1       2.867  16.845  19.393  0.00  0.00    +0.000 A 
ATOM     19  C   UNL     1       1.718  16.049  19.403  0.00  0.00    +0.000 A 
ENDBRANCH   4  13
BRANCH   1  20
ATOM     20  C   UNL     1      -1.355  11.879  19.198  0.00  0.00    +0.000 C 
BRANCH  20  21
ATOM     21  C   UNL     1      -2.653  12.440  19.705  0.00  0.00    +0.000 A 
ATOM     22  N   UNL     1      -2.748  13.228  20.760  0.00  0.00    +0.000 NA
ATOM     23  N   UNL     1      -4.066  13.438  21.033  0.00  0.00    +0.000 NA
ATOM     24  C   UNL     1      -4.783  12.798  20.132  0.00  0.00    +0.000 A 
ATOM     25  N   UNL     1      -3.925  12.235  19.214  0.00  0.00    +0.000 N 
ATOM     26  C   UNL     1      -4.311  11.607  17.971  0.00  0.00    +0.000 C 
ATOM     27  C   UNL     1      -5.226  10.406  18.165  0.00  0.00    +0.000 C 
ATOM     28  C   UNL     1      -6.667  10.713  18.584  0.00  0.00    +0.000 C 
ATOM     29  C   UNL     1      -7.000  12.149  18.978  0.00  0.00    +0.000 C 
ATOM     30  C   UNL     1      -6.265  12.667  20.204  0.00  0.00    +0.000 C 
ENDBRANCH  20  21
ENDBRANCH   1  20
TORSDOF 4
ENDMDL
