MODEL 1
REMARK VINA RESULT:      -8.9      0.000      0.000
REMARK  Name = 
REMARK  7 active torsions:
REMARK  status: ('A' for Active; 'I' for Inactive)
REMARK    1  A    between atoms: C_1  and  C_2
REMARK    2  A    between atoms: C_5  and  C_6
REMARK    3  A    between atoms: C_8  and  C_9
REMARK    4  A    between atoms: C_13  and  N_14
REMARK    5  A    between atoms: C_15  and  C_17
REMARK    6  A    between atoms: C_20  and  C_21
REMARK    7  A    between atoms: N_22  and  C_23
REMARK                            x       y       z     vdW  Elec       q    Type
REMARK                         _______ _______ _______ _____ _____    ______ ____
ROOT
ATOM      1  C   UNL     1       6.555   5.230  17.727  0.00  0.00    +0.000 C 
ATOM      2  O   UNL     1       7.329   5.987  18.304  0.00  0.00    +0.000 OA
ATOM      3  N   UNL     1       5.513   4.587  18.367  0.00  0.00    +0.000 N 
ATOM      4  C   UNL     1       5.176   4.725  19.780  0.00  0.00    +0.000 C 
ATOM      5  C   UNL     1       3.712   4.927  19.373  0.00  0.00    +0.000 C 
ATOM      6  C   UNL     1       4.115   4.663  17.917  0.00  0.00    +0.000 C 
ENDROOT
BRANCH   1   9
ATOM      7  C   UNL     1       6.430   4.283  14.215  0.00  0.00    +0.000 A 
ATOM      8  C   UNL     1       5.967   4.051  15.525  0.00  0.00    +0.000 A 
ATOM      9  C   UNL     1       6.641   4.957  16.319  0.00  0.00    +0.000 A 
ATOM     10  N   UNL     1       7.492   5.608  15.471  0.00  0.00    +0.000 N 
ATOM     11  N   UNL     1       7.371   5.236  14.183  0.00  0.00    +0.000 NA
ATOM     12  H   UNL     1       8.144   6.350  15.707  0.00  0.00    +0.000 HD
BRANCH   7  17
ATOM     13  C   UNL     1       3.325   3.170  10.571  0.00  0.00    +0.000 C 
ATOM     14  C   UNL     1       4.577   3.041  11.341  0.00  0.00    +0.000 A 
ATOM     15  C   UNL     1       5.741   2.329  11.153  0.00  0.00    +0.000 A 
ATOM     16  C   UNL     1       6.599   2.681  12.222  0.00  0.00    +0.000 A 
ATOM     17  C   UNL     1       5.910   3.585  13.007  0.00  0.00    +0.000 A 
ATOM     18  O   UNL     1       4.663   3.786  12.478  0.00  0.00    +0.000 OA
ENDBRANCH   7  17
ENDBRANCH   1   9
BRANCH   5  19
ATOM     19  N   UNL     1       3.186   6.286  19.637  0.00  0.00    +0.000 N 
ATOM     20  C   UNL     1       1.960   6.478  20.249  0.00  0.00    +0.000 C 
ATOM     21  O   UNL     1       1.265   5.512  20.550  0.00  0.00    +0.000 OA
ATOM     22  H   UNL     1       3.716   7.104  19.372  0.00  0.00    +0.000 HD
BRANCH  20  23
ATOM     23  C   UNL     1       1.576   7.860  20.482  0.00  0.00    +0.000 A 
ATOM     24  C   UNL     1       1.238   8.509  21.666  0.00  0.00    +0.000 A 
ATOM     25  C   UNL     1       0.948   9.860  21.380  0.00  0.00    +0.000 A 
ATOM     26  C   UNL     1       1.103  10.040  20.023  0.00  0.00    +0.000 A 
ATOM     27  C   UNL     1       0.926  11.283  19.222  0.00  0.00    +0.000 C 
ATOM     28  N   UNL     1       1.470   8.824  19.483  0.00  0.00    +0.000 N 
ATOM     29  C   UNL     1       1.717   8.569  18.075  0.00  0.00    +0.000 C 
ENDBRANCH  20  23
ENDBRANCH   5  19
TORSDOF 4
ENDMDL
MODEL 2
REMARK VINA RESULT:      -8.8      0.635      1.030
REMARK  Name = 
REMARK  7 active torsions:
REMARK  status: ('A' for Active; 'I' for Inactive)
REMARK    1  A    between atoms: C_1  and  C_2
REMARK    2  A    between atoms: C_5  and  C_6
REMARK    3  A    between atoms: C_8  and  C_9
REMARK    4  A    between atoms: C_13  and  N_14
REMARK    5  A    between atoms: C_15  and  C_17
REMARK    6  A    between atoms: C_20  and  C_21
REMARK    7  A    between atoms: N_22  and  C_23
REMARK                            x       y       z     vdW  Elec       q    Type
REMARK                         _______ _______ _______ _____ _____    ______ ____
ROOT
ATOM      1  C   UNL     1       6.676   5.437  17.591  0.00  0.00    +0.000 C 
ATOM      2  O   UNL     1       7.418   6.265  18.108  0.00  0.00    +0.000 OA
ATOM      3  N   UNL     1       5.696   4.761  18.294  0.00  0.00    +0.000 N 
ATOM      4  C   UNL     1       5.395   4.943  19.710  0.00  0.00    +0.000 C 
ATOM      5  C   UNL     1       3.909   5.037  19.343  0.00  0.00    +0.000 C 
ATOM      6  C   UNL     1       4.283   4.731  17.887  0.00  0.00    +0.000 C 
ENDROOT
BRANCH   1   9
ATOM      7  C   UNL     1       6.491   4.337  14.127  0.00  0.00    +0.000 A 
ATOM      8  C   UNL     1       6.064   4.152  15.457  0.00  0.00    +0.000 A 
ATOM      9  C   UNL     1       6.736   5.105  16.195  0.00  0.00    +0.000 A 
ATOM     10  N   UNL     1       7.551   5.738  15.300  0.00  0.00    +0.000 N 
ATOM     11  N   UNL     1       7.409   5.308  14.032  0.00  0.00    +0.000 NA
ATOM     12  H   UNL     1       8.192   6.504  15.488  0.00  0.00    +0.000 HD
BRANCH   7  17
ATOM     13  C   UNL     1       6.135   0.721  10.817  0.00  0.00    +0.000 C 
ATOM     14  C   UNL     1       5.731   1.989  11.455  0.00  0.00    +0.000 A 
ATOM     15  C   UNL     1       4.667   2.845  11.279  0.00  0.00    +0.000 A 
ATOM     16  C   UNL     1       4.812   3.865  12.250  0.00  0.00    +0.000 A 
ATOM     17  C   UNL     1       5.960   3.577  12.962  0.00  0.00    +0.000 A 
ATOM     18  O   UNL     1       6.533   2.441  12.458  0.00  0.00    +0.000 OA
ENDBRANCH   7  17
ENDBRANCH   1   9
BRANCH   5  19
ATOM     19  N   UNL     1       3.308   6.372  19.566  0.00  0.00    +0.000 N 
ATOM     20  C   UNL     1       2.076   6.514  20.180  0.00  0.00    +0.000 C 
ATOM     21  O   UNL     1       1.440   5.521  20.520  0.00  0.00    +0.000 OA
ATOM     22  H   UNL     1       3.788   7.209  19.268  0.00  0.00    +0.000 HD
BRANCH  20  23
ATOM     23  C   UNL     1       1.615   7.879  20.369  0.00  0.00    +0.000 A 
ATOM     24  C   UNL     1       1.212   8.538  21.528  0.00  0.00    +0.000 A 
ATOM     25  C   UNL     1       0.860   9.864  21.201  0.00  0.00    +0.000 A 
ATOM     26  C   UNL     1       1.042  10.020  19.844  0.00  0.00    +0.000 A 
ATOM     27  C   UNL     1       0.823  11.233  19.008  0.00  0.00    +0.000 C 
ATOM     28  N   UNL     1       1.486   8.812  19.344  0.00  0.00    +0.000 N 
ATOM     29  C   UNL     1       1.784   8.538  17.949  0.00  0.00    +0.000 C 
ENDBRANCH  20  23
ENDBRANCH   5  19
TORSDOF 4
ENDMDL
MODEL 3
REMARK VINA RESULT:      -8.5      0.901      1.436
REMARK  Name = 
REMARK  7 active torsions:
REMARK  status: ('A' for Active; 'I' for Inactive)
REMARK    1  A    between atoms: C_1  and  C_2
REMARK    2  A    between atoms: C_5  and  C_6
REMARK    3  A    between atoms: C_8  and  C_9
REMARK    4  A    between atoms: C_13  and  N_14
REMARK    5  A    between atoms: C_15  and  C_17
REMARK    6  A    between atoms: C_20  and  C_21
REMARK    7  A    between atoms: N_22  and  C_23
REMARK                            x       y       z     vdW  Elec       q    Type
REMARK                         _______ _______ _______ _____ _____    ______ ____
ROOT
ATOM      1  C   UNL     1       6.183   5.766  17.554  0.00  0.00    +0.000 C 
ATOM      2  O   UNL     1       6.895   6.616  18.079  0.00  0.00    +0.000 OA
ATOM      3  N   UNL     1       5.087   5.208  18.183  0.00  0.00    +0.000 N 
ATOM      4  C   UNL     1       4.614   5.553  19.520  0.00  0.00    +0.000 C 
ATOM      5  C   UNL     1       3.196   5.664  18.949  0.00  0.00    +0.000 C 
ATOM      6  C   UNL     1       3.739   5.189  17.596  0.00  0.00    +0.000 C 
ENDROOT
BRANCH   1   9
ATOM      7  C   UNL     1       6.353   4.373  14.196  0.00  0.00    +0.000 A 
ATOM      8  C   UNL     1       5.669   4.427  15.427  0.00  0.00    +0.000 A 
ATOM      9  C   UNL     1       6.406   5.283  16.219  0.00  0.00    +0.000 A 
ATOM     10  N   UNL     1       7.491   5.623  15.462  0.00  0.00    +0.000 N 
ATOM     11  N   UNL     1       7.475   5.103  14.220  0.00  0.00    +0.000 NA
ATOM     12  H   UNL     1       8.251   6.246  15.723  0.00  0.00    +0.000 HD
BRANCH   7  17
ATOM     13  C   UNL     1       3.335   3.083  10.537  0.00  0.00    +0.000 C 
ATOM     14  C   UNL     1       4.577   3.006  11.331  0.00  0.00    +0.000 A 
ATOM     15  C   UNL     1       5.759   2.316  11.182  0.00  0.00    +0.000 A 
ATOM     16  C   UNL     1       6.592   2.719  12.253  0.00  0.00    +0.000 A 
ATOM     17  C   UNL     1       5.870   3.629  13.000  0.00  0.00    +0.000 A 
ATOM     18  O   UNL     1       4.627   3.785  12.447  0.00  0.00    +0.000 OA
ENDBRANCH   7  17
ENDBRANCH   1   9
BRANCH   5  19
ATOM     19  N   UNL     1       2.642   7.038  18.952  0.00  0.00    +0.000 N 
ATOM     20  C   UNL     1       1.818   7.481  19.972  0.00  0.00    +0.000 C 
ATOM     21  O   UNL     1       1.501   6.720  20.881  0.00  0.00    +0.000 OA
ATOM     22  H   UNL     1       2.855   7.680  18.202  0.00  0.00    +0.000 HD
BRANCH  20  23
ATOM     23  C   UNL     1       1.370   8.860  19.872  0.00  0.00    +0.000 A 
ATOM     24  C   UNL     1       1.223   9.676  18.754  0.00  0.00    +0.000 A 
ATOM     25  C   UNL     1       0.746  10.938  19.169  0.00  0.00    +0.000 A 
ATOM     26  C   UNL     1       0.605  10.899  20.539  0.00  0.00    +0.000 A 
ATOM     27  C   UNL     1       0.127  11.969  21.458  0.00  0.00    +0.000 C 
ATOM     28  N   UNL     1       0.997   9.643  20.960  0.00  0.00    +0.000 N 
ATOM     29  C   UNL     1       1.019   9.188  22.339  0.00  0.00    +0.000 C 
ENDBRANCH  20  23
ENDBRANCH   5  19
TORSDOF 4
ENDMDL
MODEL 4
REMARK VINA RESULT:      -8.3      1.095      1.777
REMARK  Name = 
REMARK  7 active torsions:
REMARK  status: ('A' for Active; 'I' for Inactive)
REMARK    1  A    between atoms: C_1  and  C_2
REMARK    2  A    between atoms: C_5  and  C_6
REMARK    3  A    between atoms: C_8  and  C_9
REMARK    4  A    between atoms: C_13  and  N_14
REMARK    5  A    between atoms: C_15  and  C_17
REMARK    6  A    between atoms: C_20  and  C_21
REMARK    7  A    between atoms: N_22  and  C_23
REMARK                            x       y       z     vdW  Elec       q    Type
REMARK                         _______ _______ _______ _____ _____    ______ ____
ROOT
ATOM      1  C   UNL     1       6.183   5.809  17.532  0.00  0.00    +0.000 C 
ATOM      2  O   UNL     1       6.898   6.652  18.063  0.00  0.00    +0.000 OA
ATOM      3  N   UNL     1       5.084   5.251  18.157  0.00  0.00    +0.000 N 
ATOM      4  C   UNL     1       4.613   5.587  19.497  0.00  0.00    +0.000 C 
ATOM      5  C   UNL     1       3.195   5.708  18.928  0.00  0.00    +0.000 C 
ATOM      6  C   UNL     1       3.736   5.241  17.570  0.00  0.00    +0.000 C 
ENDROOT
BRANCH   1   9
ATOM      7  C   UNL     1       6.362   4.408  14.177  0.00  0.00    +0.000 A 
ATOM      8  C   UNL     1       5.714   4.417  15.428  0.00  0.00    +0.000 A 
ATOM      9  C   UNL     1       6.403   5.336  16.193  0.00  0.00    +0.000 A 
ATOM     10  N   UNL     1       7.433   5.757  15.401  0.00  0.00    +0.000 N 
ATOM     11  N   UNL     1       7.422   5.228  14.163  0.00  0.00    +0.000 NA
ATOM     12  H   UNL     1       8.148   6.441  15.634  0.00  0.00    +0.000 HD
BRANCH   7  17
ATOM     13  C   UNL     1       6.294   0.774  10.870  0.00  0.00    +0.000 C 
ATOM     14  C   UNL     1       5.803   2.018  11.493  0.00  0.00    +0.000 A 
ATOM     15  C   UNL     1       4.698   2.814  11.287  0.00  0.00    +0.000 A 
ATOM     16  C   UNL     1       4.762   3.842  12.258  0.00  0.00    +0.000 A 
ATOM     17  C   UNL     1       5.905   3.619  13.001  0.00  0.00    +0.000 A 
ATOM     18  O   UNL     1       6.553   2.515  12.515  0.00  0.00    +0.000 OA
ENDBRANCH   7  17
ENDBRANCH   1   9
BRANCH   5  19
ATOM     19  N   UNL     1       2.646   7.083  18.941  0.00  0.00    +0.000 N 
ATOM     20  C   UNL     1       1.811   7.516  19.956  0.00  0.00    +0.000 C 
ATOM     21  O   UNL     1       1.479   6.745  20.851  0.00  0.00    +0.000 OA
ATOM     22  H   UNL     1       2.871   7.734  18.202  0.00  0.00    +0.000 HD
BRANCH  20  23
ATOM     23  C   UNL     1       1.369   8.898  19.868  0.00  0.00    +0.000 A 
ATOM     24  C   UNL     1       1.256   9.735  18.762  0.00  0.00    +0.000 A 
ATOM     25  C   UNL     1       0.771  10.990  19.186  0.00  0.00    +0.000 A 
ATOM     26  C   UNL     1       0.591  10.927  20.550  0.00  0.00    +0.000 A 
ATOM     27  C   UNL     1       0.088  11.981  21.474  0.00  0.00    +0.000 C 
ATOM     28  N   UNL     1       0.966   9.663  20.959  0.00  0.00    +0.000 N 
ATOM     29  C   UNL     1       0.948   9.182  22.330  0.00  0.00    +0.000 C 
ENDBRANCH  20  23
ENDBRANCH   5  19
TORSDOF 4
ENDMDL
MODEL 5
REMARK VINA RESULT:      -8.2      0.945      1.486
REMARK  Name = 
REMARK  7 active torsions:
REMARK  status: ('A' for Active; 'I' for Inactive)
REMARK    1  A    between atoms: C_1  and  C_2
REMARK    2  A    between atoms: C_5  and  C_6
REMARK    3  A    between atoms: C_8  and  C_9
REMARK    4  A    between atoms: C_13  and  N_14
REMARK    5  A    between atoms: C_15  and  C_17
REMARK    6  A    between atoms: C_20  and  C_21
REMARK    7  A    between atoms: N_22  and  C_23
REMARK                            x       y       z     vdW  Elec       q    Type
REMARK                         _______ _______ _______ _____ _____    ______ ____
ROOT
ATOM      1  C   UNL     1       6.951   5.639  16.989  0.00  0.00    +0.000 C 
ATOM      2  O   UNL     1       7.704   6.536  17.355  0.00  0.00    +0.000 OA
ATOM      3  N   UNL     1       6.048   5.022  17.834  0.00  0.00    +0.000 N 
ATOM      4  C   UNL     1       5.845   5.352  19.241  0.00  0.00    +0.000 C 
ATOM      5  C   UNL     1       4.335   5.370  18.980  0.00  0.00    +0.000 C 
ATOM      6  C   UNL     1       4.610   4.914  17.542  0.00  0.00    +0.000 C 
ENDROOT
BRANCH   1   9
ATOM      7  C   UNL     1       6.501   4.220  13.668  0.00  0.00    +0.000 A 
ATOM      8  C   UNL     1       6.090   4.244  15.016  0.00  0.00    +0.000 A 
ATOM      9  C   UNL     1       6.919   5.156  15.637  0.00  0.00    +0.000 A 
ATOM     10  N   UNL     1       7.795   5.557  14.668  0.00  0.00    +0.000 N 
ATOM     11  N   UNL     1       7.552   5.023  13.456  0.00  0.00    +0.000 NA
ATOM     12  H   UNL     1       8.550   6.231  14.763  0.00  0.00    +0.000 HD
BRANCH   7  17
ATOM     13  C   UNL     1       3.098   3.048  10.322  0.00  0.00    +0.000 C 
ATOM     14  C   UNL     1       4.350   2.848  11.075  0.00  0.00    +0.000 A 
ATOM     15  C   UNL     1       5.384   1.944  10.978  0.00  0.00    +0.000 A 
ATOM     16  C   UNL     1       6.335   2.320  11.956  0.00  0.00    +0.000 A 
ATOM     17  C   UNL     1       5.827   3.432  12.600  0.00  0.00    +0.000 A 
ATOM     18  O   UNL     1       4.601   3.739  12.074  0.00  0.00    +0.000 OA
ENDBRANCH   7  17
ENDBRANCH   1   9
BRANCH   5  19
ATOM     19  N   UNL     1       3.709   6.707  19.102  0.00  0.00    +0.000 N 
ATOM     20  C   UNL     1       2.420   6.943  18.658  0.00  0.00    +0.000 C 
ATOM     21  O   UNL     1       1.781   6.044  18.118  0.00  0.00    +0.000 OA
ATOM     22  H   UNL     1       4.218   7.478  19.511  0.00  0.00    +0.000 HD
BRANCH  20  23
ATOM     23  C   UNL     1       1.912   8.288  18.868  0.00  0.00    +0.000 A 
ATOM     24  C   UNL     1       1.889   9.382  18.006  0.00  0.00    +0.000 A 
ATOM     25  C   UNL     1       1.282  10.471  18.667  0.00  0.00    +0.000 A 
ATOM     26  C   UNL     1       0.938  10.050  19.933  0.00  0.00    +0.000 A 
ATOM     27  C   UNL     1       0.264  10.815  21.019  0.00  0.00    +0.000 C 
ATOM     28  N   UNL     1       1.333   8.732  20.053  0.00  0.00    +0.000 N 
ATOM     29  C   UNL     1       1.173   7.911  21.240  0.00  0.00    +0.000 C 
ENDBRANCH  20  23
ENDBRANCH   5  19
TORSDOF 4
ENDMDL
MODEL 6
REMARK VINA RESULT:      -7.8      4.857      7.840
REMARK  Name = 
REMARK  7 active torsions:
REMARK  status: ('A' for Active; 'I' for Inactive)
REMARK    1  A    between atoms: C_1  and  C_2
REMARK    2  A    between atoms: C_5  and  C_6
REMARK    3  A    between atoms: C_8  and  C_9
REMARK    4  A    between atoms: C_13  and  N_14
REMARK    5  A    between atoms: C_15  and  C_17
REMARK    6  A    between atoms: C_20  and  C_21
REMARK    7  A    between atoms: N_22  and  C_23
REMARK                            x       y       z     vdW  Elec       q    Type
REMARK                         _______ _______ _______ _____ _____    ______ ____
ROOT
ATOM      1  C   UNL     1       7.923   6.680  18.328  0.00  0.00    +0.000 C 
ATOM      2  O   UNL     1       8.271   5.961  19.259  0.00  0.00    +0.000 OA
ATOM      3  N   UNL     1       7.210   6.211  17.240  0.00  0.00    +0.000 N 
ATOM      4  C   UNL     1       6.761   4.836  17.054  0.00  0.00    +0.000 C 
ATOM      5  C   UNL     1       5.375   5.378  16.685  0.00  0.00    +0.000 C 
ATOM      6  C   UNL     1       5.940   6.800  16.790  0.00  0.00    +0.000 C 
ENDROOT
BRANCH   1   9
ATOM      7  C   UNL     1       8.911  10.176  18.545  0.00  0.00    +0.000 A 
ATOM      8  C   UNL     1       8.958   8.890  19.118  0.00  0.00    +0.000 A 
ATOM      9  C   UNL     1       8.202   8.088  18.288  0.00  0.00    +0.000 A 
ATOM     10  N   UNL     1       7.705   8.933  17.335  0.00  0.00    +0.000 N 
ATOM     11  N   UNL     1       8.136  10.203  17.452  0.00  0.00    +0.000 NA
ATOM     12  H   UNL     1       7.105   8.689  16.552  0.00  0.00    +0.000 HD
BRANCH   7  17
ATOM     13  C   UNL     1      10.834  14.698  18.593  0.00  0.00    +0.000 C 
ATOM     14  C   UNL     1      10.541  13.369  19.161  0.00  0.00    +0.000 A 
ATOM     15  C   UNL     1      10.750  12.795  20.396  0.00  0.00    +0.000 A 
ATOM     16  C   UNL     1      10.182  11.500  20.333  0.00  0.00    +0.000 A 
ATOM     17  C   UNL     1       9.661  11.353  19.062  0.00  0.00    +0.000 A 
ATOM     18  O   UNL     1       9.903  12.490  18.339  0.00  0.00    +0.000 OA
ENDBRANCH   7  17
ENDBRANCH   1   9
BRANCH   5  19
ATOM     19  N   UNL     1       4.312   5.055  17.665  0.00  0.00    +0.000 N 
ATOM     20  C   UNL     1       3.579   3.885  17.574  0.00  0.00    +0.000 C 
ATOM     21  O   UNL     1       3.776   3.106  16.646  0.00  0.00    +0.000 OA
ATOM     22  H   UNL     1       4.100   5.689  18.422  0.00  0.00    +0.000 HD
BRANCH  20  23
ATOM     23  C   UNL     1       2.590   3.673  18.617  0.00  0.00    +0.000 A 
ATOM     24  C   UNL     1       1.243   4.022  18.661  0.00  0.00    +0.000 A 
ATOM     25  C   UNL     1       0.699   3.591  19.889  0.00  0.00    +0.000 A 
ATOM     26  C   UNL     1       1.709   2.983  20.601  0.00  0.00    +0.000 A 
ATOM     27  C   UNL     1       1.651   2.353  21.949  0.00  0.00    +0.000 C 
ATOM     28  N   UNL     1       2.854   3.047  19.832  0.00  0.00    +0.000 N 
ATOM     29  C   UNL     1       4.157   2.537  20.220  0.00  0.00    +0.000 C 
ENDBRANCH  20  23
ENDBRANCH   5  19
TORSDOF 4
ENDMDL
MODEL 7
REMARK VINA RESULT:      -7.7      1.252      1.905
REMARK  Name = 
REMARK  7 active torsions:
REMARK  status: ('A' for Active; 'I' for Inactive)
REMARK    1  A    between atoms: C_1  and  C_2
REMARK    2  A    between atoms: C_5  and  C_6
REMARK    3  A    between atoms: C_8  and  C_9
REMARK    4  A    between atoms: C_13  and  N_14
REMARK    5  A    between atoms: C_15  and  C_17
REMARK    6  A    between atoms: C_20  and  C_21
REMARK    7  A    between atoms: N_22  and  C_23
REMARK                            x       y       z     vdW  Elec       q    Type
REMARK                         _______ _______ _______ _____ _____    ______ ____
ROOT
ATOM      1  C   UNL     1       7.103   5.841  16.736  0.00  0.00    +0.000 C 
ATOM      2  O   UNL     1       7.807   6.800  17.035  0.00  0.00    +0.000 OA
ATOM      3  N   UNL     1       6.269   5.208  17.638  0.00  0.00    +0.000 N 
ATOM      4  C   UNL     1       6.091   5.590  19.035  0.00  0.00    +0.000 C 
ATOM      5  C   UNL     1       4.575   5.500  18.827  0.00  0.00    +0.000 C 
ATOM      6  C   UNL     1       4.833   4.997  17.402  0.00  0.00    +0.000 C 
ENDROOT
BRANCH   1   9
ATOM      7  C   UNL     1       6.648   4.233  13.503  0.00  0.00    +0.000 A 
ATOM      8  C   UNL     1       6.297   4.279  14.867  0.00  0.00    +0.000 A 
ATOM      9  C   UNL     1       7.059   5.295  15.408  0.00  0.00    +0.000 A 
ATOM     10  N   UNL     1       7.846   5.735  14.381  0.00  0.00    +0.000 N 
ATOM     11  N   UNL     1       7.604   5.124  13.207  0.00  0.00    +0.000 NA
ATOM     12  H   UNL     1       8.534   6.482  14.412  0.00  0.00    +0.000 HD
BRANCH   7  17
ATOM     13  C   UNL     1       5.892   0.167  10.848  0.00  0.00    +0.000 C 
ATOM     14  C   UNL     1       5.601   1.545  11.287  0.00  0.00    +0.000 A 
ATOM     15  C   UNL     1       4.582   2.433  11.021  0.00  0.00    +0.000 A 
ATOM     16  C   UNL     1       4.843   3.583  11.805  0.00  0.00    +0.000 A 
ATOM     17  C   UNL     1       6.009   3.335  12.503  0.00  0.00    +0.000 A 
ATOM     18  O   UNL     1       6.484   2.096  12.166  0.00  0.00    +0.000 OA
ENDBRANCH   7  17
ENDBRANCH   1   9
BRANCH   5  19
ATOM     19  N   UNL     1       3.869   6.799  18.912  0.00  0.00    +0.000 N 
ATOM     20  C   UNL     1       2.529   6.914  18.583  0.00  0.00    +0.000 C 
ATOM     21  O   UNL     1       1.909   5.936  18.176  0.00  0.00    +0.000 OA
ATOM     22  H   UNL     1       4.356   7.631  19.211  0.00  0.00    +0.000 HD
BRANCH  20  23
ATOM     23  C   UNL     1       1.948   8.237  18.742  0.00  0.00    +0.000 A 
ATOM     24  C   UNL     1       1.866   9.295  17.841  0.00  0.00    +0.000 A 
ATOM     25  C   UNL     1       1.199  10.372  18.460  0.00  0.00    +0.000 A 
ATOM     26  C   UNL     1       0.875   9.980  19.741  0.00  0.00    +0.000 A 
ATOM     27  C   UNL     1       0.157  10.745  20.797  0.00  0.00    +0.000 C 
ATOM     28  N   UNL     1       1.342   8.691  19.909  0.00  0.00    +0.000 N 
ATOM     29  C   UNL     1       1.224   7.907  21.126  0.00  0.00    +0.000 C 
ENDBRANCH  20  23
ENDBRANCH   5  19
TORSDOF 4
ENDMDL
MODEL 8
REMARK VINA RESULT:      -7.7      1.202      1.541
REMARK  Name = 
REMARK  7 active torsions:
REMARK  status: ('A' for Active; 'I' for Inactive)
REMARK    1  A    between atoms: C_1  and  C_2
REMARK    2  A    between atoms: C_5  and  C_6
REMARK    3  A    between atoms: C_8  and  C_9
REMARK    4  A    between atoms: C_13  and  N_14
REMARK    5  A    between atoms: C_15  and  C_17
REMARK    6  A    between atoms: C_20  and  C_21
REMARK    7  A    between atoms: N_22  and  C_23
REMARK                            x       y       z     vdW  Elec       q    Type
REMARK                         _______ _______ _______ _____ _____    ______ ____
ROOT
ATOM      1  C   UNL     1       6.085   4.918  18.939  0.00  0.00    +0.000 C 
ATOM      2  O   UNL     1       6.740   5.311  19.899  0.00  0.00    +0.000 OA
ATOM      3  N   UNL     1       4.842   4.327  19.066  0.00  0.00    +0.000 N 
ATOM      4  C   UNL     1       4.136   4.107  20.324  0.00  0.00    +0.000 C 
ATOM      5  C   UNL     1       2.877   4.695  19.676  0.00  0.00    +0.000 C 
ATOM      6  C   UNL     1       3.646   4.796  18.353  0.00  0.00    +0.000 C 
ENDROOT
BRANCH   1   9
ATOM      7  C   UNL     1       6.969   4.938  15.409  0.00  0.00    +0.000 A 
ATOM      8  C   UNL     1       6.328   4.268  16.470  0.00  0.00    +0.000 A 
ATOM      9  C   UNL     1       6.537   5.056  17.583  0.00  0.00    +0.000 A 
ATOM     10  N   UNL     1       7.325   6.084  17.147  0.00  0.00    +0.000 N 
ATOM     11  N   UNL     1       7.585   6.052  15.827  0.00  0.00    +0.000 NA
ATOM     12  H   UNL     1       7.676   6.864  17.697  0.00  0.00    +0.000 HD
BRANCH   7  17
ATOM     13  C   UNL     1       5.527   2.381  11.468  0.00  0.00    +0.000 C 
ATOM     14  C   UNL     1       6.331   3.393  12.178  0.00  0.00    +0.000 A 
ATOM     15  C   UNL     1       7.232   4.351  11.769  0.00  0.00    +0.000 A 
ATOM     16  C   UNL     1       7.617   5.058  12.933  0.00  0.00    +0.000 A 
ATOM     17  C   UNL     1       6.932   4.491  13.990  0.00  0.00    +0.000 A 
ATOM     18  O   UNL     1       6.164   3.456  13.528  0.00  0.00    +0.000 OA
ENDBRANCH   7  17
ENDBRANCH   1   9
BRANCH   5  19
ATOM     19  N   UNL     1       2.445   5.992  20.247  0.00  0.00    +0.000 N 
ATOM     20  C   UNL     1       2.001   7.023  19.438  0.00  0.00    +0.000 C 
ATOM     21  O   UNL     1       1.995   6.889  18.218  0.00  0.00    +0.000 OA
ATOM     22  H   UNL     1       2.469   6.149  21.244  0.00  0.00    +0.000 HD
BRANCH  20  23
ATOM     23  C   UNL     1       1.573   8.230  20.126  0.00  0.00    +0.000 A 
ATOM     24  C   UNL     1       1.307   8.447  21.475  0.00  0.00    +0.000 A 
ATOM     25  C   UNL     1       0.930   9.794  21.655  0.00  0.00    +0.000 A 
ATOM     26  C   UNL     1       0.960  10.404  20.420  0.00  0.00    +0.000 A 
ATOM     27  C   UNL     1       0.657  11.819  20.071  0.00  0.00    +0.000 C 
ATOM     28  N   UNL     1       1.337   9.449  19.496  0.00  0.00    +0.000 N 
ATOM     29  C   UNL     1       1.475   9.669  18.067  0.00  0.00    +0.000 C 
ENDBRANCH  20  23
ENDBRANCH   5  19
TORSDOF 4
ENDMDL
MODEL 9
REMARK VINA RESULT:      -7.6      4.568      7.485
REMARK  Name = 
REMARK  7 active torsions:
REMARK  status: ('A' for Active; 'I' for Inactive)
REMARK    1  A    between atoms: C_1  and  C_2
REMARK    2  A    between atoms: C_5  and  C_6
REMARK    3  A    between atoms: C_8  and  C_9
REMARK    4  A    between atoms: C_13  and  N_14
REMARK    5  A    between atoms: C_15  and  C_17
REMARK    6  A    between atoms: C_20  and  C_21
REMARK    7  A    between atoms: N_22  and  C_23
REMARK                            x       y       z     vdW  Elec       q    Type
REMARK                         _______ _______ _______ _____ _____    ______ ____
ROOT
ATOM      1  C   UNL     1       1.086   9.043  21.636  0.00  0.00    +0.000 C 
ATOM      2  O   UNL     1       1.738   9.475  22.580  0.00  0.00    +0.000 OA
ATOM      3  N   UNL     1      -0.110   9.601  21.227  0.00  0.00    +0.000 N 
ATOM      4  C   UNL     1      -0.745  10.769  21.828  0.00  0.00    +0.000 C 
ATOM      5  C   UNL     1      -0.946  11.339  20.419  0.00  0.00    +0.000 C 
ATOM      6  C   UNL     1      -0.370  10.037  19.847  0.00  0.00    +0.000 C 
ENDROOT
BRANCH   1   9
ATOM      7  C   UNL     1       1.944   5.961  19.899  0.00  0.00    +0.000 A 
ATOM      8  C   UNL     1       1.373   6.564  21.038  0.00  0.00    +0.000 A 
ATOM      9  C   UNL     1       1.516   7.923  20.844  0.00  0.00    +0.000 A 
ATOM     10  N   UNL     1       2.205   8.045  19.671  0.00  0.00    +0.000 N 
ATOM     11  N   UNL     1       2.460   6.871  19.063  0.00  0.00    +0.000 NA
ATOM     12  H   UNL     1       2.487   8.906  19.211  0.00  0.00    +0.000 HD
BRANCH   7  17
ATOM     13  C   UNL     1       3.479   1.639  18.134  0.00  0.00    +0.000 C 
ATOM     14  C   UNL     1       2.571   2.523  18.889  0.00  0.00    +0.000 A 
ATOM     15  C   UNL     1       1.483   2.298  19.703  0.00  0.00    +0.000 A 
ATOM     16  C   UNL     1       1.079   3.566  20.186  0.00  0.00    +0.000 A 
ATOM     17  C   UNL     1       1.939   4.496  19.636  0.00  0.00    +0.000 A 
ATOM     18  O   UNL     1       2.837   3.857  18.823  0.00  0.00    +0.000 OA
ENDBRANCH   7  17
ENDBRANCH   1   9
BRANCH   5  19
ATOM     19  N   UNL     1      -0.149  12.553  20.131  0.00  0.00    +0.000 N 
ATOM     20  C   UNL     1      -0.278  13.233  18.933  0.00  0.00    +0.000 C 
ATOM     21  O   UNL     1      -1.039  12.813  18.066  0.00  0.00    +0.000 OA
ATOM     22  H   UNL     1       0.511  12.908  20.808  0.00  0.00    +0.000 HD
BRANCH  20  23
ATOM     23  C   UNL     1       0.536  14.429  18.791  0.00  0.00    +0.000 A 
ATOM     24  C   UNL     1       0.188  15.771  18.919  0.00  0.00    +0.000 A 
ATOM     25  C   UNL     1       1.334  16.563  18.696  0.00  0.00    +0.000 A 
ATOM     26  C   UNL     1       2.382  15.711  18.426  0.00  0.00    +0.000 A 
ATOM     27  C   UNL     1       3.804  16.045  18.134  0.00  0.00    +0.000 C 
ATOM     28  N   UNL     1       1.890  14.422  18.473  0.00  0.00    +0.000 N 
ATOM     29  C   UNL     1       2.665  13.217  18.229  0.00  0.00    +0.000 C 
ENDBRANCH  20  23
ENDBRANCH   5  19
TORSDOF 4
ENDMDL
