MODEL 1
REMARK VINA RESULT:      -8.6      0.000      0.000
REMARK  Name = 
REMARK  8 active torsions:
REMARK  status: ('A' for Active; 'I' for Inactive)
REMARK    1  A    between atoms: C_1  and  C_2
REMARK    2  A    between atoms: C_2  and  C_3
REMARK    3  A    between atoms: C_2  and  C_26
REMARK    4  A    between atoms: C_3  and  N_4
REMARK    5  A    between atoms: N_4  and  C_5
REMARK    6  A    between atoms: C_9  and  C_10
REMARK    7  A    between atoms: N_16  and  C_17
REMARK    8  A    between atoms: C_21  and  O_22
REMARK                            x       y       z     vdW  Elec       q    Type
REMARK                         _______ _______ _______ _____ _____    ______ ____
ROOT
ATOM      1  C   UNL     1       4.195   5.958  17.345  0.00  0.00    +0.000 A 
ATOM      2  C   UNL     1       3.644   7.236  17.308  0.00  0.00    +0.000 A 
ATOM      3  C   UNL     1       2.747   7.597  18.292  0.00  0.00    +0.000 A 
ATOM      4  C   UNL     1       2.333   6.752  19.309  0.00  0.00    +0.000 A 
ATOM      5  C   UNL     1       2.827   5.455  19.361  0.00  0.00    +0.000 A 
ATOM      6  C   UNL     1       3.762   5.075  18.363  0.00  0.00    +0.000 A 
ATOM      7  C   UNL     1       1.359   7.482  20.180  0.00  0.00    +0.000 C 
ATOM      8  N   UNL     1       1.248   8.791  19.543  0.00  0.00    +0.000 N 
ATOM      9  C   UNL     1       2.077   8.884  18.429  0.00  0.00    +0.000 C 
ATOM     10  O   UNL     1       2.295   9.797  17.652  0.00  0.00    +0.000 OA
ENDROOT
BRANCH   8  11
ATOM     11  C   UNL     1       0.389   9.815  20.018  0.00  0.00    +0.000 A 
ATOM     12  C   UNL     1      -0.449  10.529  19.149  0.00  0.00    +0.000 A 
ATOM     13  C   UNL     1      -1.299  11.537  19.615  0.00  0.00    +0.000 A 
ATOM     14  C   UNL     1      -1.318  11.857  20.968  0.00  0.00    +0.000 A 
ATOM     15  C   UNL     1      -0.490  11.158  21.836  0.00  0.00    +0.000 A 
ATOM     16  C   UNL     1       0.349  10.142  21.379  0.00  0.00    +0.000 A 
BRANCH  15  17
ATOM     17  O   UNL     1      -0.463  11.446  23.170  0.00  0.00    +0.000 OA
ATOM     18  H   UNL     1       0.464  11.559  23.439  0.00  0.00    +0.000 HD
ENDBRANCH  15  17
ENDBRANCH   8  11
BRANCH   5  19
ATOM     19  C   UNL     1       2.391   4.459  20.401  0.00  0.00    +0.000 C 
ATOM     20  F   UNL     1       2.583   4.888  21.679  0.00  0.00    +0.000 F 
ATOM     21  F   UNL     1       1.068   4.153  20.307  0.00  0.00    +0.000 F 
ATOM     22  F   UNL     1       3.059   3.277  20.304  0.00  0.00    +0.000 F 
ENDBRANCH   5  19
BRANCH   1  23
ATOM     23  N   UNL     1       5.066   5.477  16.354  0.00  0.00    +0.000 N 
ATOM     24  H   UNL     1       4.847   4.509  16.126  0.00  0.00    +0.000 HD
BRANCH  23  25
ATOM     25  C   UNL     1       6.498   5.766  16.510  0.00  0.00    +0.000 C 
BRANCH  25  27
ATOM     26  C   UNL     1       7.617   7.843  17.434  0.00  0.00    +0.000 C 
ATOM     27  C   UNL     1       6.803   6.590  17.759  0.00  0.00    +0.000 C 
BRANCH  27  28
ATOM     28  C   UNL     1       7.531   5.701  18.768  0.00  0.00    +0.000 C 
ATOM     29  F   UNL     1       8.029   4.581  18.199  0.00  0.00    +0.000 F 
ATOM     30  F   UNL     1       8.575   6.365  19.317  0.00  0.00    +0.000 F 
ATOM     31  F   UNL     1       6.734   5.304  19.784  0.00  0.00    +0.000 F 
ENDBRANCH  27  28
ENDBRANCH  25  27
ENDBRANCH  23  25
ENDBRANCH   1  23
TORSDOF 7
ENDMDL
MODEL 2
REMARK VINA RESULT:      -8.6      2.763      3.442
REMARK  Name = 
REMARK  8 active torsions:
REMARK  status: ('A' for Active; 'I' for Inactive)
REMARK    1  A    between atoms: C_1  and  C_2
REMARK    2  A    between atoms: C_2  and  C_3
REMARK    3  A    between atoms: C_2  and  C_26
REMARK    4  A    between atoms: C_3  and  N_4
REMARK    5  A    between atoms: N_4  and  C_5
REMARK    6  A    between atoms: C_9  and  C_10
REMARK    7  A    between atoms: N_16  and  C_17
REMARK    8  A    between atoms: C_21  and  O_22
REMARK                            x       y       z     vdW  Elec       q    Type
REMARK                         _______ _______ _______ _____ _____    ______ ____
ROOT
ATOM      1  C   UNL     1       4.385   4.141  17.192  0.00  0.00    +0.000 A 
ATOM      2  C   UNL     1       4.119   5.504  17.288  0.00  0.00    +0.000 A 
ATOM      3  C   UNL     1       3.288   5.946  18.296  0.00  0.00    +0.000 A 
ATOM      4  C   UNL     1       2.672   5.109  19.213  0.00  0.00    +0.000 A 
ATOM      5  C   UNL     1       2.879   3.737  19.130  0.00  0.00    +0.000 A 
ATOM      6  C   UNL     1       3.743   3.272  18.106  0.00  0.00    +0.000 A 
ATOM      7  C   UNL     1       1.847   5.937  20.148  0.00  0.00    +0.000 C 
ATOM      8  N   UNL     1       2.037   7.298  19.654  0.00  0.00    +0.000 N 
ATOM      9  C   UNL     1       2.902   7.325  18.564  0.00  0.00    +0.000 C 
ATOM     10  O   UNL     1       3.332   8.246  17.892  0.00  0.00    +0.000 OA
ENDROOT
BRANCH   8  11
ATOM     11  C   UNL     1       1.399   8.427  20.229  0.00  0.00    +0.000 A 
ATOM     12  C   UNL     1       0.890   9.464  19.432  0.00  0.00    +0.000 A 
ATOM     13  C   UNL     1       0.259  10.577  19.996  0.00  0.00    +0.000 A 
ATOM     14  C   UNL     1       0.133  10.678  21.376  0.00  0.00    +0.000 A 
ATOM     15  C   UNL     1       0.637   9.658  22.174  0.00  0.00    +0.000 A 
ATOM     16  C   UNL     1       1.255   8.539  21.616  0.00  0.00    +0.000 A 
BRANCH  15  17
ATOM     17  O   UNL     1       0.551   9.719  23.534  0.00  0.00    +0.000 OA
ATOM     18  H   UNL     1       0.697   8.827  23.890  0.00  0.00    +0.000 HD
ENDBRANCH  15  17
ENDBRANCH   8  11
BRANCH   5  19
ATOM     19  C   UNL     1       2.208   2.756  20.053  0.00  0.00    +0.000 C 
ATOM     20  F   UNL     1       2.696   2.785  21.324  0.00  0.00    +0.000 F 
ATOM     21  F   UNL     1       0.870   2.976  20.164  0.00  0.00    +0.000 F 
ATOM     22  F   UNL     1       2.345   1.469  19.634  0.00  0.00    +0.000 F 
ENDBRANCH   5  19
BRANCH   1  23
ATOM     23  N   UNL     1       5.167   3.589  16.163  0.00  0.00    +0.000 N 
ATOM     24  H   UNL     1       6.078   3.310  16.520  0.00  0.00    +0.000 HD
BRANCH  23  25
ATOM     25  C   UNL     1       5.196   4.298  14.878  0.00  0.00    +0.000 C 
BRANCH  25  27
ATOM     26  C   UNL     1       7.437   5.021  13.942  0.00  0.00    +0.000 C 
ATOM     27  C   UNL     1       6.391   3.907  14.012  0.00  0.00    +0.000 C 
BRANCH  27  28
ATOM     28  C   UNL     1       5.886   3.530  12.619  0.00  0.00    +0.000 C 
ATOM     29  F   UNL     1       4.586   3.853  12.440  0.00  0.00    +0.000 F 
ATOM     30  F   UNL     1       6.592   4.184  11.667  0.00  0.00    +0.000 F 
ATOM     31  F   UNL     1       6.001   2.209  12.361  0.00  0.00    +0.000 F 
ENDBRANCH  27  28
ENDBRANCH  25  27
ENDBRANCH  23  25
ENDBRANCH   1  23
TORSDOF 7
ENDMDL
MODEL 3
REMARK VINA RESULT:      -8.5      1.386      1.955
REMARK  Name = 
REMARK  8 active torsions:
REMARK  status: ('A' for Active; 'I' for Inactive)
REMARK    1  A    between atoms: C_1  and  C_2
REMARK    2  A    between atoms: C_2  and  C_3
REMARK    3  A    between atoms: C_2  and  C_26
REMARK    4  A    between atoms: C_3  and  N_4
REMARK    5  A    between atoms: N_4  and  C_5
REMARK    6  A    between atoms: C_9  and  C_10
REMARK    7  A    between atoms: N_16  and  C_17
REMARK    8  A    between atoms: C_21  and  O_22
REMARK                            x       y       z     vdW  Elec       q    Type
REMARK                         _______ _______ _______ _____ _____    ______ ____
ROOT
ATOM      1  C   UNL     1       3.814   5.235  17.760  0.00  0.00    +0.000 A 
ATOM      2  C   UNL     1       3.357   6.545  17.878  0.00  0.00    +0.000 A 
ATOM      3  C   UNL     1       2.565   6.874  18.959  0.00  0.00    +0.000 A 
ATOM      4  C   UNL     1       2.167   5.969  19.929  0.00  0.00    +0.000 A 
ATOM      5  C   UNL     1       2.567   4.642  19.830  0.00  0.00    +0.000 A 
ATOM      6  C   UNL     1       3.395   4.295  18.731  0.00  0.00    +0.000 A 
ATOM      7  C   UNL     1       1.317   6.680  20.936  0.00  0.00    +0.000 C 
ATOM      8  N   UNL     1       1.255   8.046  20.424  0.00  0.00    +0.000 N 
ATOM      9  C   UNL     1       2.003   8.184  19.259  0.00  0.00    +0.000 C 
ATOM     10  O   UNL     1       2.228   9.149  18.549  0.00  0.00    +0.000 OA
ENDROOT
BRANCH   8  11
ATOM     11  C   UNL     1       0.511   9.076  21.054  0.00  0.00    +0.000 A 
ATOM     12  C   UNL     1       0.325   9.098  22.445  0.00  0.00    +0.000 A 
ATOM     13  C   UNL     1      -0.406  10.114  23.069  0.00  0.00    +0.000 A 
ATOM     14  C   UNL     1      -0.976  11.127  22.307  0.00  0.00    +0.000 A 
ATOM     15  C   UNL     1      -0.801  11.112  20.929  0.00  0.00    +0.000 A 
ATOM     16  C   UNL     1      -0.060  10.109  20.303  0.00  0.00    +0.000 A 
BRANCH  15  17
ATOM     17  O   UNL     1      -1.354  12.076  20.138  0.00  0.00    +0.000 OA
ATOM     18  H   UNL     1      -2.080  12.495  20.628  0.00  0.00    +0.000 HD
ENDBRANCH  15  17
ENDBRANCH   8  11
BRANCH   5  19
ATOM     19  C   UNL     1       2.138   3.587  20.812  0.00  0.00    +0.000 C 
ATOM     20  F   UNL     1       2.478   3.872  22.099  0.00  0.00    +0.000 F 
ATOM     21  F   UNL     1       0.791   3.398  20.818  0.00  0.00    +0.000 F 
ATOM     22  F   UNL     1       2.688   2.371  20.544  0.00  0.00    +0.000 F 
ENDBRANCH   5  19
BRANCH   1  23
ATOM     23  N   UNL     1       4.571   4.790  16.664  0.00  0.00    +0.000 N 
ATOM     24  H   UNL     1       5.056   3.925  16.895  0.00  0.00    +0.000 HD
BRANCH  23  25
ATOM     25  C   UNL     1       5.386   5.784  15.953  0.00  0.00    +0.000 C 
BRANCH  25  27
ATOM     26  C   UNL     1       7.287   4.428  16.935  0.00  0.00    +0.000 C 
ATOM     27  C   UNL     1       6.843   5.794  16.410  0.00  0.00    +0.000 C 
BRANCH  27  28
ATOM     28  C   UNL     1       7.017   6.880  17.472  0.00  0.00    +0.000 C 
ATOM     29  F   UNL     1       6.106   7.871  17.346  0.00  0.00    +0.000 F 
ATOM     30  F   UNL     1       6.868   6.358  18.712  0.00  0.00    +0.000 F 
ATOM     31  F   UNL     1       8.236   7.461  17.429  0.00  0.00    +0.000 F 
ENDBRANCH  27  28
ENDBRANCH  25  27
ENDBRANCH  23  25
ENDBRANCH   1  23
TORSDOF 7
ENDMDL
MODEL 4
REMARK VINA RESULT:      -8.5      2.357      2.906
REMARK  Name = 
REMARK  8 active torsions:
REMARK  status: ('A' for Active; 'I' for Inactive)
REMARK    1  A    between atoms: C_1  and  C_2
REMARK    2  A    between atoms: C_2  and  C_3
REMARK    3  A    between atoms: C_2  and  C_26
REMARK    4  A    between atoms: C_3  and  N_4
REMARK    5  A    between atoms: N_4  and  C_5
REMARK    6  A    between atoms: C_9  and  C_10
REMARK    7  A    between atoms: N_16  and  C_17
REMARK    8  A    between atoms: C_21  and  O_22
REMARK                            x       y       z     vdW  Elec       q    Type
REMARK                         _______ _______ _______ _____ _____    ______ ____
ROOT
ATOM      1  C   UNL     1       4.088   4.079  18.046  0.00  0.00    +0.000 A 
ATOM      2  C   UNL     1       3.802   5.434  17.901  0.00  0.00    +0.000 A 
ATOM      3  C   UNL     1       2.996   6.043  18.840  0.00  0.00    +0.000 A 
ATOM      4  C   UNL     1       2.423   5.380  19.914  0.00  0.00    +0.000 A 
ATOM      5  C   UNL     1       2.650   4.019  20.075  0.00  0.00    +0.000 A 
ATOM      6  C   UNL     1       3.490   3.384  19.124  0.00  0.00    +0.000 A 
ATOM      7  C   UNL     1       1.614   6.356  20.710  0.00  0.00    +0.000 C 
ATOM      8  N   UNL     1       1.764   7.606  19.971  0.00  0.00    +0.000 N 
ATOM      9  C   UNL     1       2.594   7.443  18.866  0.00  0.00    +0.000 C 
ATOM     10  O   UNL     1       2.988   8.231  18.023  0.00  0.00    +0.000 OA
ENDROOT
BRANCH   8  11
ATOM     11  C   UNL     1       1.126   8.814  20.352  0.00  0.00    +0.000 A 
ATOM     12  C   UNL     1       0.821   9.809  19.411  0.00  0.00    +0.000 A 
ATOM     13  C   UNL     1       0.190  10.999  19.783  0.00  0.00    +0.000 A 
ATOM     14  C   UNL     1      -0.142  11.221  21.115  0.00  0.00    +0.000 A 
ATOM     15  C   UNL     1       0.159  10.244  22.055  0.00  0.00    +0.000 A 
ATOM     16  C   UNL     1       0.776   9.048  21.687  0.00  0.00    +0.000 A 
BRANCH  15  17
ATOM     17  O   UNL     1      -0.133  10.422  23.376  0.00  0.00    +0.000 OA
ATOM     18  H   UNL     1       0.457  11.108  23.729  0.00  0.00    +0.000 HD
ENDBRANCH  15  17
ENDBRANCH   8  11
BRANCH   5  19
ATOM     19  C   UNL     1       2.026   3.215  21.183  0.00  0.00    +0.000 C 
ATOM     20  F   UNL     1       2.311   3.691  22.427  0.00  0.00    +0.000 F 
ATOM     21  F   UNL     1       0.668   3.182  21.101  0.00  0.00    +0.000 F 
ATOM     22  F   UNL     1       2.435   1.918  21.180  0.00  0.00    +0.000 F 
ENDBRANCH   5  19
BRANCH   1  23
ATOM     23  N   UNL     1       4.846   3.358  17.109  0.00  0.00    +0.000 N 
ATOM     24  H   UNL     1       5.740   3.083  17.511  0.00  0.00    +0.000 HD
BRANCH  23  25
ATOM     25  C   UNL     1       4.919   3.888  15.741  0.00  0.00    +0.000 C 
BRANCH  25  27
ATOM     26  C   UNL     1       7.199   4.991  15.809  0.00  0.00    +0.000 C 
ATOM     27  C   UNL     1       6.340   3.892  15.182  0.00  0.00    +0.000 C 
BRANCH  27  28
ATOM     28  C   UNL     1       6.269   4.042  13.662  0.00  0.00    +0.000 C 
ATOM     29  F   UNL     1       6.554   2.888  13.019  0.00  0.00    +0.000 F 
ATOM     30  F   UNL     1       5.024   4.412  13.281  0.00  0.00    +0.000 F 
ATOM     31  F   UNL     1       7.124   4.976  13.189  0.00  0.00    +0.000 F 
ENDBRANCH  27  28
ENDBRANCH  25  27
ENDBRANCH  23  25
ENDBRANCH   1  23
TORSDOF 7
ENDMDL
MODEL 5
REMARK VINA RESULT:      -8.5      2.737      3.467
REMARK  Name = 
REMARK  8 active torsions:
REMARK  status: ('A' for Active; 'I' for Inactive)
REMARK    1  A    between atoms: C_1  and  C_2
REMARK    2  A    between atoms: C_2  and  C_3
REMARK    3  A    between atoms: C_2  and  C_26
REMARK    4  A    between atoms: C_3  and  N_4
REMARK    5  A    between atoms: N_4  and  C_5
REMARK    6  A    between atoms: C_9  and  C_10
REMARK    7  A    between atoms: N_16  and  C_17
REMARK    8  A    between atoms: C_21  and  O_22
REMARK                            x       y       z     vdW  Elec       q    Type
REMARK                         _______ _______ _______ _____ _____    ______ ____
ROOT
ATOM      1  C   UNL     1       4.475   4.169  17.285  0.00  0.00    +0.000 A 
ATOM      2  C   UNL     1       4.186   5.529  17.350  0.00  0.00    +0.000 A 
ATOM      3  C   UNL     1       3.332   5.976  18.337  0.00  0.00    +0.000 A 
ATOM      4  C   UNL     1       2.715   5.146  19.259  0.00  0.00    +0.000 A 
ATOM      5  C   UNL     1       2.944   3.777  19.206  0.00  0.00    +0.000 A 
ATOM      6  C   UNL     1       3.833   3.307  18.204  0.00  0.00    +0.000 A 
ATOM      7  C   UNL     1       1.861   5.978  20.165  0.00  0.00    +0.000 C 
ATOM      8  N   UNL     1       2.036   7.333  19.648  0.00  0.00    +0.000 N 
ATOM      9  C   UNL     1       2.919   7.353  18.572  0.00  0.00    +0.000 C 
ATOM     10  O   UNL     1       3.345   8.269  17.889  0.00  0.00    +0.000 OA
ENDROOT
BRANCH   8  11
ATOM     11  C   UNL     1       1.371   8.461  20.192  0.00  0.00    +0.000 A 
ATOM     12  C   UNL     1       0.843   9.466  19.366  0.00  0.00    +0.000 A 
ATOM     13  C   UNL     1       0.185  10.579  19.899  0.00  0.00    +0.000 A 
ATOM     14  C   UNL     1       0.051  10.712  21.276  0.00  0.00    +0.000 A 
ATOM     15  C   UNL     1       0.573   9.725  22.101  0.00  0.00    +0.000 A 
ATOM     16  C   UNL     1       1.218   8.605  21.575  0.00  0.00    +0.000 A 
BRANCH  15  17
ATOM     17  O   UNL     1       0.480   9.819  23.459  0.00  0.00    +0.000 OA
ATOM     18  H   UNL     1       0.082   8.999  23.796  0.00  0.00    +0.000 HD
ENDBRANCH  15  17
ENDBRANCH   8  11
BRANCH   5  19
ATOM     19  C   UNL     1       2.275   2.803  20.136  0.00  0.00    +0.000 C 
ATOM     20  F   UNL     1       0.927   2.976  20.226  0.00  0.00    +0.000 F 
ATOM     21  F   UNL     1       2.458   1.510  19.755  0.00  0.00    +0.000 F 
ATOM     22  F   UNL     1       2.745   2.891  21.410  0.00  0.00    +0.000 F 
ENDBRANCH   5  19
BRANCH   1  23
ATOM     23  N   UNL     1       5.282   3.612  16.279  0.00  0.00    +0.000 N 
ATOM     24  H   UNL     1       6.236   3.492  16.615  0.00  0.00    +0.000 HD
BRANCH  23  25
ATOM     25  C   UNL     1       5.168   4.172  14.927  0.00  0.00    +0.000 C 
BRANCH  25  27
ATOM     26  C   UNL     1       7.386   5.039  14.063  0.00  0.00    +0.000 C 
ATOM     27  C   UNL     1       6.389   3.880  14.058  0.00  0.00    +0.000 C 
BRANCH  27  28
ATOM     28  C   UNL     1       5.917   3.559  12.640  0.00  0.00    +0.000 C 
ATOM     29  F   UNL     1       6.035   2.245  12.345  0.00  0.00    +0.000 F 
ATOM     30  F   UNL     1       4.612   3.885  12.491  0.00  0.00    +0.000 F 
ATOM     31  F   UNL     1       6.606   4.236  11.695  0.00  0.00    +0.000 F 
ENDBRANCH  27  28
ENDBRANCH  25  27
ENDBRANCH  23  25
ENDBRANCH   1  23
TORSDOF 7
ENDMDL
MODEL 6
REMARK VINA RESULT:      -8.5      0.585      1.161
REMARK  Name = 
REMARK  8 active torsions:
REMARK  status: ('A' for Active; 'I' for Inactive)
REMARK    1  A    between atoms: C_1  and  C_2
REMARK    2  A    between atoms: C_2  and  C_3
REMARK    3  A    between atoms: C_2  and  C_26
REMARK    4  A    between atoms: C_3  and  N_4
REMARK    5  A    between atoms: N_4  and  C_5
REMARK    6  A    between atoms: C_9  and  C_10
REMARK    7  A    between atoms: N_16  and  C_17
REMARK    8  A    between atoms: C_21  and  O_22
REMARK                            x       y       z     vdW  Elec       q    Type
REMARK                         _______ _______ _______ _____ _____    ______ ____
ROOT
ATOM      1  C   UNL     1       4.153   5.923  17.474  0.00  0.00    +0.000 A 
ATOM      2  C   UNL     1       3.664   7.218  17.327  0.00  0.00    +0.000 A 
ATOM      3  C   UNL     1       2.745   7.685  18.243  0.00  0.00    +0.000 A 
ATOM      4  C   UNL     1       2.251   6.931  19.296  0.00  0.00    +0.000 A 
ATOM      5  C   UNL     1       2.683   5.621  19.458  0.00  0.00    +0.000 A 
ATOM      6  C   UNL     1       3.640   5.133  18.530  0.00  0.00    +0.000 A 
ATOM      7  C   UNL     1       1.276   7.762  20.072  0.00  0.00    +0.000 C 
ATOM      8  N   UNL     1       1.252   9.026  19.343  0.00  0.00    +0.000 N 
ATOM      9  C   UNL     1       2.129   9.005  18.263  0.00  0.00    +0.000 C 
ATOM     10  O   UNL     1       2.419   9.852  17.436  0.00  0.00    +0.000 OA
ENDROOT
BRANCH   8  11
ATOM     11  C   UNL     1       0.421  10.116  19.710  0.00  0.00    +0.000 A 
ATOM     12  C   UNL     1      -0.818  10.333  19.087  0.00  0.00    +0.000 A 
ATOM     13  C   UNL     1      -1.639  11.406  19.449  0.00  0.00    +0.000 A 
ATOM     14  C   UNL     1      -1.229  12.291  20.439  0.00  0.00    +0.000 A 
ATOM     15  C   UNL     1      -0.003  12.086  21.058  0.00  0.00    +0.000 A 
ATOM     16  C   UNL     1       0.814  11.010  20.712  0.00  0.00    +0.000 A 
BRANCH  15  17
ATOM     17  O   UNL     1       0.449  12.937  22.025  0.00  0.00    +0.000 OA
ATOM     18  H   UNL     1      -0.235  13.013  22.710  0.00  0.00    +0.000 HD
ENDBRANCH  15  17
ENDBRANCH   8  11
BRANCH   5  19
ATOM     19  C   UNL     1       2.159   4.719  20.543  0.00  0.00    +0.000 C 
ATOM     20  F   UNL     1       2.641   3.447  20.471  0.00  0.00    +0.000 F 
ATOM     21  F   UNL     1       2.474   5.165  21.788  0.00  0.00    +0.000 F 
ATOM     22  F   UNL     1       0.804   4.603  20.515  0.00  0.00    +0.000 F 
ENDBRANCH   5  19
BRANCH   1  23
ATOM     23  N   UNL     1       5.042   5.337  16.557  0.00  0.00    +0.000 N 
ATOM     24  H   UNL     1       4.977   4.322  16.598  0.00  0.00    +0.000 HD
BRANCH  23  25
ATOM     25  C   UNL     1       6.410   5.868  16.504  0.00  0.00    +0.000 C 
BRANCH  25  27
ATOM     26  C   UNL     1       7.695   7.825  17.474  0.00  0.00    +0.000 C 
ATOM     27  C   UNL     1       6.805   6.619  17.774  0.00  0.00    +0.000 C 
BRANCH  27  28
ATOM     28  C   UNL     1       7.495   5.642  18.727  0.00  0.00    +0.000 C 
ATOM     29  F   UNL     1       6.671   5.215  19.710  0.00  0.00    +0.000 F 
ATOM     30  F   UNL     1       7.915   4.544  18.057  0.00  0.00    +0.000 F 
ATOM     31  F   UNL     1       8.579   6.179  19.330  0.00  0.00    +0.000 F 
ENDBRANCH  27  28
ENDBRANCH  25  27
ENDBRANCH  23  25
ENDBRANCH   1  23
TORSDOF 7
ENDMDL
MODEL 7
REMARK VINA RESULT:      -8.5      0.979      1.660
REMARK  Name = 
REMARK  8 active torsions:
REMARK  status: ('A' for Active; 'I' for Inactive)
REMARK    1  A    between atoms: C_1  and  C_2
REMARK    2  A    between atoms: C_2  and  C_3
REMARK    3  A    between atoms: C_2  and  C_26
REMARK    4  A    between atoms: C_3  and  N_4
REMARK    5  A    between atoms: N_4  and  C_5
REMARK    6  A    between atoms: C_9  and  C_10
REMARK    7  A    between atoms: N_16  and  C_17
REMARK    8  A    between atoms: C_21  and  O_22
REMARK                            x       y       z     vdW  Elec       q    Type
REMARK                         _______ _______ _______ _____ _____    ______ ____
ROOT
ATOM      1  C   UNL     1       4.080   5.976  17.489  0.00  0.00    +0.000 A 
ATOM      2  C   UNL     1       3.592   7.276  17.389  0.00  0.00    +0.000 A 
ATOM      3  C   UNL     1       2.691   7.719  18.335  0.00  0.00    +0.000 A 
ATOM      4  C   UNL     1       2.214   6.936  19.374  0.00  0.00    +0.000 A 
ATOM      5  C   UNL     1       2.645   5.621  19.490  0.00  0.00    +0.000 A 
ATOM      6  C   UNL     1       3.583   5.158  18.531  0.00  0.00    +0.000 A 
ATOM      7  C   UNL     1       1.256   7.747  20.192  0.00  0.00    +0.000 C 
ATOM      8  N   UNL     1       1.223   9.032  19.500  0.00  0.00    +0.000 N 
ATOM      9  C   UNL     1       2.080   9.040  18.404  0.00  0.00    +0.000 C 
ATOM     10  O   UNL     1       2.359   9.910  17.597  0.00  0.00    +0.000 OA
ENDROOT
BRANCH   8  11
ATOM     11  C   UNL     1       0.403  10.113  19.914  0.00  0.00    +0.000 A 
ATOM     12  C   UNL     1       0.475  10.629  21.217  0.00  0.00    +0.000 A 
ATOM     13  C   UNL     1      -0.331  11.695  21.627  0.00  0.00    +0.000 A 
ATOM     14  C   UNL     1      -1.236  12.263  20.738  0.00  0.00    +0.000 A 
ATOM     15  C   UNL     1      -1.317  11.758  19.447  0.00  0.00    +0.000 A 
ATOM     16  C   UNL     1      -0.505  10.703  19.028  0.00  0.00    +0.000 A 
BRANCH  15  17
ATOM     17  O   UNL     1      -2.200  12.272  18.542  0.00  0.00    +0.000 OA
ATOM     18  H   UNL     1      -1.777  12.272  17.668  0.00  0.00    +0.000 HD
ENDBRANCH  15  17
ENDBRANCH   8  11
BRANCH   5  19
ATOM     19  C   UNL     1       2.138   4.689  20.557  0.00  0.00    +0.000 C 
ATOM     20  F   UNL     1       2.616   3.420  20.442  0.00  0.00    +0.000 F 
ATOM     21  F   UNL     1       2.474   5.100  21.810  0.00  0.00    +0.000 F 
ATOM     22  F   UNL     1       0.782   4.576  20.549  0.00  0.00    +0.000 F 
ENDBRANCH   5  19
BRANCH   1  23
ATOM     23  N   UNL     1       4.950   5.415  16.540  0.00  0.00    +0.000 N 
ATOM     24  H   UNL     1       4.903   4.399  16.572  0.00  0.00    +0.000 HD
BRANCH  23  25
ATOM     25  C   UNL     1       6.307   5.970  16.451  0.00  0.00    +0.000 C 
BRANCH  25  27
ATOM     26  C   UNL     1       7.655   7.857  17.470  0.00  0.00    +0.000 C 
ATOM     27  C   UNL     1       6.754   6.652  17.742  0.00  0.00    +0.000 C 
BRANCH  27  28
ATOM     28  C   UNL     1       7.458   5.620  18.624  0.00  0.00    +0.000 C 
ATOM     29  F   UNL     1       8.533   6.136  19.260  0.00  0.00    +0.000 F 
ATOM     30  F   UNL     1       6.615   5.159  19.577  0.00  0.00    +0.000 F 
ATOM     31  F   UNL     1       7.893   4.548  17.926  0.00  0.00    +0.000 F 
ENDBRANCH  27  28
ENDBRANCH  25  27
ENDBRANCH  23  25
ENDBRANCH   1  23
TORSDOF 7
ENDMDL
MODEL 8
REMARK VINA RESULT:      -8.5      1.265      1.670
REMARK  Name = 
REMARK  8 active torsions:
REMARK  status: ('A' for Active; 'I' for Inactive)
REMARK    1  A    between atoms: C_1  and  C_2
REMARK    2  A    between atoms: C_2  and  C_3
REMARK    3  A    between atoms: C_2  and  C_26
REMARK    4  A    between atoms: C_3  and  N_4
REMARK    5  A    between atoms: N_4  and  C_5
REMARK    6  A    between atoms: C_9  and  C_10
REMARK    7  A    between atoms: N_16  and  C_17
REMARK    8  A    between atoms: C_21  and  O_22
REMARK                            x       y       z     vdW  Elec       q    Type
REMARK                         _______ _______ _______ _____ _____    ______ ____
ROOT
ATOM      1  C   UNL     1       3.605   4.468  17.563  0.00  0.00    +0.000 A 
ATOM      2  C   UNL     1       3.313   5.829  17.526  0.00  0.00    +0.000 A 
ATOM      3  C   UNL     1       2.651   6.392  18.598  0.00  0.00    +0.000 A 
ATOM      4  C   UNL     1       2.229   5.677  19.708  0.00  0.00    +0.000 A 
ATOM      5  C   UNL     1       2.466   4.310  19.769  0.00  0.00    +0.000 A 
ATOM      6  C   UNL     1       3.159   3.721  18.679  0.00  0.00    +0.000 A 
ATOM      7  C   UNL     1       1.547   6.613  20.657  0.00  0.00    +0.000 C 
ATOM      8  N   UNL     1       1.603   7.898  19.965  0.00  0.00    +0.000 N 
ATOM      9  C   UNL     1       2.268   7.789  18.748  0.00  0.00    +0.000 C 
ATOM     10  O   UNL     1       2.546   8.617  17.897  0.00  0.00    +0.000 OA
ENDROOT
BRANCH   8  11
ATOM     11  C   UNL     1       1.033   9.086  20.491  0.00  0.00    +0.000 A 
ATOM     12  C   UNL     1       0.864  10.230  19.696  0.00  0.00    +0.000 A 
ATOM     13  C   UNL     1       0.301  11.401  20.211  0.00  0.00    +0.000 A 
ATOM     14  C   UNL     1      -0.096  11.454  21.542  0.00  0.00    +0.000 A 
ATOM     15  C   UNL     1       0.071  10.328  22.338  0.00  0.00    +0.000 A 
ATOM     16  C   UNL     1       0.619   9.152  21.826  0.00  0.00    +0.000 A 
BRANCH  15  17
ATOM     17  O   UNL     1      -0.290  10.335  23.654  0.00  0.00    +0.000 OA
ATOM     18  H   UNL     1      -1.236  10.547  23.710  0.00  0.00    +0.000 HD
ENDBRANCH  15  17
ENDBRANCH   8  11
BRANCH   5  19
ATOM     19  C   UNL     1       1.997   3.453  20.913  0.00  0.00    +0.000 C 
ATOM     20  F   UNL     1       2.435   3.882  22.129  0.00  0.00    +0.000 F 
ATOM     21  F   UNL     1       0.640   3.402  21.005  0.00  0.00    +0.000 F 
ATOM     22  F   UNL     1       2.416   2.163  20.804  0.00  0.00    +0.000 F 
ENDBRANCH   5  19
BRANCH   1  23
ATOM     23  N   UNL     1       4.219   3.793  16.495  0.00  0.00    +0.000 N 
ATOM     24  H   UNL     1       3.700   2.948  16.263  0.00  0.00    +0.000 HD
BRANCH  23  25
ATOM     25  C   UNL     1       5.677   3.630  16.543  0.00  0.00    +0.000 C 
BRANCH  25  27
ATOM     26  C   UNL     1       7.249   4.988  15.092  0.00  0.00    +0.000 C 
ATOM     27  C   UNL     1       6.427   4.950  16.381  0.00  0.00    +0.000 C 
BRANCH  27  28
ATOM     28  C   UNL     1       7.311   5.166  17.610  0.00  0.00    +0.000 C 
ATOM     29  F   UNL     1       7.919   6.373  17.599  0.00  0.00    +0.000 F 
ATOM     30  F   UNL     1       6.572   5.104  18.741  0.00  0.00    +0.000 F 
ATOM     31  F   UNL     1       8.286   4.237  17.721  0.00  0.00    +0.000 F 
ENDBRANCH  27  28
ENDBRANCH  25  27
ENDBRANCH  23  25
ENDBRANCH   1  23
TORSDOF 7
ENDMDL
MODEL 9
REMARK VINA RESULT:      -8.5      0.941      1.471
REMARK  Name = 
REMARK  8 active torsions:
REMARK  status: ('A' for Active; 'I' for Inactive)
REMARK    1  A    between atoms: C_1  and  C_2
REMARK    2  A    between atoms: C_2  and  C_3
REMARK    3  A    between atoms: C_2  and  C_26
REMARK    4  A    between atoms: C_3  and  N_4
REMARK    5  A    between atoms: N_4  and  C_5
REMARK    6  A    between atoms: C_9  and  C_10
REMARK    7  A    between atoms: N_16  and  C_17
REMARK    8  A    between atoms: C_21  and  O_22
REMARK                            x       y       z     vdW  Elec       q    Type
REMARK                         _______ _______ _______ _____ _____    ______ ____
ROOT
ATOM      1  C   UNL     1       4.153   6.052  17.338  0.00  0.00    +0.000 A 
ATOM      2  C   UNL     1       3.642   7.345  17.274  0.00  0.00    +0.000 A 
ATOM      3  C   UNL     1       2.749   7.752  18.244  0.00  0.00    +0.000 A 
ATOM      4  C   UNL     1       2.303   6.938  19.273  0.00  0.00    +0.000 A 
ATOM      5  C   UNL     1       2.757   5.628  19.353  0.00  0.00    +0.000 A 
ATOM      6  C   UNL     1       3.687   5.203  18.369  0.00  0.00    +0.000 A 
ATOM      7  C   UNL     1       1.344   7.714  20.123  0.00  0.00    +0.000 C 
ATOM      8  N   UNL     1       1.278   9.013  19.461  0.00  0.00    +0.000 N 
ATOM      9  C   UNL     1       2.117   9.060  18.352  0.00  0.00    +0.000 C 
ATOM     10  O   UNL     1       2.367   9.952  17.560  0.00  0.00    +0.000 OA
ENDROOT
BRANCH   8  11
ATOM     11  C   UNL     1       0.446  10.071  19.911  0.00  0.00    +0.000 A 
ATOM     12  C   UNL     1       0.523  10.551  21.227  0.00  0.00    +0.000 A 
ATOM     13  C   UNL     1      -0.294  11.595  21.673  0.00  0.00    +0.000 A 
ATOM     14  C   UNL     1      -1.215  12.173  20.808  0.00  0.00    +0.000 A 
ATOM     15  C   UNL     1      -1.301  11.702  19.504  0.00  0.00    +0.000 A 
ATOM     16  C   UNL     1      -0.479  10.671  19.049  0.00  0.00    +0.000 A 
BRANCH  15  17
ATOM     17  O   UNL     1      -2.200  12.227  18.622  0.00  0.00    +0.000 OA
ATOM     18  H   UNL     1      -3.095  12.040  18.950  0.00  0.00    +0.000 HD
ENDBRANCH  15  17
ENDBRANCH   8  11
BRANCH   5  19
ATOM     19  C   UNL     1       2.283   4.665  20.407  0.00  0.00    +0.000 C 
ATOM     20  F   UNL     1       2.507   5.099  21.679  0.00  0.00    +0.000 F 
ATOM     21  F   UNL     1       0.947   4.422  20.328  0.00  0.00    +0.000 F 
ATOM     22  F   UNL     1       2.894   3.452  20.318  0.00  0.00    +0.000 F 
ENDBRANCH   5  19
BRANCH   1  23
ATOM     23  N   UNL     1       5.017   5.527  16.363  0.00  0.00    +0.000 N 
ATOM     24  H   UNL     1       4.795   4.551  16.179  0.00  0.00    +0.000 HD
BRANCH  23  25
ATOM     25  C   UNL     1       6.450   5.820  16.497  0.00  0.00    +0.000 C 
BRANCH  25  27
ATOM     26  C   UNL     1       7.623   7.851  17.456  0.00  0.00    +0.000 C 
ATOM     27  C   UNL     1       6.778   6.614  17.760  0.00  0.00    +0.000 C 
BRANCH  27  28
ATOM     28  C   UNL     1       7.485   5.688  18.751  0.00  0.00    +0.000 C 
ATOM     29  F   UNL     1       6.669   5.291  19.753  0.00  0.00    +0.000 F 
ATOM     30  F   UNL     1       7.919   4.569  18.126  0.00  0.00    +0.000 F 
ATOM     31  F   UNL     1       8.562   6.266  19.327  0.00  0.00    +0.000 F 
ENDBRANCH  27  28
ENDBRANCH  25  27
ENDBRANCH  23  25
ENDBRANCH   1  23
TORSDOF 7
ENDMDL
