MODEL 1
REMARK VINA RESULT:      -9.0      0.000      0.000
REMARK  Name = 
REMARK  6 active torsions:
REMARK  status: ('A' for Active; 'I' for Inactive)
REMARK    1  A    between atoms: C_1  and  C_2
REMARK    2  A    between atoms: C_5  and  C_6
REMARK    3  A    between atoms: C_10  and  N_11
REMARK    4  A    between atoms: C_12  and  C_14
REMARK    5  A    between atoms: N_19  and  C_20
REMARK    6  A    between atoms: N_28  and  C_29
REMARK                            x       y       z     vdW  Elec       q    Type
REMARK                         _______ _______ _______ _____ _____    ______ ____
ROOT
ATOM      1  N   UNL     1       1.725   8.581  18.855  0.00  0.00    +0.000 N 
ATOM      2  C   UNL     1       1.796   7.832  20.019  0.00  0.00    +0.000 C 
ATOM      3  O   UNL     1       1.405   8.135  21.140  0.00  0.00    +0.000 OA
ATOM      4  H   UNL     1       2.189   8.184  18.046  0.00  0.00    +0.000 HD
ENDROOT
BRANCH   2   5
ATOM      5  C   UNL     1       2.381   6.432  19.849  0.00  0.00    +0.000 A 
ATOM      6  C   UNL     1       1.760   5.398  20.696  0.00  0.00    +0.000 A 
ATOM      7  C   UNL     1       2.194   4.153  20.535  0.00  0.00    +0.000 A 
ATOM      8  C   UNL     1       3.261   3.826  19.565  0.00  0.00    +0.000 A 
ATOM      9  O   UNL     1       3.572   2.640  19.492  0.00  0.00    +0.000 OA
ATOM     10  N   UNL     1       3.819   4.915  18.874  0.00  0.00    +0.000 N 
ATOM     11  N   UNL     1       3.344   6.229  19.005  0.00  0.00    +0.000 NA
BRANCH  10  12
ATOM     12  C   UNL     1       4.929   4.779  17.966  0.00  0.00    +0.000 A 
ATOM     13  C   UNL     1       6.265   4.913  18.379  0.00  0.00    +0.000 A 
ATOM     14  C   UNL     1       7.327   4.788  17.476  0.00  0.00    +0.000 A 
ATOM     15  C   UNL     1       7.077   4.533  16.133  0.00  0.00    +0.000 A 
ATOM     16  C   UNL     1       5.764   4.400  15.696  0.00  0.00    +0.000 A 
ATOM     17  C   UNL     1       4.703   4.514  16.604  0.00  0.00    +0.000 A 
ENDBRANCH  10  12
ENDBRANCH   2   5
BRANCH   1  22
ATOM     18  C   UNL     1      -0.989  11.022  18.057  0.00  0.00    +0.000 A 
ATOM     19  C   UNL     1      -0.375  12.221  18.453  0.00  0.00    +0.000 A 
ATOM     20  C   UNL     1       0.917  12.233  18.960  0.00  0.00    +0.000 A 
ATOM     21  C   UNL     1       1.619  11.037  19.086  0.00  0.00    +0.000 A 
ATOM     22  C   UNL     1       1.048   9.820  18.702  0.00  0.00    +0.000 A 
ATOM     23  C   UNL     1      -0.257   9.823  18.169  0.00  0.00    +0.000 A 
BRANCH  18  28
ATOM     24  C   UNL     1      -5.841  12.122  17.232  0.00  0.00    +0.000 C 
ATOM     25  C   UNL     1      -4.453  11.632  17.076  0.00  0.00    +0.000 A 
ATOM     26  N   UNL     1      -3.929  11.148  15.975  0.00  0.00    +0.000 NA
ATOM     27  N   UNL     1      -2.623  10.842  16.232  0.00  0.00    +0.000 NA
ATOM     28  C   UNL     1      -2.343  11.131  17.494  0.00  0.00    +0.000 A 
ATOM     29  N   UNL     1      -3.494  11.628  18.067  0.00  0.00    +0.000 N 
ATOM     30  C   UNL     1      -3.703  12.142  19.394  0.00  0.00    +0.000 C 
ENDBRANCH  18  28
ENDBRANCH   1  22
TORSDOF 4
ENDMDL
MODEL 2
REMARK VINA RESULT:      -8.9      0.715      1.237
REMARK  Name = 
REMARK  6 active torsions:
REMARK  status: ('A' for Active; 'I' for Inactive)
REMARK    1  A    between atoms: C_1  and  C_2
REMARK    2  A    between atoms: C_5  and  C_6
REMARK    3  A    between atoms: C_10  and  N_11
REMARK    4  A    between atoms: C_12  and  C_14
REMARK    5  A    between atoms: N_19  and  C_20
REMARK    6  A    between atoms: N_28  and  C_29
REMARK                            x       y       z     vdW  Elec       q    Type
REMARK                         _______ _______ _______ _____ _____    ______ ____
ROOT
ATOM      1  N   UNL     1       1.817   8.820  18.808  0.00  0.00    +0.000 N 
ATOM      2  C   UNL     1       1.860   8.062  19.967  0.00  0.00    +0.000 C 
ATOM      3  O   UNL     1       1.527   8.390  21.099  0.00  0.00    +0.000 OA
ATOM      4  H   UNL     1       2.224   8.392  17.984  0.00  0.00    +0.000 HD
ENDROOT
BRANCH   2   5
ATOM      5  C   UNL     1       2.325   6.620  19.776  0.00  0.00    +0.000 A 
ATOM      6  C   UNL     1       1.570   5.621  20.553  0.00  0.00    +0.000 A 
ATOM      7  C   UNL     1       1.898   4.347  20.369  0.00  0.00    +0.000 A 
ATOM      8  C   UNL     1       2.981   3.955  19.443  0.00  0.00    +0.000 A 
ATOM      9  O   UNL     1       3.189   2.748  19.343  0.00  0.00    +0.000 OA
ATOM     10  N   UNL     1       3.672   5.009  18.820  0.00  0.00    +0.000 N 
ATOM     11  N   UNL     1       3.310   6.357  18.975  0.00  0.00    +0.000 NA
BRANCH  10  12
ATOM     12  C   UNL     1       4.812   4.800  17.966  0.00  0.00    +0.000 A 
ATOM     13  C   UNL     1       6.134   4.935  18.421  0.00  0.00    +0.000 A 
ATOM     14  C   UNL     1       7.226   4.738  17.568  0.00  0.00    +0.000 A 
ATOM     15  C   UNL     1       7.021   4.410  16.234  0.00  0.00    +0.000 A 
ATOM     16  C   UNL     1       5.723   4.275  15.754  0.00  0.00    +0.000 A 
ATOM     17  C   UNL     1       4.631   4.462  16.612  0.00  0.00    +0.000 A 
ENDBRANCH  10  12
ENDBRANCH   2   5
BRANCH   1  22
ATOM     18  C   UNL     1      -0.784  11.496  18.605  0.00  0.00    +0.000 A 
ATOM     19  C   UNL     1       0.032  12.635  18.510  0.00  0.00    +0.000 A 
ATOM     20  C   UNL     1       1.416  12.527  18.496  0.00  0.00    +0.000 A 
ATOM     21  C   UNL     1       2.011  11.271  18.584  0.00  0.00    +0.000 A 
ATOM     22  C   UNL     1       1.238  10.110  18.678  0.00  0.00    +0.000 A 
ATOM     23  C   UNL     1      -0.166  10.230  18.670  0.00  0.00    +0.000 A 
BRANCH  18  28
ATOM     24  C   UNL     1      -5.676  11.513  17.381  0.00  0.00    +0.000 C 
ATOM     25  C   UNL     1      -4.392  11.713  18.090  0.00  0.00    +0.000 A 
ATOM     26  N   UNL     1      -4.253  12.172  19.312  0.00  0.00    +0.000 NA
ATOM     27  N   UNL     1      -2.920  12.173  19.609  0.00  0.00    +0.000 NA
ATOM     28  C   UNL     1      -2.236  11.722  18.568  0.00  0.00    +0.000 A 
ATOM     29  N   UNL     1      -3.145  11.429  17.575  0.00  0.00    +0.000 N 
ATOM     30  C   UNL     1      -2.921  10.855  16.275  0.00  0.00    +0.000 C 
ENDBRANCH  18  28
ENDBRANCH   1  22
TORSDOF 4
ENDMDL
MODEL 3
REMARK VINA RESULT:      -8.6      2.661      3.547
REMARK  Name = 
REMARK  6 active torsions:
REMARK  status: ('A' for Active; 'I' for Inactive)
REMARK    1  A    between atoms: C_1  and  C_2
REMARK    2  A    between atoms: C_5  and  C_6
REMARK    3  A    between atoms: C_10  and  N_11
REMARK    4  A    between atoms: C_12  and  C_14
REMARK    5  A    between atoms: N_19  and  C_20
REMARK    6  A    between atoms: N_28  and  C_29
REMARK                            x       y       z     vdW  Elec       q    Type
REMARK                         _______ _______ _______ _____ _____    ______ ____
ROOT
ATOM      1  N   UNL     1       1.090   7.824  21.053  0.00  0.00    +0.000 N 
ATOM      2  C   UNL     1       1.812   7.608  19.890  0.00  0.00    +0.000 C 
ATOM      3  O   UNL     1       2.014   8.388  18.968  0.00  0.00    +0.000 OA
ATOM      4  H   UNL     1       0.966   7.016  21.653  0.00  0.00    +0.000 HD
ENDROOT
BRANCH   2   5
ATOM      5  C   UNL     1       2.484   6.241  19.795  0.00  0.00    +0.000 A 
ATOM      6  C   UNL     1       2.000   5.246  20.769  0.00  0.00    +0.000 A 
ATOM      7  C   UNL     1       2.511   4.023  20.681  0.00  0.00    +0.000 A 
ATOM      8  C   UNL     1       3.530   3.684  19.666  0.00  0.00    +0.000 A 
ATOM      9  O   UNL     1       3.922   2.519  19.669  0.00  0.00    +0.000 OA
ATOM     10  N   UNL     1       3.959   4.742  18.846  0.00  0.00    +0.000 N 
ATOM     11  N   UNL     1       3.400   6.028  18.902  0.00  0.00    +0.000 NA
BRANCH  10  12
ATOM     12  C   UNL     1       5.012   4.600  17.873  0.00  0.00    +0.000 A 
ATOM     13  C   UNL     1       4.767   4.226  16.542  0.00  0.00    +0.000 A 
ATOM     14  C   UNL     1       5.809   4.083  15.618  0.00  0.00    +0.000 A 
ATOM     15  C   UNL     1       7.124   4.302  16.007  0.00  0.00    +0.000 A 
ATOM     16  C   UNL     1       7.396   4.669  17.320  0.00  0.00    +0.000 A 
ATOM     17  C   UNL     1       6.351   4.823  18.241  0.00  0.00    +0.000 A 
ENDBRANCH  10  12
ENDBRANCH   2   5
BRANCH   1  22
ATOM     18  C   UNL     1       0.096  11.426  20.986  0.00  0.00    +0.000 A 
ATOM     19  C   UNL     1      -0.584  11.523  22.210  0.00  0.00    +0.000 A 
ATOM     20  C   UNL     1      -0.702  10.428  23.055  0.00  0.00    +0.000 A 
ATOM     21  C   UNL     1      -0.143   9.208  22.684  0.00  0.00    +0.000 A 
ATOM     22  C   UNL     1       0.544   9.065  21.475  0.00  0.00    +0.000 A 
ATOM     23  C   UNL     1       0.676  10.190  20.635  0.00  0.00    +0.000 A 
BRANCH  18  28
ATOM     24  C   UNL     1       1.712  15.607  18.675  0.00  0.00    +0.000 C 
ATOM     25  C   UNL     1       0.880  14.468  19.125  0.00  0.00    +0.000 A 
ATOM     26  N   UNL     1      -0.292  14.134  18.638  0.00  0.00    +0.000 NA
ATOM     27  N   UNL     1      -0.712  13.012  19.294  0.00  0.00    +0.000 NA
ATOM     28  C   UNL     1       0.197  12.658  20.190  0.00  0.00    +0.000 A 
ATOM     29  N   UNL     1       1.224  13.574  20.117  0.00  0.00    +0.000 N 
ATOM     30  C   UNL     1       2.471  13.603  20.832  0.00  0.00    +0.000 C 
ENDBRANCH  18  28
ENDBRANCH   1  22
TORSDOF 4
ENDMDL
MODEL 4
REMARK VINA RESULT:      -8.6      2.592      3.643
REMARK  Name = 
REMARK  6 active torsions:
REMARK  status: ('A' for Active; 'I' for Inactive)
REMARK    1  A    between atoms: C_1  and  C_2
REMARK    2  A    between atoms: C_5  and  C_6
REMARK    3  A    between atoms: C_10  and  N_11
REMARK    4  A    between atoms: C_12  and  C_14
REMARK    5  A    between atoms: N_19  and  C_20
REMARK    6  A    between atoms: N_28  and  C_29
REMARK                            x       y       z     vdW  Elec       q    Type
REMARK                         _______ _______ _______ _____ _____    ______ ____
ROOT
ATOM      1  N   UNL     1       1.176   7.727  21.164  0.00  0.00    +0.000 N 
ATOM      2  C   UNL     1       1.830   7.512  19.961  0.00  0.00    +0.000 C 
ATOM      3  O   UNL     1       1.957   8.285  19.019  0.00  0.00    +0.000 OA
ATOM      4  H   UNL     1       1.107   6.924  21.779  0.00  0.00    +0.000 HD
ENDROOT
BRANCH   2   5
ATOM      5  C   UNL     1       2.523   6.158  19.838  0.00  0.00    +0.000 A 
ATOM      6  C   UNL     1       2.072   5.144  20.808  0.00  0.00    +0.000 A 
ATOM      7  C   UNL     1       2.603   3.931  20.697  0.00  0.00    +0.000 A 
ATOM      8  C   UNL     1       3.610   3.621  19.661  0.00  0.00    +0.000 A 
ATOM      9  O   UNL     1       4.022   2.463  19.644  0.00  0.00    +0.000 OA
ATOM     10  N   UNL     1       4.008   4.696  18.846  0.00  0.00    +0.000 N 
ATOM     11  N   UNL     1       3.428   5.972  18.927  0.00  0.00    +0.000 NA
BRANCH  10  12
ATOM     12  C   UNL     1       5.046   4.584  17.855  0.00  0.00    +0.000 A 
ATOM     13  C   UNL     1       6.406   4.761  18.159  0.00  0.00    +0.000 A 
ATOM     14  C   UNL     1       7.396   4.658  17.175  0.00  0.00    +0.000 A 
ATOM     15  C   UNL     1       7.048   4.384  15.859  0.00  0.00    +0.000 A 
ATOM     16  C   UNL     1       5.709   4.209  15.528  0.00  0.00    +0.000 A 
ATOM     17  C   UNL     1       4.720   4.301  16.516  0.00  0.00    +0.000 A 
ENDBRANCH  10  12
ENDBRANCH   2   5
BRANCH   1  22
ATOM     18  C   UNL     1       0.503  11.397  21.358  0.00  0.00    +0.000 A 
ATOM     19  C   UNL     1      -0.467  11.423  22.374  0.00  0.00    +0.000 A 
ATOM     20  C   UNL     1      -0.883  10.255  22.998  0.00  0.00    +0.000 A 
ATOM     21  C   UNL     1      -0.338   9.034  22.611  0.00  0.00    +0.000 A 
ATOM     22  C   UNL     1       0.631   8.961  21.606  0.00  0.00    +0.000 A 
ATOM     23  C   UNL     1       1.062  10.156  20.994  0.00  0.00    +0.000 A 
BRANCH  18  28
ATOM     24  C   UNL     1       0.726  15.705  18.746  0.00  0.00    +0.000 C 
ATOM     25  C   UNL     1       1.008  14.613  19.705  0.00  0.00    +0.000 A 
ATOM     26  N   UNL     1       1.893  14.652  20.673  0.00  0.00    +0.000 NA
ATOM     27  N   UNL     1       1.823  13.468  21.351  0.00  0.00    +0.000 NA
ATOM     28  C   UNL     1       0.900  12.696  20.796  0.00  0.00    +0.000 A 
ATOM     29  N   UNL     1       0.366  13.393  19.734  0.00  0.00    +0.000 N 
ATOM     30  C   UNL     1      -0.706  13.025  18.849  0.00  0.00    +0.000 C 
ENDBRANCH  18  28
ENDBRANCH   1  22
TORSDOF 4
ENDMDL
MODEL 5
REMARK VINA RESULT:      -8.6      3.200      9.538
REMARK  Name = 
REMARK  6 active torsions:
REMARK  status: ('A' for Active; 'I' for Inactive)
REMARK    1  A    between atoms: C_1  and  C_2
REMARK    2  A    between atoms: C_5  and  C_6
REMARK    3  A    between atoms: C_10  and  N_11
REMARK    4  A    between atoms: C_12  and  C_14
REMARK    5  A    between atoms: N_19  and  C_20
REMARK    6  A    between atoms: N_28  and  C_29
REMARK                            x       y       z     vdW  Elec       q    Type
REMARK                         _______ _______ _______ _____ _____    ______ ____
ROOT
ATOM      1  N   UNL     1       1.592   7.104  21.020  0.00  0.00    +0.000 N 
ATOM      2  C   UNL     1       1.441   8.288  20.315  0.00  0.00    +0.000 C 
ATOM      3  O   UNL     1       1.782   8.533  19.165  0.00  0.00    +0.000 OA
ATOM      4  H   UNL     1       1.322   7.134  21.997  0.00  0.00    +0.000 HD
ENDROOT
BRANCH   2   5
ATOM      5  C   UNL     1       0.698   9.392  21.063  0.00  0.00    +0.000 A 
ATOM      6  C   UNL     1      -0.077   8.933  22.230  0.00  0.00    +0.000 A 
ATOM      7  C   UNL     1      -0.687   9.868  22.949  0.00  0.00    +0.000 A 
ATOM      8  C   UNL     1      -0.607  11.298  22.584  0.00  0.00    +0.000 A 
ATOM      9  O   UNL     1      -1.200  12.075  23.328  0.00  0.00    +0.000 OA
ATOM     10  N   UNL     1       0.103  11.595  21.407  0.00  0.00    +0.000 N 
ATOM     11  N   UNL     1       0.785  10.622  20.660  0.00  0.00    +0.000 NA
BRANCH  10  12
ATOM     12  C   UNL     1       0.194  12.925  20.863  0.00  0.00    +0.000 A 
ATOM     13  C   UNL     1      -0.817  13.488  20.066  0.00  0.00    +0.000 A 
ATOM     14  C   UNL     1      -0.700  14.779  19.539  0.00  0.00    +0.000 A 
ATOM     15  C   UNL     1       0.438  15.536  19.789  0.00  0.00    +0.000 A 
ATOM     16  C   UNL     1       1.457  15.002  20.570  0.00  0.00    +0.000 A 
ATOM     17  C   UNL     1       1.333  13.714  21.106  0.00  0.00    +0.000 A 
ENDBRANCH  10  12
ENDBRANCH   2   5
BRANCH   1  22
ATOM     18  C   UNL     1       3.832   4.636  19.330  0.00  0.00    +0.000 A 
ATOM     19  C   UNL     1       3.081   3.461  19.493  0.00  0.00    +0.000 A 
ATOM     20  C   UNL     1       1.849   3.479  20.134  0.00  0.00    +0.000 A 
ATOM     21  C   UNL     1       1.348   4.678  20.630  0.00  0.00    +0.000 A 
ATOM     22  C   UNL     1       2.060   5.873  20.489  0.00  0.00    +0.000 A 
ATOM     23  C   UNL     1       3.300   5.847  19.819  0.00  0.00    +0.000 A 
BRANCH  18  28
ATOM     24  C   UNL     1       7.406   4.484  15.776  0.00  0.00    +0.000 C 
ATOM     25  C   UNL     1       6.701   4.482  17.077  0.00  0.00    +0.000 A 
ATOM     26  N   UNL     1       7.271   4.509  18.259  0.00  0.00    +0.000 NA
ATOM     27  N   UNL     1       6.282   4.531  19.200  0.00  0.00    +0.000 NA
ATOM     28  C   UNL     1       5.101   4.510  18.599  0.00  0.00    +0.000 A 
ATOM     29  N   UNL     1       5.332   4.467  17.241  0.00  0.00    +0.000 N 
ATOM     30  C   UNL     1       4.389   4.492  16.156  0.00  0.00    +0.000 C 
ENDBRANCH  18  28
ENDBRANCH   1  22
TORSDOF 4
ENDMDL
MODEL 6
REMARK VINA RESULT:      -8.5      1.348      1.810
REMARK  Name = 
REMARK  6 active torsions:
REMARK  status: ('A' for Active; 'I' for Inactive)
REMARK    1  A    between atoms: C_1  and  C_2
REMARK    2  A    between atoms: C_5  and  C_6
REMARK    3  A    between atoms: C_10  and  N_11
REMARK    4  A    between atoms: C_12  and  C_14
REMARK    5  A    between atoms: N_19  and  C_20
REMARK    6  A    between atoms: N_28  and  C_29
REMARK                            x       y       z     vdW  Elec       q    Type
REMARK                         _______ _______ _______ _____ _____    ______ ____
ROOT
ATOM      1  N   UNL     1       0.983   9.152  19.363  0.00  0.00    +0.000 N 
ATOM      2  C   UNL     1       1.850   8.634  18.413  0.00  0.00    +0.000 C 
ATOM      3  O   UNL     1       2.187   9.130  17.345  0.00  0.00    +0.000 OA
ATOM      4  H   UNL     1       0.765   8.540  20.142  0.00  0.00    +0.000 HD
ENDROOT
BRANCH   2   5
ATOM      5  C   UNL     1       2.502   7.307  18.793  0.00  0.00    +0.000 A 
ATOM      6  C   UNL     1       1.975   6.690  20.023  0.00  0.00    +0.000 A 
ATOM      7  C   UNL     1       2.469   5.503  20.357  0.00  0.00    +0.000 A 
ATOM      8  C   UNL     1       3.510   4.843  19.542  0.00  0.00    +0.000 A 
ATOM      9  O   UNL     1       3.883   3.741  19.939  0.00  0.00    +0.000 OA
ATOM     10  N   UNL     1       3.979   5.571  18.434  0.00  0.00    +0.000 N 
ATOM     11  N   UNL     1       3.439   6.808  18.048  0.00  0.00    +0.000 NA
BRANCH  10  12
ATOM     12  C   UNL     1       5.055   5.111  17.595  0.00  0.00    +0.000 A 
ATOM     13  C   UNL     1       6.397   5.117  18.014  0.00  0.00    +0.000 A 
ATOM     14  C   UNL     1       7.427   4.676  17.176  0.00  0.00    +0.000 A 
ATOM     15  C   UNL     1       7.142   4.226  15.893  0.00  0.00    +0.000 A 
ATOM     16  C   UNL     1       5.823   4.214  15.450  0.00  0.00    +0.000 A 
ATOM     17  C   UNL     1       4.792   4.645  16.295  0.00  0.00    +0.000 A 
ENDBRANCH  10  12
ENDBRANCH   2   5
BRANCH   1  22
ATOM     18  C   UNL     1      -1.608  11.843  19.301  0.00  0.00    +0.000 A 
ATOM     19  C   UNL     1      -0.791  12.982  19.395  0.00  0.00    +0.000 A 
ATOM     20  C   UNL     1       0.591  12.871  19.461  0.00  0.00    +0.000 A 
ATOM     21  C   UNL     1       1.183  11.611  19.440  0.00  0.00    +0.000 A 
ATOM     22  C   UNL     1       0.410  10.450  19.347  0.00  0.00    +0.000 A 
ATOM     23  C   UNL     1      -0.991  10.576  19.259  0.00  0.00    +0.000 A 
BRANCH  18  28
ATOM     24  C   UNL     1      -6.445  11.842  17.877  0.00  0.00    +0.000 C 
ATOM     25  C   UNL     1      -5.189  12.064  18.629  0.00  0.00    +0.000 A 
ATOM     26  N   UNL     1      -5.097  12.577  19.833  0.00  0.00    +0.000 NA
ATOM     27  N   UNL     1      -3.777  12.581  20.185  0.00  0.00    +0.000 NA
ATOM     28  C   UNL     1      -3.055  12.079  19.194  0.00  0.00    +0.000 A 
ATOM     29  N   UNL     1      -3.925  11.748  18.178  0.00  0.00    +0.000 N 
ATOM     30  C   UNL     1      -3.654  11.114  16.916  0.00  0.00    +0.000 C 
ENDBRANCH  18  28
ENDBRANCH   1  22
TORSDOF 4
ENDMDL
MODEL 7
REMARK VINA RESULT:      -8.4      2.534      3.496
REMARK  Name = 
REMARK  6 active torsions:
REMARK  status: ('A' for Active; 'I' for Inactive)
REMARK    1  A    between atoms: C_1  and  C_2
REMARK    2  A    between atoms: C_5  and  C_6
REMARK    3  A    between atoms: C_10  and  N_11
REMARK    4  A    between atoms: C_12  and  C_14
REMARK    5  A    between atoms: N_19  and  C_20
REMARK    6  A    between atoms: N_28  and  C_29
REMARK                            x       y       z     vdW  Elec       q    Type
REMARK                         _______ _______ _______ _____ _____    ______ ____
ROOT
ATOM      1  N   UNL     1       1.073   7.782  21.154  0.00  0.00    +0.000 N 
ATOM      2  C   UNL     1       1.767   7.587  19.971  0.00  0.00    +0.000 C 
ATOM      3  O   UNL     1       1.942   8.383  19.056  0.00  0.00    +0.000 OA
ATOM      4  H   UNL     1       0.968   6.964  21.744  0.00  0.00    +0.000 HD
ENDROOT
BRANCH   2   5
ATOM      5  C   UNL     1       2.442   6.225  19.837  0.00  0.00    +0.000 A 
ATOM      6  C   UNL     1       1.957   5.201  20.780  0.00  0.00    +0.000 A 
ATOM      7  C   UNL     1       2.471   3.983  20.658  0.00  0.00    +0.000 A 
ATOM      8  C   UNL     1       3.493   3.675  19.635  0.00  0.00    +0.000 A 
ATOM      9  O   UNL     1       3.887   2.511  19.605  0.00  0.00    +0.000 OA
ATOM     10  N   UNL     1       3.922   4.758  18.847  0.00  0.00    +0.000 N 
ATOM     11  N   UNL     1       3.361   6.041  18.940  0.00  0.00    +0.000 NA
BRANCH  10  12
ATOM     12  C   UNL     1       4.978   4.646  17.874  0.00  0.00    +0.000 A 
ATOM     13  C   UNL     1       4.732   4.364  16.520  0.00  0.00    +0.000 A 
ATOM     14  C   UNL     1       5.776   4.249  15.594  0.00  0.00    +0.000 A 
ATOM     15  C   UNL     1       7.094   4.405  16.004  0.00  0.00    +0.000 A 
ATOM     16  C   UNL     1       7.367   4.680  17.339  0.00  0.00    +0.000 A 
ATOM     17  C   UNL     1       6.320   4.806  18.262  0.00  0.00    +0.000 A 
ENDBRANCH  10  12
ENDBRANCH   2   5
BRANCH   1  22
ATOM     18  C   UNL     1       0.236  11.422  21.259  0.00  0.00    +0.000 A 
ATOM     19  C   UNL     1      -0.573  11.463  22.406  0.00  0.00    +0.000 A 
ATOM     20  C   UNL     1      -0.827  10.316  23.146  0.00  0.00    +0.000 A 
ATOM     21  C   UNL     1      -0.279   9.101  22.744  0.00  0.00    +0.000 A 
ATOM     22  C   UNL     1       0.533   9.014  21.610  0.00  0.00    +0.000 A 
ATOM     23  C   UNL     1       0.802  10.189  20.879  0.00  0.00    +0.000 A 
BRANCH  18  28
ATOM     24  C   UNL     1      -0.280  15.895  18.987  0.00  0.00    +0.000 C 
ATOM     25  C   UNL     1       0.291  14.685  19.621  0.00  0.00    +0.000 A 
ATOM     26  N   UNL     1       1.553  14.504  19.931  0.00  0.00    +0.000 NA
ATOM     27  N   UNL     1       1.666  13.280  20.526  0.00  0.00    +0.000 NA
ATOM     28  C   UNL     1       0.474  12.703  20.577  0.00  0.00    +0.000 A 
ATOM     29  N   UNL     1      -0.427  13.569  19.996  0.00  0.00    +0.000 N 
ATOM     30  C   UNL     1      -1.853  13.442  19.858  0.00  0.00    +0.000 C 
ENDBRANCH  18  28
ENDBRANCH   1  22
TORSDOF 4
ENDMDL
MODEL 8
REMARK VINA RESULT:      -8.4      1.310      1.426
REMARK  Name = 
REMARK  6 active torsions:
REMARK  status: ('A' for Active; 'I' for Inactive)
REMARK    1  A    between atoms: C_1  and  C_2
REMARK    2  A    between atoms: C_5  and  C_6
REMARK    3  A    between atoms: C_10  and  N_11
REMARK    4  A    between atoms: C_12  and  C_14
REMARK    5  A    between atoms: N_19  and  C_20
REMARK    6  A    between atoms: N_28  and  C_29
REMARK                            x       y       z     vdW  Elec       q    Type
REMARK                         _______ _______ _______ _____ _____    ______ ____
ROOT
ATOM      1  N   UNL     1       0.754   9.038  19.210  0.00  0.00    +0.000 N 
ATOM      2  C   UNL     1       1.786   8.646  18.372  0.00  0.00    +0.000 C 
ATOM      3  O   UNL     1       2.233   9.234  17.395  0.00  0.00    +0.000 OA
ATOM      4  H   UNL     1       0.476   8.363  19.914  0.00  0.00    +0.000 HD
ENDROOT
BRANCH   2   5
ATOM      5  C   UNL     1       2.481   7.347  18.772  0.00  0.00    +0.000 A 
ATOM      6  C   UNL     1       1.988   6.743  20.022  0.00  0.00    +0.000 A 
ATOM      7  C   UNL     1       2.520   5.578  20.376  0.00  0.00    +0.000 A 
ATOM      8  C   UNL     1       3.569   4.930  19.561  0.00  0.00    +0.000 A 
ATOM      9  O   UNL     1       3.979   3.849  19.977  0.00  0.00    +0.000 OA
ATOM     10  N   UNL     1       4.003   5.646  18.431  0.00  0.00    +0.000 N 
ATOM     11  N   UNL     1       3.423   6.858  18.025  0.00  0.00    +0.000 NA
BRANCH  10  12
ATOM     12  C   UNL     1       5.081   5.199  17.589  0.00  0.00    +0.000 A 
ATOM     13  C   UNL     1       6.419   5.176  18.019  0.00  0.00    +0.000 A 
ATOM     14  C   UNL     1       7.452   4.748  17.177  0.00  0.00    +0.000 A 
ATOM     15  C   UNL     1       7.173   4.341  15.879  0.00  0.00    +0.000 A 
ATOM     16  C   UNL     1       5.859   4.358  15.424  0.00  0.00    +0.000 A 
ATOM     17  C   UNL     1       4.825   4.776  16.272  0.00  0.00    +0.000 A 
ENDBRANCH  10  12
ENDBRANCH   2   5
BRANCH   1  22
ATOM     18  C   UNL     1      -1.976  11.550  18.763  0.00  0.00    +0.000 A 
ATOM     19  C   UNL     1      -1.314  12.719  19.175  0.00  0.00    +0.000 A 
ATOM     20  C   UNL     1       0.014  12.687  19.578  0.00  0.00    +0.000 A 
ATOM     21  C   UNL     1       0.705  11.478  19.582  0.00  0.00    +0.000 A 
ATOM     22  C   UNL     1       0.087  10.291  19.179  0.00  0.00    +0.000 A 
ATOM     23  C   UNL     1      -1.256  10.339  18.751  0.00  0.00    +0.000 A 
BRANCH  18  28
ATOM     24  C   UNL     1      -6.873  12.702  18.410  0.00  0.00    +0.000 C 
ATOM     25  C   UNL     1      -5.501  12.235  18.106  0.00  0.00    +0.000 A 
ATOM     26  N   UNL     1      -5.063  11.858  16.927  0.00  0.00    +0.000 NA
ATOM     27  N   UNL     1      -3.742  11.536  17.057  0.00  0.00    +0.000 NA
ATOM     28  C   UNL     1      -3.368  11.706  18.316  0.00  0.00    +0.000 A 
ATOM     29  N   UNL     1      -4.471  12.142  19.017  0.00  0.00    +0.000 N 
ATOM     30  C   UNL     1      -4.578  12.529  20.398  0.00  0.00    +0.000 C 
ENDBRANCH  18  28
ENDBRANCH   1  22
TORSDOF 4
ENDMDL
MODEL 9
REMARK VINA RESULT:      -8.3      2.006      3.679
REMARK  Name = 
REMARK  6 active torsions:
REMARK  status: ('A' for Active; 'I' for Inactive)
REMARK    1  A    between atoms: C_1  and  C_2
REMARK    2  A    between atoms: C_5  and  C_6
REMARK    3  A    between atoms: C_10  and  N_11
REMARK    4  A    between atoms: C_12  and  C_14
REMARK    5  A    between atoms: N_19  and  C_20
REMARK    6  A    between atoms: N_28  and  C_29
REMARK                            x       y       z     vdW  Elec       q    Type
REMARK                         _______ _______ _______ _____ _____    ______ ____
ROOT
ATOM      1  N   UNL     1       0.920   9.373  19.207  0.00  0.00    +0.000 N 
ATOM      2  C   UNL     1       1.876   9.272  18.209  0.00  0.00    +0.000 C 
ATOM      3  O   UNL     1       2.244  10.137  17.423  0.00  0.00    +0.000 OA
ATOM      4  H   UNL     1       0.696   8.511  19.693  0.00  0.00    +0.000 HD
ENDROOT
BRANCH   2   5
ATOM      5  C   UNL     1       2.591   7.926  18.136  0.00  0.00    +0.000 A 
ATOM      6  C   UNL     1       3.746   7.890  17.220  0.00  0.00    +0.000 A 
ATOM      7  C   UNL     1       4.437   6.757  17.173  0.00  0.00    +0.000 A 
ATOM      8  C   UNL     1       4.054   5.584  17.987  0.00  0.00    +0.000 A 
ATOM      9  O   UNL     1       4.774   4.594  17.872  0.00  0.00    +0.000 OA
ATOM     10  N   UNL     1       2.890   5.725  18.762  0.00  0.00    +0.000 N 
ATOM     11  N   UNL     1       2.173   6.928  18.851  0.00  0.00    +0.000 NA
BRANCH  10  12
ATOM     12  C   UNL     1       2.330   4.648  19.535  0.00  0.00    +0.000 A 
ATOM     13  C   UNL     1       1.440   3.707  18.990  0.00  0.00    +0.000 A 
ATOM     14  C   UNL     1       0.900   2.675  19.765  0.00  0.00    +0.000 A 
ATOM     15  C   UNL     1       1.230   2.563  21.110  0.00  0.00    +0.000 A 
ATOM     16  C   UNL     1       2.104   3.483  21.678  0.00  0.00    +0.000 A 
ATOM     17  C   UNL     1       2.653   4.509  20.897  0.00  0.00    +0.000 A 
ENDBRANCH  10  12
ENDBRANCH   2   5
BRANCH   1  22
ATOM     18  C   UNL     1      -1.812  11.863  19.753  0.00  0.00    +0.000 A 
ATOM     19  C   UNL     1      -1.113  12.853  20.462  0.00  0.00    +0.000 A 
ATOM     20  C   UNL     1       0.239  12.715  20.744  0.00  0.00    +0.000 A 
ATOM     21  C   UNL     1       0.918  11.575  20.324  0.00  0.00    +0.000 A 
ATOM     22  C   UNL     1       0.263  10.564  19.614  0.00  0.00    +0.000 A 
ATOM     23  C   UNL     1      -1.105  10.725  19.315  0.00  0.00    +0.000 A 
BRANCH  18  28
ATOM     24  C   UNL     1      -6.447  11.954  17.769  0.00  0.00    +0.000 C 
ATOM     25  C   UNL     1      -5.283  12.159  18.660  0.00  0.00    +0.000 A 
ATOM     26  N   UNL     1      -5.319  12.690  19.859  0.00  0.00    +0.000 NA
ATOM     27  N   UNL     1      -4.050  12.669  20.363  0.00  0.00    +0.000 NA
ATOM     28  C   UNL     1      -3.230  12.132  19.472  0.00  0.00    +0.000 A 
ATOM     29  N   UNL     1      -3.984  11.804  18.366  0.00  0.00    +0.000 N 
ATOM     30  C   UNL     1      -3.582  11.141  17.154  0.00  0.00    +0.000 C 
ENDBRANCH  18  28
ENDBRANCH   1  22
TORSDOF 4
ENDMDL
