MODEL 1
REMARK VINA RESULT:      -9.7      0.000      0.000
REMARK  Name = 
REMARK  4 active torsions:
REMARK  status: ('A' for Active; 'I' for Inactive)
REMARK    1  A    between atoms: C_1  and  C_2
REMARK    2  A    between atoms: C_7  and  S_8
REMARK    3  A    between atoms: S_8  and  N_11
REMARK    4  A    between atoms: C_19  and  C_20
REMARK                            x       y       z     vdW  Elec       q    Type
REMARK                         _______ _______ _______ _____ _____    ______ ____
ROOT
ATOM      1  N   UNL     1       4.089   4.998  16.674  0.00  0.00    +0.000 NA
ATOM      2  C   UNL     1       3.711   3.633  17.079  0.00  0.00    +0.000 C 
ATOM      3  C   UNL     1       2.626   3.533  18.138  0.00  0.00    +0.000 A 
ATOM      4  C   UNL     1       1.990   2.301  18.349  0.00  0.00    +0.000 A 
ATOM      5  C   UNL     1       1.089   2.143  19.400  0.00  0.00    +0.000 A 
ATOM      6  C   UNL     1       0.834   3.205  20.263  0.00  0.00    +0.000 A 
ATOM      7  C   UNL     1       1.445   4.442  20.055  0.00  0.00    +0.000 A 
ATOM      8  C   UNL     1       2.315   4.632  18.972  0.00  0.00    +0.000 A 
ATOM      9  C   UNL     1       2.998   5.960  18.681  0.00  0.00    +0.000 C 
ATOM     10  C   UNL     1       3.195   6.079  17.156  0.00  0.00    +0.000 C 
ENDROOT
BRANCH   9  11
ATOM     11  C   UNL     1       2.357   7.221  19.237  0.00  0.00    +0.000 A 
ATOM     12  C   UNL     1       2.080   8.275  18.349  0.00  0.00    +0.000 A 
ATOM     13  C   UNL     1       1.403   9.416  18.778  0.00  0.00    +0.000 A 
ATOM     14  C   UNL     1       0.999   9.525  20.105  0.00  0.00    +0.000 A 
ATOM     15  C   UNL     1       1.297   8.505  21.008  0.00  0.00    +0.000 A 
ATOM     16  C   UNL     1       1.973   7.358  20.580  0.00  0.00    +0.000 A 
ENDBRANCH   9  11
BRANCH   1  17
ATOM     17  S   UNL     1       5.716   5.317  16.375  0.00  0.00    +0.000 S 
ATOM     18  O   UNL     1       5.797   6.576  15.645  0.00  0.00    +0.000 OA
ATOM     19  O   UNL     1       6.305   4.113  15.833  0.00  0.00    +0.000 OA
BRANCH  17  26
ATOM     20  C   UNL     1       7.834   7.956  17.523  0.00  0.00    +0.000 C 
ATOM     21  C   UNL     1       7.390   6.691  18.142  0.00  0.00    +0.000 A 
ATOM     22  O   UNL     1       7.850   6.511  19.414  0.00  0.00    +0.000 OA
ATOM     23  N   UNL     1       7.338   5.344  19.936  0.00  0.00    +0.000 NA
ATOM     24  C   UNL     1       6.569   4.821  18.982  0.00  0.00    +0.000 A 
ATOM     25  N   UNL     1       5.852   3.691  19.161  0.00  0.00    +0.000 N 
ATOM     26  C   UNL     1       6.597   5.611  17.812  0.00  0.00    +0.000 A 
ATOM     27  H   UNL     1       5.684   3.429  20.129  0.00  0.00    +0.000 HD
ATOM     28  H   UNL     1       5.018   3.557  18.584  0.00  0.00    +0.000 HD
ENDBRANCH  17  26
ENDBRANCH   1  17
TORSDOF 3
ENDMDL
MODEL 2
REMARK VINA RESULT:      -9.6      1.415      1.944
REMARK  Name = 
REMARK  4 active torsions:
REMARK  status: ('A' for Active; 'I' for Inactive)
REMARK    1  A    between atoms: C_1  and  C_2
REMARK    2  A    between atoms: C_7  and  S_8
REMARK    3  A    between atoms: S_8  and  N_11
REMARK    4  A    between atoms: C_19  and  C_20
REMARK                            x       y       z     vdW  Elec       q    Type
REMARK                         _______ _______ _______ _____ _____    ______ ____
ROOT
ATOM      1  N   UNL     1       3.723   6.072  17.145  0.00  0.00    +0.000 NA
ATOM      2  C   UNL     1       3.631   4.651  17.522  0.00  0.00    +0.000 C 
ATOM      3  C   UNL     1       2.674   4.329  18.657  0.00  0.00    +0.000 A 
ATOM      4  C   UNL     1       2.287   2.997  18.867  0.00  0.00    +0.000 A 
ATOM      5  C   UNL     1       1.521   2.651  19.979  0.00  0.00    +0.000 A 
ATOM      6  C   UNL     1       1.154   3.627  20.901  0.00  0.00    +0.000 A 
ATOM      7  C   UNL     1       1.515   4.959  20.696  0.00  0.00    +0.000 A 
ATOM      8  C   UNL     1       2.242   5.332  19.557  0.00  0.00    +0.000 A 
ATOM      9  C   UNL     1       2.651   6.769  19.268  0.00  0.00    +0.000 C 
ATOM     10  C   UNL     1       2.694   6.960  17.737  0.00  0.00    +0.000 C 
ENDROOT
BRANCH   9  11
ATOM     11  C   UNL     1       1.844   7.878  19.922  0.00  0.00    +0.000 A 
ATOM     12  C   UNL     1       1.371   8.925  19.112  0.00  0.00    +0.000 A 
ATOM     13  C   UNL     1       0.542   9.917  19.634  0.00  0.00    +0.000 A 
ATOM     14  C   UNL     1       0.180   9.884  20.977  0.00  0.00    +0.000 A 
ATOM     15  C   UNL     1       0.670   8.874  21.804  0.00  0.00    +0.000 A 
ATOM     16  C   UNL     1       1.499   7.874  21.282  0.00  0.00    +0.000 A 
ENDBRANCH   9  11
BRANCH   1  17
ATOM     17  S   UNL     1       5.236   6.687  16.732  0.00  0.00    +0.000 S 
ATOM     18  O   UNL     1       5.604   7.678  17.737  0.00  0.00    +0.000 OA
ATOM     19  O   UNL     1       5.198   7.040  15.332  0.00  0.00    +0.000 OA
BRANCH  17  26
ATOM     20  C   UNL     1       6.871   4.545  14.386  0.00  0.00    +0.000 C 
ATOM     21  C   UNL     1       7.028   4.735  15.842  0.00  0.00    +0.000 A 
ATOM     22  O   UNL     1       8.014   3.970  16.394  0.00  0.00    +0.000 OA
ATOM     23  N   UNL     1       8.134   4.257  17.735  0.00  0.00    +0.000 NA
ATOM     24  C   UNL     1       7.225   5.196  17.993  0.00  0.00    +0.000 A 
ATOM     25  N   UNL     1       7.092   5.767  19.209  0.00  0.00    +0.000 N 
ATOM     26  C   UNL     1       6.471   5.507  16.841  0.00  0.00    +0.000 A 
ATOM     27  H   UNL     1       7.896   5.676  19.825  0.00  0.00    +0.000 HD
ATOM     28  H   UNL     1       6.685   6.704  19.255  0.00  0.00    +0.000 HD
ENDBRANCH  17  26
ENDBRANCH   1  17
TORSDOF 3
ENDMDL
MODEL 3
REMARK VINA RESULT:      -9.3      1.625      1.979
REMARK  Name = 
REMARK  4 active torsions:
REMARK  status: ('A' for Active; 'I' for Inactive)
REMARK    1  A    between atoms: C_1  and  C_2
REMARK    2  A    between atoms: C_7  and  S_8
REMARK    3  A    between atoms: S_8  and  N_11
REMARK    4  A    between atoms: C_19  and  C_20
REMARK                            x       y       z     vdW  Elec       q    Type
REMARK                         _______ _______ _______ _____ _____    ______ ____
ROOT
ATOM      1  N   UNL     1       3.735   6.108  17.123  0.00  0.00    +0.000 NA
ATOM      2  C   UNL     1       3.674   4.687  17.504  0.00  0.00    +0.000 C 
ATOM      3  C   UNL     1       2.736   4.349  18.650  0.00  0.00    +0.000 A 
ATOM      4  C   UNL     1       2.378   3.010  18.868  0.00  0.00    +0.000 A 
ATOM      5  C   UNL     1       1.630   2.652  19.988  0.00  0.00    +0.000 A 
ATOM      6  C   UNL     1       1.255   3.623  20.913  0.00  0.00    +0.000 A 
ATOM      7  C   UNL     1       1.588   4.961  20.701  0.00  0.00    +0.000 A 
ATOM      8  C   UNL     1       2.296   5.345  19.553  0.00  0.00    +0.000 A 
ATOM      9  C   UNL     1       2.674   6.789  19.256  0.00  0.00    +0.000 C 
ATOM     10  C   UNL     1       2.696   6.978  17.725  0.00  0.00    +0.000 C 
ENDROOT
BRANCH   9  11
ATOM     11  C   UNL     1       1.853   7.884  19.917  0.00  0.00    +0.000 A 
ATOM     12  C   UNL     1       1.365   8.929  19.114  0.00  0.00    +0.000 A 
ATOM     13  C   UNL     1       0.525   9.908  19.642  0.00  0.00    +0.000 A 
ATOM     14  C   UNL     1       0.164   9.862  20.985  0.00  0.00    +0.000 A 
ATOM     15  C   UNL     1       0.668   8.854  21.806  0.00  0.00    +0.000 A 
ATOM     16  C   UNL     1       1.509   7.868  21.278  0.00  0.00    +0.000 A 
ENDBRANCH   9  11
BRANCH   1  17
ATOM     17  S   UNL     1       5.232   6.751  16.692  0.00  0.00    +0.000 S 
ATOM     18  O   UNL     1       5.526   7.846  17.609  0.00  0.00    +0.000 OA
ATOM     19  O   UNL     1       5.218   6.971  15.264  0.00  0.00    +0.000 OA
BRANCH  17  26
ATOM     20  C   UNL     1       7.066   5.639  19.549  0.00  0.00    +0.000 C 
ATOM     21  C   UNL     1       7.144   5.292  18.117  0.00  0.00    +0.000 A 
ATOM     22  O   UNL     1       8.074   4.335  17.832  0.00  0.00    +0.000 OA
ATOM     23  N   UNL     1       8.034   4.028  16.490  0.00  0.00    +0.000 NA
ATOM     24  C   UNL     1       7.081   4.797  15.965  0.00  0.00    +0.000 A 
ATOM     25  N   UNL     1       6.719   4.725  14.667  0.00  0.00    +0.000 N 
ATOM     26  C   UNL     1       6.512   5.644  16.941  0.00  0.00    +0.000 A 
ATOM     27  H   UNL     1       6.983   3.868  14.186  0.00  0.00    +0.000 HD
ATOM     28  H   UNL     1       5.773   5.022  14.416  0.00  0.00    +0.000 HD
ENDBRANCH  17  26
ENDBRANCH   1  17
TORSDOF 3
ENDMDL
MODEL 4
REMARK VINA RESULT:      -9.1      0.908      1.573
REMARK  Name = 
REMARK  4 active torsions:
REMARK  status: ('A' for Active; 'I' for Inactive)
REMARK    1  A    between atoms: C_1  and  C_2
REMARK    2  A    between atoms: C_7  and  S_8
REMARK    3  A    between atoms: S_8  and  N_11
REMARK    4  A    between atoms: C_19  and  C_20
REMARK                            x       y       z     vdW  Elec       q    Type
REMARK                         _______ _______ _______ _____ _____    ______ ____
ROOT
ATOM      1  N   UNL     1       3.798   5.149  16.747  0.00  0.00    +0.000 NA
ATOM      2  C   UNL     1       3.423   3.774  17.117  0.00  0.00    +0.000 C 
ATOM      3  C   UNL     1       2.381   3.645  18.214  0.00  0.00    +0.000 A 
ATOM      4  C   UNL     1       1.741   2.412  18.407  0.00  0.00    +0.000 A 
ATOM      5  C   UNL     1       0.881   2.223  19.488  0.00  0.00    +0.000 A 
ATOM      6  C   UNL     1       0.672   3.255  20.398  0.00  0.00    +0.000 A 
ATOM      7  C   UNL     1       1.288   4.494  20.210  0.00  0.00    +0.000 A 
ATOM      8  C   UNL     1       2.115   4.715  19.100  0.00  0.00    +0.000 A 
ATOM      9  C   UNL     1       2.800   6.047  18.830  0.00  0.00    +0.000 C 
ATOM     10  C   UNL     1       2.936   6.220  17.303  0.00  0.00    +0.000 C 
ENDROOT
BRANCH   9  11
ATOM     11  C   UNL     1       2.195   7.293  19.456  0.00  0.00    +0.000 A 
ATOM     12  C   UNL     1       1.903   8.385  18.621  0.00  0.00    +0.000 A 
ATOM     13  C   UNL     1       1.256   9.515  19.118  0.00  0.00    +0.000 A 
ATOM     14  C   UNL     1       0.899   9.576  20.461  0.00  0.00    +0.000 A 
ATOM     15  C   UNL     1       1.213   8.518  21.312  0.00  0.00    +0.000 A 
ATOM     16  C   UNL     1       1.859   7.380  20.816  0.00  0.00    +0.000 A 
ENDBRANCH   9  11
BRANCH   1  17
ATOM     17  S   UNL     1       5.415   5.464  16.393  0.00  0.00    +0.000 S 
ATOM     18  O   UNL     1       5.480   6.750  15.710  0.00  0.00    +0.000 OA
ATOM     19  O   UNL     1       5.968   4.277  15.780  0.00  0.00    +0.000 OA
BRANCH  17  26
ATOM     20  C   UNL     1       5.581   3.869  19.586  0.00  0.00    +0.000 C 
ATOM     21  C   UNL     1       6.328   4.995  18.994  0.00  0.00    +0.000 A 
ATOM     22  O   UNL     1       7.295   5.505  19.810  0.00  0.00    +0.000 OA
ATOM     23  N   UNL     1       7.982   6.503  19.157  0.00  0.00    +0.000 NA
ATOM     24  C   UNL     1       7.433   6.596  17.946  0.00  0.00    +0.000 A 
ATOM     25  N   UNL     1       7.894   7.441  17.000  0.00  0.00    +0.000 N 
ATOM     26  C   UNL     1       6.357   5.693  17.803  0.00  0.00    +0.000 A 
ATOM     27  H   UNL     1       8.844   7.776  17.138  0.00  0.00    +0.000 HD
ATOM     28  H   UNL     1       7.715   7.206  16.021  0.00  0.00    +0.000 HD
ENDBRANCH  17  26
ENDBRANCH   1  17
TORSDOF 3
ENDMDL
MODEL 5
REMARK VINA RESULT:      -8.4      1.038      1.053
REMARK  Name = 
REMARK  4 active torsions:
REMARK  status: ('A' for Active; 'I' for Inactive)
REMARK    1  A    between atoms: C_1  and  C_2
REMARK    2  A    between atoms: C_7  and  S_8
REMARK    3  A    between atoms: S_8  and  N_11
REMARK    4  A    between atoms: C_19  and  C_20
REMARK                            x       y       z     vdW  Elec       q    Type
REMARK                         _______ _______ _______ _____ _____    ______ ____
ROOT
ATOM      1  N   UNL     1       4.275   5.201  16.831  0.00  0.00    +0.000 NA
ATOM      2  C   UNL     1       4.317   3.971  17.641  0.00  0.00    +0.000 C 
ATOM      3  C   UNL     1       3.434   3.961  18.876  0.00  0.00    +0.000 A 
ATOM      4  C   UNL     1       3.170   2.742  19.518  0.00  0.00    +0.000 A 
ATOM      5  C   UNL     1       2.477   2.715  20.727  0.00  0.00    +0.000 A 
ATOM      6  C   UNL     1       2.064   3.906  21.317  0.00  0.00    +0.000 A 
ATOM      7  C   UNL     1       2.303   5.125  20.682  0.00  0.00    +0.000 A 
ATOM      8  C   UNL     1       2.953   5.166  19.441  0.00  0.00    +0.000 A 
ATOM      9  C   UNL     1       3.228   6.461  18.691  0.00  0.00    +0.000 C 
ATOM     10  C   UNL     1       3.198   6.159  17.179  0.00  0.00    +0.000 C 
ENDROOT
BRANCH   9  11
ATOM     11  C   UNL     1       2.355   7.663  19.013  0.00  0.00    +0.000 A 
ATOM     12  C   UNL     1       2.017   8.540  17.969  0.00  0.00    +0.000 A 
ATOM     13  C   UNL     1       1.140   9.602  18.180  0.00  0.00    +0.000 A 
ATOM     14  C   UNL     1       0.592   9.810  19.442  0.00  0.00    +0.000 A 
ATOM     15  C   UNL     1       0.945   8.972  20.499  0.00  0.00    +0.000 A 
ATOM     16  C   UNL     1       1.823   7.902  20.289  0.00  0.00    +0.000 A 
ENDBRANCH   9  11
BRANCH   1  17
ATOM     17  S   UNL     1       5.714   5.755  16.154  0.00  0.00    +0.000 S 
ATOM     18  O   UNL     1       5.438   7.029  15.500  0.00  0.00    +0.000 OA
ATOM     19  O   UNL     1       6.300   4.660  15.414  0.00  0.00    +0.000 OA
BRANCH  17  26
ATOM     20  C   UNL     1       7.161   8.794  17.353  0.00  0.00    +0.000 C 
ATOM     21  C   UNL     1       7.366   7.379  17.719  0.00  0.00    +0.000 A 
ATOM     22  O   UNL     1       8.256   7.197  18.738  0.00  0.00    +0.000 OA
ATOM     23  N   UNL     1       8.337   5.860  19.056  0.00  0.00    +0.000 NA
ATOM     24  C   UNL     1       7.497   5.234  18.232  0.00  0.00    +0.000 A 
ATOM     25  N   UNL     1       7.270   3.905  18.294  0.00  0.00    +0.000 N 
ATOM     26  C   UNL     1       6.886   6.142  17.339  0.00  0.00    +0.000 A 
ATOM     27  H   UNL     1       7.526   3.459  19.171  0.00  0.00    +0.000 HD
ATOM     28  H   UNL     1       6.377   3.555  17.938  0.00  0.00    +0.000 HD
ENDBRANCH  17  26
ENDBRANCH   1  17
TORSDOF 3
ENDMDL
MODEL 6
REMARK VINA RESULT:      -8.3      1.403      1.828
REMARK  Name = 
REMARK  4 active torsions:
REMARK  status: ('A' for Active; 'I' for Inactive)
REMARK    1  A    between atoms: C_1  and  C_2
REMARK    2  A    between atoms: C_7  and  S_8
REMARK    3  A    between atoms: S_8  and  N_11
REMARK    4  A    between atoms: C_19  and  C_20
REMARK                            x       y       z     vdW  Elec       q    Type
REMARK                         _______ _______ _______ _____ _____    ______ ____
ROOT
ATOM      1  N   UNL     1       4.649   4.294  17.467  0.00  0.00    +0.000 NA
ATOM      2  C   UNL     1       4.085   3.038  17.988  0.00  0.00    +0.000 C 
ATOM      3  C   UNL     1       2.771   3.163  18.738  0.00  0.00    +0.000 A 
ATOM      4  C   UNL     1       2.014   2.008  18.987  0.00  0.00    +0.000 A 
ATOM      5  C   UNL     1       0.875   2.070  19.788  0.00  0.00    +0.000 A 
ATOM      6  C   UNL     1       0.495   3.278  20.365  0.00  0.00    +0.000 A 
ATOM      7  C   UNL     1       1.227   4.438  20.112  0.00  0.00    +0.000 A 
ATOM      8  C   UNL     1       2.346   4.404  19.268  0.00  0.00    +0.000 A 
ATOM      9  C   UNL     1       3.175   5.637  18.940  0.00  0.00    +0.000 C 
ATOM     10  C   UNL     1       3.746   5.470  17.516  0.00  0.00    +0.000 C 
ENDROOT
BRANCH   9  11
ATOM     11  C   UNL     1       2.512   6.996  19.093  0.00  0.00    +0.000 A 
ATOM     12  C   UNL     1       2.359   7.796  17.947  0.00  0.00    +0.000 A 
ATOM     13  C   UNL     1       1.670   9.006  18.005  0.00  0.00    +0.000 A 
ATOM     14  C   UNL     1       1.130   9.441  19.211  0.00  0.00    +0.000 A 
ATOM     15  C   UNL     1       1.303   8.678  20.365  0.00  0.00    +0.000 A 
ATOM     16  C   UNL     1       1.991   7.461  20.310  0.00  0.00    +0.000 A 
ENDBRANCH   9  11
BRANCH   1  17
ATOM     17  S   UNL     1       6.319   4.507  17.540  0.00  0.00    +0.000 S 
ATOM     18  O   UNL     1       6.902   3.866  16.367  0.00  0.00    +0.000 OA
ATOM     19  O   UNL     1       6.749   4.137  18.869  0.00  0.00    +0.000 OA
BRANCH  17  26
ATOM     20  C   UNL     1       5.310   7.201  15.421  0.00  0.00    +0.000 C 
ATOM     21  C   UNL     1       6.298   7.107  16.514  0.00  0.00    +0.000 A 
ATOM     22  O   UNL     1       6.923   8.287  16.794  0.00  0.00    +0.000 OA
ATOM     23  N   UNL     1       7.776   8.124  17.862  0.00  0.00    +0.000 NA
ATOM     24  C   UNL     1       7.665   6.847  18.229  0.00  0.00    +0.000 A 
ATOM     25  N   UNL     1       8.320   6.336  19.293  0.00  0.00    +0.000 N 
ATOM     26  C   UNL     1       6.774   6.149  17.386  0.00  0.00    +0.000 A 
ATOM     27  H   UNL     1       8.654   7.017  19.970  0.00  0.00    +0.000 HD
ATOM     28  H   UNL     1       7.919   5.513  19.751  0.00  0.00    +0.000 HD
ENDBRANCH  17  26
ENDBRANCH   1  17
TORSDOF 3
ENDMDL
MODEL 7
REMARK VINA RESULT:      -8.2      3.651      6.118
REMARK  Name = 
REMARK  4 active torsions:
REMARK  status: ('A' for Active; 'I' for Inactive)
REMARK    1  A    between atoms: C_1  and  C_2
REMARK    2  A    between atoms: C_7  and  S_8
REMARK    3  A    between atoms: S_8  and  N_11
REMARK    4  A    between atoms: C_19  and  C_20
REMARK                            x       y       z     vdW  Elec       q    Type
REMARK                         _______ _______ _______ _____ _____    ______ ____
ROOT
ATOM      1  N   UNL     1       2.448   7.280  19.336  0.00  0.00    +0.000 NA
ATOM      2  C   UNL     1       1.511   6.334  19.966  0.00  0.00    +0.000 C 
ATOM      3  C   UNL     1       1.882   4.865  19.859  0.00  0.00    +0.000 A 
ATOM      4  C   UNL     1       1.233   3.935  20.685  0.00  0.00    +0.000 A 
ATOM      5  C   UNL     1       1.452   2.569  20.518  0.00  0.00    +0.000 A 
ATOM      6  C   UNL     1       2.300   2.119  19.510  0.00  0.00    +0.000 A 
ATOM      7  C   UNL     1       2.966   3.033  18.692  0.00  0.00    +0.000 A 
ATOM      8  C   UNL     1       2.796   4.411  18.880  0.00  0.00    +0.000 A 
ATOM      9  C   UNL     1       3.507   5.457  18.033  0.00  0.00    +0.000 C 
ATOM     10  C   UNL     1       3.746   6.706  18.908  0.00  0.00    +0.000 C 
ENDROOT
BRANCH   9  11
ATOM     11  C   UNL     1       4.790   5.044  17.330  0.00  0.00    +0.000 A 
ATOM     12  C   UNL     1       4.738   4.779  15.951  0.00  0.00    +0.000 A 
ATOM     13  C   UNL     1       5.898   4.494  15.232  0.00  0.00    +0.000 A 
ATOM     14  C   UNL     1       7.127   4.460  15.882  0.00  0.00    +0.000 A 
ATOM     15  C   UNL     1       7.193   4.685  17.256  0.00  0.00    +0.000 A 
ATOM     16  C   UNL     1       6.031   4.975  17.981  0.00  0.00    +0.000 A 
ENDBRANCH   9  11
BRANCH   1  17
ATOM     17  S   UNL     1       1.808   8.616  18.534  0.00  0.00    +0.000 S 
ATOM     18  O   UNL     1       0.977   8.125  17.441  0.00  0.00    +0.000 OA
ATOM     19  O   UNL     1       2.895   9.533  18.276  0.00  0.00    +0.000 OA
BRANCH  17  26
ATOM     20  C   UNL     1       1.491   9.185  22.047  0.00  0.00    +0.000 C 
ATOM     21  C   UNL     1       0.709   9.653  20.886  0.00  0.00    +0.000 A 
ATOM     22  O   UNL     1      -0.314  10.495  21.214  0.00  0.00    +0.000 OA
ATOM     23  N   UNL     1      -0.947  10.931  20.072  0.00  0.00    +0.000 NA
ATOM     24  C   UNL     1      -0.307  10.355  19.054  0.00  0.00    +0.000 A 
ATOM     25  N   UNL     1      -0.620  10.601  17.765  0.00  0.00    +0.000 N 
ATOM     26  C   UNL     1       0.723   9.506  19.514  0.00  0.00    +0.000 A 
ATOM     27  H   UNL     1      -1.146  11.454  17.597  0.00  0.00    +0.000 HD
ATOM     28  H   UNL     1       0.110  10.463  17.061  0.00  0.00    +0.000 HD
ENDBRANCH  17  26
ENDBRANCH   1  17
TORSDOF 3
ENDMDL
MODEL 8
REMARK VINA RESULT:      -8.1      3.587      6.025
REMARK  Name = 
REMARK  4 active torsions:
REMARK  status: ('A' for Active; 'I' for Inactive)
REMARK    1  A    between atoms: C_1  and  C_2
REMARK    2  A    between atoms: C_7  and  S_8
REMARK    3  A    between atoms: S_8  and  N_11
REMARK    4  A    between atoms: C_19  and  C_20
REMARK                            x       y       z     vdW  Elec       q    Type
REMARK                         _______ _______ _______ _____ _____    ______ ____
ROOT
ATOM      1  N   UNL     1       2.415   7.054  19.087  0.00  0.00    +0.000 NA
ATOM      2  C   UNL     1       1.458   5.988  19.431  0.00  0.00    +0.000 C 
ATOM      3  C   UNL     1       1.873   4.578  19.048  0.00  0.00    +0.000 A 
ATOM      4  C   UNL     1       1.189   3.489  19.609  0.00  0.00    +0.000 A 
ATOM      5  C   UNL     1       1.454   2.190  19.176  0.00  0.00    +0.000 A 
ATOM      6  C   UNL     1       2.385   1.971  18.165  0.00  0.00    +0.000 A 
ATOM      7  C   UNL     1       3.086   3.042  17.611  0.00  0.00    +0.000 A 
ATOM      8  C   UNL     1       2.868   4.348  18.069  0.00  0.00    +0.000 A 
ATOM      9  C   UNL     1       3.613   5.556  17.517  0.00  0.00    +0.000 C 
ATOM     10  C   UNL     1       3.755   6.594  18.650  0.00  0.00    +0.000 C 
ENDROOT
BRANCH   9  11
ATOM     11  C   UNL     1       4.954   5.312  16.845  0.00  0.00    +0.000 A 
ATOM     12  C   UNL     1       6.056   4.988  17.654  0.00  0.00    +0.000 A 
ATOM     13  C   UNL     1       7.287   4.657  17.090  0.00  0.00    +0.000 A 
ATOM     14  C   UNL     1       7.438   4.651  15.707  0.00  0.00    +0.000 A 
ATOM     15  C   UNL     1       6.365   5.004  14.889  0.00  0.00    +0.000 A 
ATOM     16  C   UNL     1       5.127   5.335  15.452  0.00  0.00    +0.000 A 
ENDBRANCH   9  11
BRANCH   1  17
ATOM     17  S   UNL     1       1.802   8.523  18.535  0.00  0.00    +0.000 S 
ATOM     18  O   UNL     1       0.838   8.236  17.480  0.00  0.00    +0.000 OA
ATOM     19  O   UNL     1       2.925   9.399  18.287  0.00  0.00    +0.000 OA
BRANCH  17  26
ATOM     20  C   UNL     1      -0.967  10.780  18.465  0.00  0.00    +0.000 C 
ATOM     21  C   UNL     1      -0.185  10.194  19.571  0.00  0.00    +0.000 A 
ATOM     22  O   UNL     1      -0.626  10.558  20.810  0.00  0.00    +0.000 OA
ATOM     23  N   UNL     1       0.115   9.919  21.778  0.00  0.00    +0.000 NA
ATOM     24  C   UNL     1       1.003   9.169  21.126  0.00  0.00    +0.000 A 
ATOM     25  N   UNL     1       1.870   8.350  21.758  0.00  0.00    +0.000 N 
ATOM     26  C   UNL     1       0.884   9.335  19.729  0.00  0.00    +0.000 A 
ATOM     27  H   UNL     1       1.620   8.102  22.712  0.00  0.00    +0.000 HD
ATOM     28  H   UNL     1       2.232   7.545  21.241  0.00  0.00    +0.000 HD
ENDBRANCH  17  26
ENDBRANCH   1  17
TORSDOF 3
ENDMDL
MODEL 9
REMARK VINA RESULT:      -8.1      6.797      9.395
REMARK  Name = 
REMARK  4 active torsions:
REMARK  status: ('A' for Active; 'I' for Inactive)
REMARK    1  A    between atoms: C_1  and  C_2
REMARK    2  A    between atoms: C_7  and  S_8
REMARK    3  A    between atoms: S_8  and  N_11
REMARK    4  A    between atoms: C_19  and  C_20
REMARK                            x       y       z     vdW  Elec       q    Type
REMARK                         _______ _______ _______ _____ _____    ______ ____
ROOT
ATOM      1  N   UNL     1      -1.097  12.455  20.853  0.00  0.00    +0.000 NA
ATOM      2  C   UNL     1      -2.277  12.635  19.990  0.00  0.00    +0.000 C 
ATOM      3  C   UNL     1      -2.465  11.592  18.901  0.00  0.00    +0.000 A 
ATOM      4  C   UNL     1      -3.705  11.500  18.250  0.00  0.00    +0.000 A 
ATOM      5  C   UNL     1      -3.867  10.650  17.159  0.00  0.00    +0.000 A 
ATOM      6  C   UNL     1      -2.790   9.902  16.693  0.00  0.00    +0.000 A 
ATOM      7  C   UNL     1      -1.556   9.968  17.342  0.00  0.00    +0.000 A 
ATOM      8  C   UNL     1      -1.389  10.781  18.472  0.00  0.00    +0.000 A 
ATOM      9  C   UNL     1      -0.075  10.883  19.232  0.00  0.00    +0.000 C 
ATOM     10  C   UNL     1      -0.396  11.156  20.716  0.00  0.00    +0.000 C 
ENDROOT
BRANCH   9  11
ATOM     11  C   UNL     1       0.909   9.732  19.101  0.00  0.00    +0.000 A 
ATOM     12  C   UNL     1       1.050   8.849  20.185  0.00  0.00    +0.000 A 
ATOM     13  C   UNL     1       1.860   7.719  20.089  0.00  0.00    +0.000 A 
ATOM     14  C   UNL     1       2.550   7.458  18.910  0.00  0.00    +0.000 A 
ATOM     15  C   UNL     1       2.451   8.342  17.836  0.00  0.00    +0.000 A 
ATOM     16  C   UNL     1       1.636   9.476  17.928  0.00  0.00    +0.000 A 
ENDBRANCH   9  11
BRANCH   1  17
ATOM     17  S   UNL     1      -0.248  13.829  21.333  0.00  0.00    +0.000 S 
ATOM     18  O   UNL     1       1.045  13.396  21.849  0.00  0.00    +0.000 OA
ATOM     19  O   UNL     1      -1.134  14.629  22.147  0.00  0.00    +0.000 OA
BRANCH  17  26
ATOM     20  C   UNL     1       2.428  13.935  18.967  0.00  0.00    +0.000 C 
ATOM     21  C   UNL     1       1.230  14.776  19.157  0.00  0.00    +0.000 A 
ATOM     22  O   UNL     1       1.100  15.767  18.228  0.00  0.00    +0.000 OA
ATOM     23  N   UNL     1      -0.070  16.459  18.441  0.00  0.00    +0.000 NA
ATOM     24  C   UNL     1      -0.649  15.887  19.497  0.00  0.00    +0.000 A 
ATOM     25  N   UNL     1      -1.856  16.270  19.964  0.00  0.00    +0.000 N 
ATOM     26  C   UNL     1       0.149  14.843  20.013  0.00  0.00    +0.000 A 
ATOM     27  H   UNL     1      -2.432  16.794  19.309  0.00  0.00    +0.000 HD
ATOM     28  H   UNL     1      -2.407  15.585  20.486  0.00  0.00    +0.000 HD
ENDBRANCH  17  26
ENDBRANCH   1  17
TORSDOF 3
ENDMDL
