MODEL 1
REMARK VINA RESULT:      -8.4      0.000      0.000
REMARK  Name = 
REMARK  6 active torsions:
REMARK  status: ('A' for Active; 'I' for Inactive)
REMARK    1  A    between atoms: N_6  and  C_7
REMARK    2  A    between atoms: C_7  and  C_8
REMARK    3  A    between atoms: C_12  and  C_13
REMARK    4  A    between atoms: C_16  and  C_17
REMARK    5  A    between atoms: N_21  and  C_22
REMARK    6  A    between atoms: C_22  and  C_23
REMARK                            x       y       z     vdW  Elec       q    Type
REMARK                         _______ _______ _______ _____ _____    ______ ____
ROOT
ATOM      1  C   UNL     1       2.978   6.374  18.402  0.00  0.00    +0.000 A 
ATOM      2  N   UNL     1       2.724   5.061  18.513  0.00  0.00    +0.000 NA
ATOM      3  O   UNL     1       3.672   4.471  17.679  0.00  0.00    +0.000 OA
ATOM      4  C   UNL     1       4.421   5.486  17.143  0.00  0.00    +0.000 A 
ATOM      5  N   UNL     1       4.032   6.664  17.568  0.00  0.00    +0.000 NA
ENDROOT
BRANCH   1  10
ATOM      6  C   UNL     1       1.187   9.608  19.175  0.00  0.00    +0.000 A 
ATOM      7  C   UNL     1       0.786   9.367  20.500  0.00  0.00    +0.000 A 
ATOM      8  C   UNL     1       1.119   8.171  21.130  0.00  0.00    +0.000 A 
ATOM      9  C   UNL     1       1.855   7.202  20.447  0.00  0.00    +0.000 A 
ATOM     10  C   UNL     1       2.263   7.419  19.123  0.00  0.00    +0.000 A 
ATOM     11  C   UNL     1       1.938   8.634  18.503  0.00  0.00    +0.000 A 
BRANCH   6  12
ATOM     12  C   UNL     1       0.811  10.899  18.492  0.00  0.00    +0.000 C 
BRANCH  12  18
ATOM     13  O   UNL     1      -1.548   9.765  17.168  0.00  0.00    +0.000 OA
ATOM     14  C   UNL     1      -1.620  10.684  17.966  0.00  0.00    +0.000 C 
ATOM     15  C   UNL     1      -2.864  11.481  18.276  0.00  0.00    +0.000 C 
ATOM     16  C   UNL     1      -2.499  12.198  19.570  0.00  0.00    +0.000 C 
ATOM     17  C   UNL     1      -0.996  12.373  19.476  0.00  0.00    +0.000 C 
ATOM     18  N   UNL     1      -0.579  11.244  18.688  0.00  0.00    +0.000 N 
ENDBRANCH  12  18
ENDBRANCH   6  12
ENDBRANCH   1  10
BRANCH   4  19
ATOM     19  C   UNL     1       5.490   5.280  16.221  0.00  0.00    +0.000 A 
ATOM     20  C   UNL     1       5.442   4.726  14.957  0.00  0.00    +0.000 A 
ATOM     21  C   UNL     1       6.757   4.804  14.472  0.00  0.00    +0.000 A 
ATOM     22  N   UNL     1       7.591   5.353  15.358  0.00  0.00    +0.000 NA
ATOM     23  N   UNL     1       6.809   5.602  16.434  0.00  0.00    +0.000 N 
BRANCH  23  24
ATOM     24  C   UNL     1       7.462   6.048  17.646  0.00  0.00    +0.000 C 
BRANCH  24  25
ATOM     25  C   UNL     1       7.882   7.496  17.580  0.00  0.00    +0.000 C 
ATOM     26  F   UNL     1       6.805   8.318  17.538  0.00  0.00    +0.000 F 
ATOM     27  F   UNL     1       8.549   7.812  18.726  0.00  0.00    +0.000 F 
ENDBRANCH  24  25
ENDBRANCH  23  24
ENDBRANCH   4  19
TORSDOF 6
ENDMDL
MODEL 2
REMARK VINA RESULT:      -8.4      1.262      1.553
REMARK  Name = 
REMARK  6 active torsions:
REMARK  status: ('A' for Active; 'I' for Inactive)
REMARK    1  A    between atoms: N_6  and  C_7
REMARK    2  A    between atoms: C_7  and  C_8
REMARK    3  A    between atoms: C_12  and  C_13
REMARK    4  A    between atoms: C_16  and  C_17
REMARK    5  A    between atoms: N_21  and  C_22
REMARK    6  A    between atoms: C_22  and  C_23
REMARK                            x       y       z     vdW  Elec       q    Type
REMARK                         _______ _______ _______ _____ _____    ______ ____
ROOT
ATOM      1  C   UNL     1       2.917   6.469  18.370  0.00  0.00    +0.000 A 
ATOM      2  N   UNL     1       2.621   5.161  18.421  0.00  0.00    +0.000 NA
ATOM      3  O   UNL     1       3.581   4.575  17.597  0.00  0.00    +0.000 OA
ATOM      4  C   UNL     1       4.378   5.587  17.128  0.00  0.00    +0.000 A 
ATOM      5  N   UNL     1       4.009   6.759  17.585  0.00  0.00    +0.000 NA
ENDROOT
BRANCH   1  10
ATOM      6  C   UNL     1       1.098   9.679  19.177  0.00  0.00    +0.000 A 
ATOM      7  C   UNL     1       0.741   9.441  20.515  0.00  0.00    +0.000 A 
ATOM      8  C   UNL     1       1.114   8.254  21.142  0.00  0.00    +0.000 A 
ATOM      9  C   UNL     1       1.844   7.293  20.444  0.00  0.00    +0.000 A 
ATOM     10  C   UNL     1       2.207   7.508  19.107  0.00  0.00    +0.000 A 
ATOM     11  C   UNL     1       1.844   8.713  18.489  0.00  0.00    +0.000 A 
BRANCH   6  12
ATOM     12  C   UNL     1       0.680  10.959  18.498  0.00  0.00    +0.000 C 
BRANCH  12  18
ATOM     13  O   UNL     1      -1.271  12.865  19.577  0.00  0.00    +0.000 OA
ATOM     14  C   UNL     1      -1.591  11.929  18.863  0.00  0.00    +0.000 C 
ATOM     15  C   UNL     1      -3.006  11.504  18.557  0.00  0.00    +0.000 C 
ATOM     16  C   UNL     1      -2.835  10.582  17.357  0.00  0.00    +0.000 C 
ATOM     17  C   UNL     1      -1.456   9.985  17.551  0.00  0.00    +0.000 C 
ATOM     18  N   UNL     1      -0.743  11.018  18.256  0.00  0.00    +0.000 N 
ENDBRANCH  12  18
ENDBRANCH   6  12
ENDBRANCH   1  10
BRANCH   4  19
ATOM     19  C   UNL     1       5.473   5.383  16.237  0.00  0.00    +0.000 A 
ATOM     20  C   UNL     1       5.505   4.655  15.064  0.00  0.00    +0.000 A 
ATOM     21  C   UNL     1       6.805   4.822  14.563  0.00  0.00    +0.000 A 
ATOM     22  N   UNL     1       7.558   5.587  15.356  0.00  0.00    +0.000 NA
ATOM     23  N   UNL     1       6.742   5.890  16.392  0.00  0.00    +0.000 N 
BRANCH  23  24
ATOM     24  C   UNL     1       7.324   6.578  17.524  0.00  0.00    +0.000 C 
BRANCH  24  25
ATOM     25  C   UNL     1       7.714   5.637  18.637  0.00  0.00    +0.000 C 
ATOM     26  F   UNL     1       6.669   5.401  19.469  0.00  0.00    +0.000 F 
ATOM     27  F   UNL     1       8.040   4.429  18.096  0.00  0.00    +0.000 F 
ENDBRANCH  24  25
ENDBRANCH  23  24
ENDBRANCH   4  19
TORSDOF 6
ENDMDL
MODEL 3
REMARK VINA RESULT:      -8.2      3.891      8.235
REMARK  Name = 
REMARK  6 active torsions:
REMARK  status: ('A' for Active; 'I' for Inactive)
REMARK    1  A    between atoms: N_6  and  C_7
REMARK    2  A    between atoms: C_7  and  C_8
REMARK    3  A    between atoms: C_12  and  C_13
REMARK    4  A    between atoms: C_16  and  C_17
REMARK    5  A    between atoms: N_21  and  C_22
REMARK    6  A    between atoms: C_22  and  C_23
REMARK                            x       y       z     vdW  Elec       q    Type
REMARK                         _______ _______ _______ _____ _____    ______ ____
ROOT
ATOM      1  C   UNL     1       2.177   8.037  18.486  0.00  0.00    +0.000 A 
ATOM      2  N   UNL     1       1.773   9.094  17.766  0.00  0.00    +0.000 NA
ATOM      3  O   UNL     1       1.061   9.865  18.683  0.00  0.00    +0.000 OA
ATOM      4  C   UNL     1       1.107   9.202  19.883  0.00  0.00    +0.000 A 
ATOM      5  N   UNL     1       1.788   8.084  19.804  0.00  0.00    +0.000 NA
ENDROOT
BRANCH   1  10
ATOM      6  C   UNL     1       3.401   4.566  17.637  0.00  0.00    +0.000 A 
ATOM      7  C   UNL     1       4.536   4.876  16.869  0.00  0.00    +0.000 A 
ATOM      8  C   UNL     1       4.901   6.203  16.657  0.00  0.00    +0.000 A 
ATOM      9  C   UNL     1       4.138   7.235  17.205  0.00  0.00    +0.000 A 
ATOM     10  C   UNL     1       2.999   6.949  17.971  0.00  0.00    +0.000 A 
ATOM     11  C   UNL     1       2.650   5.609  18.194  0.00  0.00    +0.000 A 
BRANCH   6  12
ATOM     12  C   UNL     1       3.002   3.127  17.852  0.00  0.00    +0.000 C 
BRANCH  12  18
ATOM     13  O   UNL     1       0.316   2.495  18.848  0.00  0.00    +0.000 OA
ATOM     14  C   UNL     1       1.276   2.631  19.587  0.00  0.00    +0.000 C 
ATOM     15  C   UNL     1       1.224   2.664  21.095  0.00  0.00    +0.000 C 
ATOM     16  C   UNL     1       2.681   2.460  21.493  0.00  0.00    +0.000 C 
ATOM     17  C   UNL     1       3.460   3.063  20.341  0.00  0.00    +0.000 C 
ATOM     18  N   UNL     1       2.589   2.866  19.213  0.00  0.00    +0.000 N 
ENDBRANCH  12  18
ENDBRANCH   6  12
ENDBRANCH   1  10
BRANCH   4  19
ATOM     19  C   UNL     1       0.475   9.674  21.071  0.00  0.00    +0.000 A 
ATOM     20  C   UNL     1      -0.236   8.955  22.012  0.00  0.00    +0.000 A 
ATOM     21  C   UNL     1      -0.596   9.891  22.994  0.00  0.00    +0.000 A 
ATOM     22  N   UNL     1      -0.164  11.120  22.704  0.00  0.00    +0.000 NA
ATOM     23  N   UNL     1       0.455  10.977  21.509  0.00  0.00    +0.000 N 
BRANCH  23  24
ATOM     24  C   UNL     1       0.890  12.180  20.833  0.00  0.00    +0.000 C 
BRANCH  24  25
ATOM     25  C   UNL     1      -0.237  12.884  20.119  0.00  0.00    +0.000 C 
ATOM     26  F   UNL     1      -1.219  12.015  19.775  0.00  0.00    +0.000 F 
ATOM     27  F   UNL     1      -0.810  13.775  20.976  0.00  0.00    +0.000 F 
ENDBRANCH  24  25
ENDBRANCH  23  24
ENDBRANCH   4  19
TORSDOF 6
ENDMDL
MODEL 4
REMARK VINA RESULT:      -8.2      4.914      6.848
REMARK  Name = 
REMARK  6 active torsions:
REMARK  status: ('A' for Active; 'I' for Inactive)
REMARK    1  A    between atoms: N_6  and  C_7
REMARK    2  A    between atoms: C_7  and  C_8
REMARK    3  A    between atoms: C_12  and  C_13
REMARK    4  A    between atoms: C_16  and  C_17
REMARK    5  A    between atoms: N_21  and  C_22
REMARK    6  A    between atoms: C_22  and  C_23
REMARK                            x       y       z     vdW  Elec       q    Type
REMARK                         _______ _______ _______ _____ _____    ______ ____
ROOT
ATOM      1  C   UNL     1       6.489   4.839  15.216  0.00  0.00    +0.000 A 
ATOM      2  N   UNL     1       7.341   5.612  14.526  0.00  0.00    +0.000 NA
ATOM      3  O   UNL     1       7.452   4.965  13.297  0.00  0.00    +0.000 OA
ATOM      4  C   UNL     1       6.645   3.858  13.353  0.00  0.00    +0.000 A 
ATOM      5  N   UNL     1       6.033   3.751  14.508  0.00  0.00    +0.000 NA
ENDROOT
BRANCH   1  10
ATOM      6  C   UNL     1       4.218   5.622  18.130  0.00  0.00    +0.000 A 
ATOM      7  C   UNL     1       5.133   5.548  19.194  0.00  0.00    +0.000 A 
ATOM      8  C   UNL     1       6.475   5.266  18.950  0.00  0.00    +0.000 A 
ATOM      9  C   UNL     1       6.919   5.055  17.645  0.00  0.00    +0.000 A 
ATOM     10  C   UNL     1       6.023   5.121  16.568  0.00  0.00    +0.000 A 
ATOM     11  C   UNL     1       4.677   5.423  16.822  0.00  0.00    +0.000 A 
BRANCH   6  12
ATOM     12  C   UNL     1       2.763   5.914  18.401  0.00  0.00    +0.000 C 
BRANCH  12  18
ATOM     13  O   UNL     1       1.688   3.409  17.317  0.00  0.00    +0.000 OA
ATOM     14  C   UNL     1       1.581   3.716  18.492  0.00  0.00    +0.000 C 
ATOM     15  C   UNL     1       0.766   2.973  19.522  0.00  0.00    +0.000 C 
ATOM     16  C   UNL     1       1.287   3.530  20.840  0.00  0.00    +0.000 C 
ATOM     17  C   UNL     1       1.719   4.941  20.493  0.00  0.00    +0.000 C 
ATOM     18  N   UNL     1       2.107   4.839  19.111  0.00  0.00    +0.000 N 
ENDBRANCH  12  18
ENDBRANCH   6  12
ENDBRANCH   1  10
BRANCH   4  19
ATOM     19  C   UNL     1       6.502   2.928  12.282  0.00  0.00    +0.000 A 
ATOM     20  C   UNL     1       7.459   2.103  11.724  0.00  0.00    +0.000 A 
ATOM     21  C   UNL     1       6.780   1.365  10.742  0.00  0.00    +0.000 A 
ATOM     22  N   UNL     1       5.490   1.696  10.662  0.00  0.00    +0.000 NA
ATOM     23  N   UNL     1       5.346   2.678  11.582  0.00  0.00    +0.000 N 
BRANCH  23  24
ATOM     24  C   UNL     1       4.079   3.377  11.621  0.00  0.00    +0.000 C 
BRANCH  24  25
ATOM     25  C   UNL     1       3.432   3.483  10.262  0.00  0.00    +0.000 C 
ATOM     26  F   UNL     1       2.378   2.637  10.154  0.00  0.00    +0.000 F 
ATOM     27  F   UNL     1       2.920   4.737  10.117  0.00  0.00    +0.000 F 
ENDBRANCH  24  25
ENDBRANCH  23  24
ENDBRANCH   4  19
TORSDOF 6
ENDMDL
MODEL 5
REMARK VINA RESULT:      -8.1      3.464      8.253
REMARK  Name = 
REMARK  6 active torsions:
REMARK  status: ('A' for Active; 'I' for Inactive)
REMARK    1  A    between atoms: N_6  and  C_7
REMARK    2  A    between atoms: C_7  and  C_8
REMARK    3  A    between atoms: C_12  and  C_13
REMARK    4  A    between atoms: C_16  and  C_17
REMARK    5  A    between atoms: N_21  and  C_22
REMARK    6  A    between atoms: C_22  and  C_23
REMARK                            x       y       z     vdW  Elec       q    Type
REMARK                         _______ _______ _______ _____ _____    ______ ____
ROOT
ATOM      1  C   UNL     1       2.576   7.879  18.086  0.00  0.00    +0.000 A 
ATOM      2  N   UNL     1       2.424   9.017  17.392  0.00  0.00    +0.000 NA
ATOM      3  O   UNL     1       1.682   9.829  18.248  0.00  0.00    +0.000 OA
ATOM      4  C   UNL     1       1.459   9.106  19.392  0.00  0.00    +0.000 A 
ATOM      5  N   UNL     1       1.997   7.912  19.334  0.00  0.00    +0.000 NA
ENDROOT
BRANCH   1  10
ATOM      6  C   UNL     1       3.625   4.301  17.486  0.00  0.00    +0.000 A 
ATOM      7  C   UNL     1       4.710   4.496  16.616  0.00  0.00    +0.000 A 
ATOM      8  C   UNL     1       5.099   5.783  16.253  0.00  0.00    +0.000 A 
ATOM      9  C   UNL     1       4.411   6.889  16.752  0.00  0.00    +0.000 A 
ATOM     10  C   UNL     1       3.323   6.718  17.620  0.00  0.00    +0.000 A 
ATOM     11  C   UNL     1       2.950   5.419  17.994  0.00  0.00    +0.000 A 
BRANCH   6  12
ATOM     12  C   UNL     1       3.198   2.904  17.865  0.00  0.00    +0.000 C 
BRANCH  12  18
ATOM     13  O   UNL     1       4.730   2.591  20.347  0.00  0.00    +0.000 OA
ATOM     14  C   UNL     1       3.511   2.620  20.325  0.00  0.00    +0.000 C 
ATOM     15  C   UNL     1       2.607   2.342  21.502  0.00  0.00    +0.000 C 
ATOM     16  C   UNL     1       1.261   2.885  21.036  0.00  0.00    +0.000 C 
ATOM     17  C   UNL     1       1.301   2.712  19.531  0.00  0.00    +0.000 C 
ATOM     18  N   UNL     1       2.702   2.826  19.220  0.00  0.00    +0.000 N 
ENDBRANCH  12  18
ENDBRANCH   6  12
ENDBRANCH   1  10
BRANCH   4  19
ATOM     19  C   UNL     1       0.716   9.597  20.506  0.00  0.00    +0.000 A 
ATOM     20  C   UNL     1       0.915   9.351  21.849  0.00  0.00    +0.000 A 
ATOM     21  C   UNL     1      -0.061  10.113  22.511  0.00  0.00    +0.000 A 
ATOM     22  N   UNL     1      -0.838  10.787  21.661  0.00  0.00    +0.000 NA
ATOM     23  N   UNL     1      -0.374  10.432  20.441  0.00  0.00    +0.000 N 
BRANCH  23  24
ATOM     24  C   UNL     1      -1.129  10.868  19.285  0.00  0.00    +0.000 C 
BRANCH  24  25
ATOM     25  C   UNL     1      -0.895  12.322  18.955  0.00  0.00    +0.000 C 
ATOM     26  F   UNL     1       0.425  12.630  19.007  0.00  0.00    +0.000 F 
ATOM     27  F   UNL     1      -1.279  12.546  17.666  0.00  0.00    +0.000 F 
ENDBRANCH  24  25
ENDBRANCH  23  24
ENDBRANCH   4  19
TORSDOF 6
ENDMDL
MODEL 6
REMARK VINA RESULT:      -8.1      3.770      8.181
REMARK  Name = 
REMARK  6 active torsions:
REMARK  status: ('A' for Active; 'I' for Inactive)
REMARK    1  A    between atoms: N_6  and  C_7
REMARK    2  A    between atoms: C_7  and  C_8
REMARK    3  A    between atoms: C_12  and  C_13
REMARK    4  A    between atoms: C_16  and  C_17
REMARK    5  A    between atoms: N_21  and  C_22
REMARK    6  A    between atoms: C_22  and  C_23
REMARK                            x       y       z     vdW  Elec       q    Type
REMARK                         _______ _______ _______ _____ _____    ______ ____
ROOT
ATOM      1  C   UNL     1       2.563   7.820  18.116  0.00  0.00    +0.000 A 
ATOM      2  N   UNL     1       2.438   8.953  17.409  0.00  0.00    +0.000 NA
ATOM      3  O   UNL     1       1.701   9.786  18.250  0.00  0.00    +0.000 OA
ATOM      4  C   UNL     1       1.453   9.078  19.398  0.00  0.00    +0.000 A 
ATOM      5  N   UNL     1       1.971   7.874  19.357  0.00  0.00    +0.000 NA
ENDROOT
BRANCH   1  10
ATOM      6  C   UNL     1       3.522   4.218  17.507  0.00  0.00    +0.000 A 
ATOM      7  C   UNL     1       4.657   4.389  16.698  0.00  0.00    +0.000 A 
ATOM      8  C   UNL     1       5.108   5.668  16.380  0.00  0.00    +0.000 A 
ATOM      9  C   UNL     1       4.432   6.788  16.863  0.00  0.00    +0.000 A 
ATOM     10  C   UNL     1       3.294   6.641  17.669  0.00  0.00    +0.000 A 
ATOM     11  C   UNL     1       2.859   5.349  17.999  0.00  0.00    +0.000 A 
BRANCH   6  12
ATOM     12  C   UNL     1       3.029   2.831  17.837  0.00  0.00    +0.000 C 
BRANCH  12  18
ATOM     13  O   UNL     1       0.292   2.452  18.823  0.00  0.00    +0.000 OA
ATOM     14  C   UNL     1       1.246   2.595  19.569  0.00  0.00    +0.000 C 
ATOM     15  C   UNL     1       1.169   2.763  21.067  0.00  0.00    +0.000 C 
ATOM     16  C   UNL     1       2.603   2.507  21.514  0.00  0.00    +0.000 C 
ATOM     17  C   UNL     1       3.438   2.958  20.332  0.00  0.00    +0.000 C 
ATOM     18  N   UNL     1       2.577   2.715  19.205  0.00  0.00    +0.000 N 
ENDBRANCH  12  18
ENDBRANCH   6  12
ENDBRANCH   1  10
BRANCH   4  19
ATOM     19  C   UNL     1       0.708   9.592  20.499  0.00  0.00    +0.000 A 
ATOM     20  C   UNL     1       0.924   9.403  21.849  0.00  0.00    +0.000 A 
ATOM     21  C   UNL     1      -0.066  10.165  22.491  0.00  0.00    +0.000 A 
ATOM     22  N   UNL     1      -0.867  10.786  21.623  0.00  0.00    +0.000 NA
ATOM     23  N   UNL     1      -0.405  10.396  20.412  0.00  0.00    +0.000 N 
BRANCH  23  24
ATOM     24  C   UNL     1      -1.180  10.769  19.248  0.00  0.00    +0.000 C 
BRANCH  24  25
ATOM     25  C   UNL     1      -0.802  12.127  18.711  0.00  0.00    +0.000 C 
ATOM     26  F   UNL     1      -1.432  12.383  17.538  0.00  0.00    +0.000 F 
ATOM     27  F   UNL     1      -1.237  13.080  19.584  0.00  0.00    +0.000 F 
ENDBRANCH  24  25
ENDBRANCH  23  24
ENDBRANCH   4  19
TORSDOF 6
ENDMDL
MODEL 7
REMARK VINA RESULT:      -8.1      1.461      2.098
REMARK  Name = 
REMARK  6 active torsions:
REMARK  status: ('A' for Active; 'I' for Inactive)
REMARK    1  A    between atoms: N_6  and  C_7
REMARK    2  A    between atoms: C_7  and  C_8
REMARK    3  A    between atoms: C_12  and  C_13
REMARK    4  A    between atoms: C_16  and  C_17
REMARK    5  A    between atoms: N_21  and  C_22
REMARK    6  A    between atoms: C_22  and  C_23
REMARK                            x       y       z     vdW  Elec       q    Type
REMARK                         _______ _______ _______ _____ _____    ______ ____
ROOT
ATOM      1  C   UNL     1       2.956   6.334  18.207  0.00  0.00    +0.000 A 
ATOM      2  N   UNL     1       2.613   5.038  18.262  0.00  0.00    +0.000 NA
ATOM      3  O   UNL     1       3.559   4.413  17.451  0.00  0.00    +0.000 OA
ATOM      4  C   UNL     1       4.396   5.393  16.983  0.00  0.00    +0.000 A 
ATOM      5  N   UNL     1       4.064   6.581  17.430  0.00  0.00    +0.000 NA
ENDROOT
BRANCH   1  10
ATOM      6  C   UNL     1       1.110   9.543  18.953  0.00  0.00    +0.000 A 
ATOM      7  C   UNL     1       0.872   9.387  20.329  0.00  0.00    +0.000 A 
ATOM      8  C   UNL     1       1.332   8.256  20.999  0.00  0.00    +0.000 A 
ATOM      9  C   UNL     1       2.031   7.268  20.305  0.00  0.00    +0.000 A 
ATOM     10  C   UNL     1       2.277   7.401  18.931  0.00  0.00    +0.000 A 
ATOM     11  C   UNL     1       1.826   8.553  18.269  0.00  0.00    +0.000 A 
BRANCH   6  12
ATOM     12  C   UNL     1       0.597  10.764  18.229  0.00  0.00    +0.000 C 
BRANCH  12  18
ATOM     13  O   UNL     1      -0.550  12.835  19.961  0.00  0.00    +0.000 OA
ATOM     14  C   UNL     1       0.563  12.930  19.471  0.00  0.00    +0.000 C 
ATOM     15  C   UNL     1       1.445  14.153  19.528  0.00  0.00    +0.000 C 
ATOM     16  C   UNL     1       2.811  13.610  19.127  0.00  0.00    +0.000 C 
ATOM     17  C   UNL     1       2.484  12.451  18.205  0.00  0.00    +0.000 C 
ATOM     18  N   UNL     1       1.215  11.984  18.697  0.00  0.00    +0.000 N 
ENDBRANCH  12  18
ENDBRANCH   6  12
ENDBRANCH   1  10
BRANCH   4  19
ATOM     19  C   UNL     1       5.490   5.146  16.103  0.00  0.00    +0.000 A 
ATOM     20  C   UNL     1       5.460   4.816  14.763  0.00  0.00    +0.000 A 
ATOM     21  C   UNL     1       6.806   4.731  14.374  0.00  0.00    +0.000 A 
ATOM     22  N   UNL     1       7.641   4.974  15.387  0.00  0.00    +0.000 NA
ATOM     23  N   UNL     1       6.821   5.188  16.443  0.00  0.00    +0.000 N 
BRANCH  23  24
ATOM     24  C   UNL     1       7.432   5.312  17.749  0.00  0.00    +0.000 C 
BRANCH  24  25
ATOM     25  C   UNL     1       7.565   6.748  18.193  0.00  0.00    +0.000 C 
ATOM     26  F   UNL     1       8.619   6.907  19.031  0.00  0.00    +0.000 F 
ATOM     27  F   UNL     1       7.835   7.521  17.103  0.00  0.00    +0.000 F 
ENDBRANCH  24  25
ENDBRANCH  23  24
ENDBRANCH   4  19
TORSDOF 6
ENDMDL
MODEL 8
REMARK VINA RESULT:      -8.0      4.102      8.372
REMARK  Name = 
REMARK  6 active torsions:
REMARK  status: ('A' for Active; 'I' for Inactive)
REMARK    1  A    between atoms: N_6  and  C_7
REMARK    2  A    between atoms: C_7  and  C_8
REMARK    3  A    between atoms: C_12  and  C_13
REMARK    4  A    between atoms: C_16  and  C_17
REMARK    5  A    between atoms: N_21  and  C_22
REMARK    6  A    between atoms: C_22  and  C_23
REMARK                            x       y       z     vdW  Elec       q    Type
REMARK                         _______ _______ _______ _____ _____    ______ ____
ROOT
ATOM      1  C   UNL     1       2.187   8.023  18.794  0.00  0.00    +0.000 A 
ATOM      2  N   UNL     1       1.812   8.021  20.082  0.00  0.00    +0.000 NA
ATOM      3  O   UNL     1       1.064   9.190  20.209  0.00  0.00    +0.000 OA
ATOM      4  C   UNL     1       1.049   9.792  18.977  0.00  0.00    +0.000 A 
ATOM      5  N   UNL     1       1.718   9.104  18.083  0.00  0.00    +0.000 NA
ENDROOT
BRANCH   1  10
ATOM      6  C   UNL     1       3.370   4.612  17.686  0.00  0.00    +0.000 A 
ATOM      7  C   UNL     1       4.423   4.973  16.829  0.00  0.00    +0.000 A 
ATOM      8  C   UNL     1       4.748   6.314  16.638  0.00  0.00    +0.000 A 
ATOM      9  C   UNL     1       4.027   7.309  17.299  0.00  0.00    +0.000 A 
ATOM     10  C   UNL     1       2.970   6.972  18.157  0.00  0.00    +0.000 A 
ATOM     11  C   UNL     1       2.663   5.618  18.356  0.00  0.00    +0.000 A 
BRANCH   6  12
ATOM     12  C   UNL     1       3.013   3.159  17.878  0.00  0.00    +0.000 C 
BRANCH  12  18
ATOM     13  O   UNL     1       0.326   2.494  18.850  0.00  0.00    +0.000 OA
ATOM     14  C   UNL     1       1.283   2.618  19.595  0.00  0.00    +0.000 C 
ATOM     15  C   UNL     1       1.226   2.617  21.103  0.00  0.00    +0.000 C 
ATOM     16  C   UNL     1       2.681   2.410  21.503  0.00  0.00    +0.000 C 
ATOM     17  C   UNL     1       3.462   3.041  20.367  0.00  0.00    +0.000 C 
ATOM     18  N   UNL     1       2.596   2.866  19.231  0.00  0.00    +0.000 N 
ENDBRANCH  12  18
ENDBRANCH   6  12
ENDBRANCH   1  10
BRANCH   4  19
ATOM     19  C   UNL     1       0.391  11.028  18.709  0.00  0.00    +0.000 A 
ATOM     20  C   UNL     1       0.879  12.312  18.850  0.00  0.00    +0.000 A 
ATOM     21  C   UNL     1      -0.156  13.150  18.406  0.00  0.00    +0.000 A 
ATOM     22  N   UNL     1      -1.233  12.462  18.022  0.00  0.00    +0.000 NA
ATOM     23  N   UNL     1      -0.896  11.171  18.248  0.00  0.00    +0.000 N 
BRANCH  23  24
ATOM     24  C   UNL     1      -1.931  10.172  18.090  0.00  0.00    +0.000 C 
BRANCH  24  25
ATOM     25  C   UNL     1      -3.213  10.747  17.540  0.00  0.00    +0.000 C 
ATOM     26  F   UNL     1      -3.231  10.697  16.185  0.00  0.00    +0.000 F 
ATOM     27  F   UNL     1      -4.255   9.973  17.955  0.00  0.00    +0.000 F 
ENDBRANCH  24  25
ENDBRANCH  23  24
ENDBRANCH   4  19
TORSDOF 6
ENDMDL
MODEL 9
REMARK VINA RESULT:      -8.0      0.927      1.078
REMARK  Name = 
REMARK  6 active torsions:
REMARK  status: ('A' for Active; 'I' for Inactive)
REMARK    1  A    between atoms: N_6  and  C_7
REMARK    2  A    between atoms: C_7  and  C_8
REMARK    3  A    between atoms: C_12  and  C_13
REMARK    4  A    between atoms: C_16  and  C_17
REMARK    5  A    between atoms: N_21  and  C_22
REMARK    6  A    between atoms: C_22  and  C_23
REMARK                            x       y       z     vdW  Elec       q    Type
REMARK                         _______ _______ _______ _____ _____    ______ ____
ROOT
ATOM      1  C   UNL     1       2.779   6.678  19.251  0.00  0.00    +0.000 A 
ATOM      2  N   UNL     1       3.023   5.512  19.870  0.00  0.00    +0.000 NA
ATOM      3  O   UNL     1       3.932   4.876  19.026  0.00  0.00    +0.000 OA
ATOM      4  C   UNL     1       4.162   5.724  17.973  0.00  0.00    +0.000 A 
ATOM      5  N   UNL     1       3.481   6.839  18.079  0.00  0.00    +0.000 NA
ENDROOT
BRANCH   1  10
ATOM      6  C   UNL     1       0.688   9.815  19.466  0.00  0.00    +0.000 A 
ATOM      7  C   UNL     1       0.125   9.659  20.744  0.00  0.00    +0.000 A 
ATOM      8  C   UNL     1       0.447   8.552  21.525  0.00  0.00    +0.000 A 
ATOM      9  C   UNL     1       1.332   7.589  21.042  0.00  0.00    +0.000 A 
ATOM     10  C   UNL     1       1.904   7.722  19.768  0.00  0.00    +0.000 A 
ATOM     11  C   UNL     1       1.587   8.850  18.996  0.00  0.00    +0.000 A 
BRANCH   6  12
ATOM     12  C   UNL     1       0.325  11.009  18.618  0.00  0.00    +0.000 C 
BRANCH  12  18
ATOM     13  O   UNL     1      -1.715   9.687  16.976  0.00  0.00    +0.000 OA
ATOM     14  C   UNL     1      -1.974  10.610  17.730  0.00  0.00    +0.000 C 
ATOM     15  C   UNL     1      -3.303  11.317  17.825  0.00  0.00    +0.000 C 
ATOM     16  C   UNL     1      -3.195  12.077  19.141  0.00  0.00    +0.000 C 
ATOM     17  C   UNL     1      -1.712  12.361  19.276  0.00  0.00    +0.000 C 
ATOM     18  N   UNL     1      -1.099  11.254  18.589  0.00  0.00    +0.000 N 
ENDBRANCH  12  18
ENDBRANCH   6  12
ENDBRANCH   1  10
BRANCH   4  19
ATOM     19  C   UNL     1       5.032   5.416  16.885  0.00  0.00    +0.000 A 
ATOM     20  C   UNL     1       4.911   4.415  15.943  0.00  0.00    +0.000 A 
ATOM     21  C   UNL     1       6.005   4.588  15.080  0.00  0.00    +0.000 A 
ATOM     22  N   UNL     1       6.779   5.612  15.445  0.00  0.00    +0.000 NA
ATOM     23  N   UNL     1       6.192   6.083  16.570  0.00  0.00    +0.000 N 
BRANCH  23  24
ATOM     24  C   UNL     1       6.897   7.103  17.316  0.00  0.00    +0.000 C 
BRANCH  24  25
ATOM     25  C   UNL     1       7.847   6.525  18.334  0.00  0.00    +0.000 C 
ATOM     26  F   UNL     1       8.637   7.488  18.870  0.00  0.00    +0.000 F 
ATOM     27  F   UNL     1       7.123   6.017  19.371  0.00  0.00    +0.000 F 
ENDBRANCH  24  25
ENDBRANCH  23  24
ENDBRANCH   4  19
TORSDOF 6
ENDMDL
