MODEL 1
REMARK VINA RESULT:      -7.9      0.000      0.000
REMARK  Name = 
REMARK  5 active torsions:
REMARK  status: ('A' for Active; 'I' for Inactive)
REMARK    1  A    between atoms: C_1  and  C_2
REMARK    2  A    between atoms: C_2  and  C_3
REMARK    3  A    between atoms: C_2  and  N_4
REMARK    4  A    between atoms: C_8  and  C_9
REMARK    5  A    between atoms: C_18  and  C_19
REMARK                            x       y       z     vdW  Elec       q    Type
REMARK                         _______ _______ _______ _____ _____    ______ ____
ROOT
ATOM      1  C   UNL     1       3.199   5.686  20.157  0.00  0.00    +0.000 C 
ATOM      2  C   UNL     1       2.698   6.579  19.286  0.00  0.00    +0.000 C 
ATOM      3  C   UNL     1       2.776   6.527  17.779  0.00  0.00    +0.000 C 
ATOM      4  C   UNL     1       2.821   7.991  17.402  0.00  0.00    +0.000 C 
ATOM      5  N   UNL     1       2.128   8.656  18.472  0.00  0.00    +0.000 N 
ATOM      6  C   UNL     1       2.031   7.882  19.625  0.00  0.00    +0.000 A 
ATOM      7  N   UNL     1       1.414   8.265  20.686  0.00  0.00    +0.000 NA
ATOM      8  C   UNL     1       0.784   9.542  20.640  0.00  0.00    +0.000 A 
ATOM      9  C   UNL     1      -0.067   9.950  21.679  0.00  0.00    +0.000 A 
ATOM     10  C   UNL     1      -0.701  11.216  21.655  0.00  0.00    +0.000 A 
ATOM     11  C   UNL     1      -0.467  12.084  20.576  0.00  0.00    +0.000 A 
ATOM     12  C   UNL     1       0.353  11.688  19.527  0.00  0.00    +0.000 A 
ATOM     13  C   UNL     1       0.949  10.424  19.560  0.00  0.00    +0.000 A 
ATOM     14  C   UNL     1       1.720   9.960  18.394  0.00  0.00    +0.000 A 
ATOM     15  O   UNL     1       1.948  10.701  17.445  0.00  0.00    +0.000 OA
ENDROOT
BRANCH   1  20
ATOM     16  N   UNL     1       2.769   3.294  19.601  0.00  0.00    +0.000 N 
ATOM     17  N   UNL     1       3.396   2.217  19.066  0.00  0.00    +0.000 NA
ATOM     18  C   UNL     1       4.636   2.630  18.831  0.00  0.00    +0.000 A 
ATOM     19  C   UNL     1       4.822   3.965  19.200  0.00  0.00    +0.000 A 
ATOM     20  C   UNL     1       3.602   4.397  19.698  0.00  0.00    +0.000 A 
BRANCH  16  22
ATOM     21  C   UNL     1       0.655   2.217  18.970  0.00  0.00    +0.000 C 
ATOM     22  C   UNL     1       1.356   3.155  19.952  0.00  0.00    +0.000 C 
ATOM     23  C   UNL     1       1.141   2.654  21.394  0.00  0.00    +0.000 C 
ENDBRANCH  16  22
ENDBRANCH   1  20
BRANCH  10  24
ATOM     24  C   UNL     1      -1.638  11.676  22.749  0.00  0.00    +0.000 C 
ATOM     25  F   UNL     1      -1.952  10.710  23.653  0.00  0.00    +0.000 F 
ATOM     26  F   UNL     1      -1.120  12.711  23.469  0.00  0.00    +0.000 F 
ATOM     27  F   UNL     1      -2.825  12.129  22.255  0.00  0.00    +0.000 F 
ENDBRANCH  10  24
TORSDOF 3
ENDMDL
MODEL 2
REMARK VINA RESULT:      -7.8      3.179      4.483
REMARK  Name = 
REMARK  5 active torsions:
REMARK  status: ('A' for Active; 'I' for Inactive)
REMARK    1  A    between atoms: C_1  and  C_2
REMARK    2  A    between atoms: C_2  and  C_3
REMARK    3  A    between atoms: C_2  and  N_4
REMARK    4  A    between atoms: C_8  and  C_9
REMARK    5  A    between atoms: C_18  and  C_19
REMARK                            x       y       z     vdW  Elec       q    Type
REMARK                         _______ _______ _______ _____ _____    ______ ____
ROOT
ATOM      1  C   UNL     1       4.311   6.538  16.573  0.00  0.00    +0.000 C 
ATOM      2  C   UNL     1       3.869   6.674  17.835  0.00  0.00    +0.000 C 
ATOM      3  C   UNL     1       4.183   5.785  19.013  0.00  0.00    +0.000 C 
ATOM      4  C   UNL     1       2.919   5.875  19.838  0.00  0.00    +0.000 C 
ATOM      5  N   UNL     1       2.373   7.165  19.514  0.00  0.00    +0.000 N 
ATOM      6  C   UNL     1       2.881   7.692  18.330  0.00  0.00    +0.000 A 
ATOM      7  N   UNL     1       2.563   8.852  17.876  0.00  0.00    +0.000 NA
ATOM      8  C   UNL     1       1.661   9.626  18.662  0.00  0.00    +0.000 A 
ATOM      9  C   UNL     1       1.413  10.970  18.339  0.00  0.00    +0.000 A 
ATOM     10  C   UNL     1       0.518  11.756  19.103  0.00  0.00    +0.000 A 
ATOM     11  C   UNL     1      -0.142  11.180  20.200  0.00  0.00    +0.000 A 
ATOM     12  C   UNL     1       0.107   9.859  20.550  0.00  0.00    +0.000 A 
ATOM     13  C   UNL     1       1.014   9.107  19.795  0.00  0.00    +0.000 A 
ATOM     14  C   UNL     1       1.367   7.749  20.237  0.00  0.00    +0.000 A 
ATOM     15  O   UNL     1       0.798   7.218  21.184  0.00  0.00    +0.000 OA
ENDROOT
BRANCH   1  20
ATOM     16  N   UNL     1       6.633   5.709  16.950  0.00  0.00    +0.000 N 
ATOM     17  N   UNL     1       7.471   4.726  16.538  0.00  0.00    +0.000 NA
ATOM     18  C   UNL     1       6.787   4.066  15.610  0.00  0.00    +0.000 A 
ATOM     19  C   UNL     1       5.511   4.604  15.419  0.00  0.00    +0.000 A 
ATOM     20  C   UNL     1       5.411   5.672  16.297  0.00  0.00    +0.000 A 
BRANCH  16  22
ATOM     21  C   UNL     1       8.002   5.853  18.982  0.00  0.00    +0.000 C 
ATOM     22  C   UNL     1       7.103   6.607  18.004  0.00  0.00    +0.000 C 
ATOM     23  C   UNL     1       7.848   7.840  17.456  0.00  0.00    +0.000 C 
ENDBRANCH  16  22
ENDBRANCH   1  20
BRANCH  10  24
ATOM     24  C   UNL     1       0.246  13.211  18.792  0.00  0.00    +0.000 C 
ATOM     25  F   UNL     1      -0.720  13.407  17.855  0.00  0.00    +0.000 F 
ATOM     26  F   UNL     1      -0.153  13.907  19.895  0.00  0.00    +0.000 F 
ATOM     27  F   UNL     1       1.354  13.856  18.331  0.00  0.00    +0.000 F 
ENDBRANCH  10  24
TORSDOF 3
ENDMDL
MODEL 3
REMARK VINA RESULT:      -7.3      0.877      2.236
REMARK  Name = 
REMARK  5 active torsions:
REMARK  status: ('A' for Active; 'I' for Inactive)
REMARK    1  A    between atoms: C_1  and  C_2
REMARK    2  A    between atoms: C_2  and  C_3
REMARK    3  A    between atoms: C_2  and  N_4
REMARK    4  A    between atoms: C_8  and  C_9
REMARK    5  A    between atoms: C_18  and  C_19
REMARK                            x       y       z     vdW  Elec       q    Type
REMARK                         _______ _______ _______ _____ _____    ______ ____
ROOT
ATOM      1  C   UNL     1       2.793   5.662  20.226  0.00  0.00    +0.000 C 
ATOM      2  C   UNL     1       2.394   6.611  19.361  0.00  0.00    +0.000 C 
ATOM      3  C   UNL     1       2.529   6.590  17.858  0.00  0.00    +0.000 C 
ATOM      4  C   UNL     1       2.695   8.056  17.523  0.00  0.00    +0.000 C 
ATOM      5  N   UNL     1       2.010   8.743  18.584  0.00  0.00    +0.000 N 
ATOM      6  C   UNL     1       1.811   7.950  19.711  0.00  0.00    +0.000 A 
ATOM      7  N   UNL     1       1.181   8.351  20.757  0.00  0.00    +0.000 NA
ATOM      8  C   UNL     1       0.647   9.672  20.723  0.00  0.00    +0.000 A 
ATOM      9  C   UNL     1      -0.213  10.116  21.740  0.00  0.00    +0.000 A 
ATOM     10  C   UNL     1      -0.751  11.425  21.727  0.00  0.00    +0.000 A 
ATOM     11  C   UNL     1      -0.412  12.300  20.682  0.00  0.00    +0.000 A 
ATOM     12  C   UNL     1       0.419  11.871  19.655  0.00  0.00    +0.000 A 
ATOM     13  C   UNL     1       0.920  10.566  19.675  0.00  0.00    +0.000 A 
ATOM     14  C   UNL     1       1.701  10.076  18.528  0.00  0.00    +0.000 A 
ATOM     15  O   UNL     1       2.020  10.821  17.609  0.00  0.00    +0.000 OA
ENDROOT
BRANCH   1  20
ATOM     16  N   UNL     1       4.206   4.058  18.942  0.00  0.00    +0.000 N 
ATOM     17  N   UNL     1       4.318   2.729  18.695  0.00  0.00    +0.000 NA
ATOM     18  C   UNL     1       3.291   2.180  19.335  0.00  0.00    +0.000 A 
ATOM     19  C   UNL     1       2.518   3.135  20.000  0.00  0.00    +0.000 A 
ATOM     20  C   UNL     1       3.119   4.358  19.747  0.00  0.00    +0.000 A 
BRANCH  16  22
ATOM     21  C   UNL     1       6.341   5.184  19.393  0.00  0.00    +0.000 C 
ATOM     22  C   UNL     1       5.225   4.943  18.378  0.00  0.00    +0.000 C 
ATOM     23  C   UNL     1       5.824   4.408  17.062  0.00  0.00    +0.000 C 
ENDBRANCH  16  22
ENDBRANCH   1  20
BRANCH  10  24
ATOM     24  C   UNL     1      -1.696  11.926  22.797  0.00  0.00    +0.000 C 
ATOM     25  F   UNL     1      -2.853  12.450  22.314  0.00  0.00    +0.000 F 
ATOM     26  F   UNL     1      -2.061  10.939  23.662  0.00  0.00    +0.000 F 
ATOM     27  F   UNL     1      -1.134  12.900  23.565  0.00  0.00    +0.000 F 
ENDBRANCH  10  24
TORSDOF 3
ENDMDL
MODEL 4
REMARK VINA RESULT:      -7.2      3.158      4.522
REMARK  Name = 
REMARK  5 active torsions:
REMARK  status: ('A' for Active; 'I' for Inactive)
REMARK    1  A    between atoms: C_1  and  C_2
REMARK    2  A    between atoms: C_2  and  C_3
REMARK    3  A    between atoms: C_2  and  N_4
REMARK    4  A    between atoms: C_8  and  C_9
REMARK    5  A    between atoms: C_18  and  C_19
REMARK                            x       y       z     vdW  Elec       q    Type
REMARK                         _______ _______ _______ _____ _____    ______ ____
ROOT
ATOM      1  C   UNL     1       4.298   6.653  16.648  0.00  0.00    +0.000 C 
ATOM      2  C   UNL     1       3.934   6.290  17.890  0.00  0.00    +0.000 C 
ATOM      3  C   UNL     1       4.413   5.086  18.666  0.00  0.00    +0.000 C 
ATOM      4  C   UNL     1       3.206   4.739  19.510  0.00  0.00    +0.000 C 
ATOM      5  N   UNL     1       2.519   5.991  19.681  0.00  0.00    +0.000 N 
ATOM      6  C   UNL     1       2.892   6.952  18.746  0.00  0.00    +0.000 A 
ATOM      7  N   UNL     1       2.434   8.153  18.743  0.00  0.00    +0.000 NA
ATOM      8  C   UNL     1       1.520   8.498  19.780  0.00  0.00    +0.000 A 
ATOM      9  C   UNL     1       1.124   9.833  19.963  0.00  0.00    +0.000 A 
ATOM     10  C   UNL     1       0.215  10.196  20.985  0.00  0.00    +0.000 A 
ATOM     11  C   UNL     1      -0.310   9.202  21.826  0.00  0.00    +0.000 A 
ATOM     12  C   UNL     1       0.088   7.879  21.677  0.00  0.00    +0.000 A 
ATOM     13  C   UNL     1       1.006   7.546  20.676  0.00  0.00    +0.000 A 
ATOM     14  C   UNL     1       1.516   6.168  20.596  0.00  0.00    +0.000 A 
ATOM     15  O   UNL     1       1.067   5.279  21.311  0.00  0.00    +0.000 OA
ENDROOT
BRANCH   1  20
ATOM     16  N   UNL     1       6.730   6.105  16.585  0.00  0.00    +0.000 N 
ATOM     17  N   UNL     1       7.625   5.408  15.842  0.00  0.00    +0.000 NA
ATOM     18  C   UNL     1       6.919   4.933  14.822  0.00  0.00    +0.000 A 
ATOM     19  C   UNL     1       5.575   5.308  14.896  0.00  0.00    +0.000 A 
ATOM     20  C   UNL     1       5.453   6.068  16.048  0.00  0.00    +0.000 A 
BRANCH  16  22
ATOM     21  C   UNL     1       8.035   5.750  18.634  0.00  0.00    +0.000 C 
ATOM     22  C   UNL     1       7.211   6.740  17.811  0.00  0.00    +0.000 C 
ATOM     23  C   UNL     1       8.040   8.012  17.545  0.00  0.00    +0.000 C 
ENDBRANCH  16  22
ENDBRANCH   1  20
BRANCH  10  24
ATOM     24  C   UNL     1      -0.215  11.627  21.218  0.00  0.00    +0.000 C 
ATOM     25  F   UNL     1       0.724  12.550  20.880  0.00  0.00    +0.000 F 
ATOM     26  F   UNL     1      -1.334  11.950  20.511  0.00  0.00    +0.000 F 
ATOM     27  F   UNL     1      -0.522  11.866  22.524  0.00  0.00    +0.000 F 
ENDBRANCH  10  24
TORSDOF 3
ENDMDL
MODEL 5
REMARK VINA RESULT:      -7.2      1.484      1.993
REMARK  Name = 
REMARK  5 active torsions:
REMARK  status: ('A' for Active; 'I' for Inactive)
REMARK    1  A    between atoms: C_1  and  C_2
REMARK    2  A    between atoms: C_2  and  C_3
REMARK    3  A    between atoms: C_2  and  N_4
REMARK    4  A    between atoms: C_8  and  C_9
REMARK    5  A    between atoms: C_18  and  C_19
REMARK                            x       y       z     vdW  Elec       q    Type
REMARK                         _______ _______ _______ _____ _____    ______ ____
ROOT
ATOM      1  C   UNL     1       2.231   7.318  19.821  0.00  0.00    +0.000 C 
ATOM      2  C   UNL     1       1.815   8.418  19.170  0.00  0.00    +0.000 C 
ATOM      3  C   UNL     1       2.072   8.776  17.726  0.00  0.00    +0.000 C 
ATOM      4  C   UNL     1       2.126  10.287  17.768  0.00  0.00    +0.000 C 
ATOM      5  N   UNL     1       1.295  10.643  18.886  0.00  0.00    +0.000 N 
ATOM      6  C   UNL     1       1.081   9.586  19.766  0.00  0.00    +0.000 A 
ATOM      7  N   UNL     1       0.333   9.671  20.808  0.00  0.00    +0.000 NA
ATOM      8  C   UNL     1      -0.319  10.918  21.034  0.00  0.00    +0.000 A 
ATOM      9  C   UNL     1      -1.297  11.036  22.035  0.00  0.00    +0.000 A 
ATOM     10  C   UNL     1      -1.954  12.266  22.277  0.00  0.00    +0.000 A 
ATOM     11  C   UNL     1      -1.615  13.392  21.510  0.00  0.00    +0.000 A 
ATOM     12  C   UNL     1      -0.667  13.290  20.500  0.00  0.00    +0.000 A 
ATOM     13  C   UNL     1      -0.048  12.059  20.261  0.00  0.00    +0.000 A 
ATOM     14  C   UNL     1       0.867  11.923  19.116  0.00  0.00    +0.000 A 
ATOM     15  O   UNL     1       1.187  12.892  18.438  0.00  0.00    +0.000 OA
ENDROOT
BRANCH   1  20
ATOM     16  N   UNL     1       2.340   4.883  19.297  0.00  0.00    +0.000 N 
ATOM     17  N   UNL     1       2.901   4.030  18.404  0.00  0.00    +0.000 NA
ATOM     18  C   UNL     1       3.648   4.803  17.623  0.00  0.00    +0.000 A 
ATOM     19  C   UNL     1       3.574   6.149  17.994  0.00  0.00    +0.000 A 
ATOM     20  C   UNL     1       2.717   6.198  19.082  0.00  0.00    +0.000 A 
BRANCH  16  22
ATOM     21  C   UNL     1       0.629   3.167  19.693  0.00  0.00    +0.000 C 
ATOM     22  C   UNL     1       1.430   4.321  20.294  0.00  0.00    +0.000 C 
ATOM     23  C   UNL     1       2.154   3.844  21.569  0.00  0.00    +0.000 C 
ENDBRANCH  16  22
ENDBRANCH   1  20
BRANCH  10  24
ATOM     24  C   UNL     1      -3.026  12.420  23.334  0.00  0.00    +0.000 C 
ATOM     25  F   UNL     1      -3.148  11.347  24.160  0.00  0.00    +0.000 F 
ATOM     26  F   UNL     1      -2.801  13.494  24.142  0.00  0.00    +0.000 F 
ATOM     27  F   UNL     1      -4.260  12.618  22.791  0.00  0.00    +0.000 F 
ENDBRANCH  10  24
TORSDOF 3
ENDMDL
MODEL 6
REMARK VINA RESULT:      -7.1      1.438      2.517
REMARK  Name = 
REMARK  5 active torsions:
REMARK  status: ('A' for Active; 'I' for Inactive)
REMARK    1  A    between atoms: C_1  and  C_2
REMARK    2  A    between atoms: C_2  and  C_3
REMARK    3  A    between atoms: C_2  and  N_4
REMARK    4  A    between atoms: C_8  and  C_9
REMARK    5  A    between atoms: C_18  and  C_19
REMARK                            x       y       z     vdW  Elec       q    Type
REMARK                         _______ _______ _______ _____ _____    ______ ____
ROOT
ATOM      1  C   UNL     1       2.161   6.647  20.000  0.00  0.00    +0.000 C 
ATOM      2  C   UNL     1       1.855   7.733  19.269  0.00  0.00    +0.000 C 
ATOM      3  C   UNL     1       2.099   7.937  17.793  0.00  0.00    +0.000 C 
ATOM      4  C   UNL     1       2.334   9.429  17.703  0.00  0.00    +0.000 C 
ATOM      5  N   UNL     1       1.594   9.973  18.809  0.00  0.00    +0.000 N 
ATOM      6  C   UNL     1       1.289   9.026  19.782  0.00  0.00    +0.000 A 
ATOM      7  N   UNL     1       0.597   9.287  20.834  0.00  0.00    +0.000 NA
ATOM      8  C   UNL     1       0.108  10.619  20.969  0.00  0.00    +0.000 A 
ATOM      9  C   UNL     1      -0.811  10.937  21.983  0.00  0.00    +0.000 A 
ATOM     10  C   UNL     1      -1.307  12.254  22.137  0.00  0.00    +0.000 A 
ATOM     11  C   UNL     1      -0.865  13.263  21.267  0.00  0.00    +0.000 A 
ATOM     12  C   UNL     1       0.025  12.963  20.244  0.00  0.00    +0.000 A 
ATOM     13  C   UNL     1       0.483  11.651  20.094  0.00  0.00    +0.000 A 
ATOM     14  C   UNL     1       1.330  11.310  18.940  0.00  0.00    +0.000 A 
ATOM     15  O   UNL     1       1.738  12.174  18.172  0.00  0.00    +0.000 OA
ENDROOT
BRANCH   1  20
ATOM     16  N   UNL     1       3.715   5.115  18.794  0.00  0.00    +0.000 N 
ATOM     17  N   UNL     1       3.764   3.852  18.301  0.00  0.00    +0.000 NA
ATOM     18  C   UNL     1       2.554   3.353  18.530  0.00  0.00    +0.000 A 
ATOM     19  C   UNL     1       1.721   4.274  19.171  0.00  0.00    +0.000 A 
ATOM     20  C   UNL     1       2.482   5.420  19.347  0.00  0.00    +0.000 A 
BRANCH  16  22
ATOM     21  C   UNL     1       6.106   5.190  19.343  0.00  0.00    +0.000 C 
ATOM     22  C   UNL     1       4.928   5.926  18.707  0.00  0.00    +0.000 C 
ATOM     23  C   UNL     1       5.282   6.326  17.261  0.00  0.00    +0.000 C 
ENDBRANCH  16  22
ENDBRANCH   1  20
BRANCH  10  24
ATOM     24  C   UNL     1      -2.311  12.623  23.206  0.00  0.00    +0.000 C 
ATOM     25  F   UNL     1      -2.804  11.560  23.895  0.00  0.00    +0.000 F 
ATOM     26  F   UNL     1      -1.783  13.465  24.139  0.00  0.00    +0.000 F 
ATOM     27  F   UNL     1      -3.393  13.273  22.694  0.00  0.00    +0.000 F 
ENDBRANCH  10  24
TORSDOF 3
ENDMDL
MODEL 7
REMARK VINA RESULT:      -7.1      5.199      8.960
REMARK  Name = 
REMARK  5 active torsions:
REMARK  status: ('A' for Active; 'I' for Inactive)
REMARK    1  A    between atoms: C_1  and  C_2
REMARK    2  A    between atoms: C_2  and  C_3
REMARK    3  A    between atoms: C_2  and  N_4
REMARK    4  A    between atoms: C_8  and  C_9
REMARK    5  A    between atoms: C_18  and  C_19
REMARK                            x       y       z     vdW  Elec       q    Type
REMARK                         _______ _______ _______ _____ _____    ______ ____
ROOT
ATOM      1  C   UNL     1       1.606  10.532  18.702  0.00  0.00    +0.000 C 
ATOM      2  C   UNL     1       1.448   9.270  19.137  0.00  0.00    +0.000 C 
ATOM      3  C   UNL     1       0.411   8.763  20.110  0.00  0.00    +0.000 C 
ATOM      4  C   UNL     1       1.138   7.634  20.806  0.00  0.00    +0.000 C 
ATOM      5  N   UNL     1       2.092   7.173  19.834  0.00  0.00    +0.000 N 
ATOM      6  C   UNL     1       2.335   8.099  18.824  0.00  0.00    +0.000 A 
ATOM      7  N   UNL     1       3.120   7.875  17.830  0.00  0.00    +0.000 NA
ATOM      8  C   UNL     1       3.739   6.593  17.774  0.00  0.00    +0.000 A 
ATOM      9  C   UNL     1       4.454   6.200  16.630  0.00  0.00    +0.000 A 
ATOM     10  C   UNL     1       5.079   4.933  16.555  0.00  0.00    +0.000 A 
ATOM     11  C   UNL     1       4.992   4.054  17.647  0.00  0.00    +0.000 A 
ATOM     12  C   UNL     1       4.269   4.415  18.777  0.00  0.00    +0.000 A 
ATOM     13  C   UNL     1       3.639   5.663  18.821  0.00  0.00    +0.000 A 
ATOM     14  C   UNL     1       2.777   5.995  19.967  0.00  0.00    +0.000 A 
ATOM     15  O   UNL     1       2.692   5.251  20.937  0.00  0.00    +0.000 OA
ENDROOT
BRANCH   1  20
ATOM     16  N   UNL     1       0.701  12.677  19.596  0.00  0.00    +0.000 N 
ATOM     17  N   UNL     1      -0.429  13.426  19.569  0.00  0.00    +0.000 NA
ATOM     18  C   UNL     1      -1.295  12.706  18.864  0.00  0.00    +0.000 A 
ATOM     19  C   UNL     1      -0.739  11.500  18.427  0.00  0.00    +0.000 A 
ATOM     20  C   UNL     1       0.564  11.486  18.901  0.00  0.00    +0.000 A 
BRANCH  16  22
ATOM     21  C   UNL     1       2.772  13.965  19.313  0.00  0.00    +0.000 C 
ATOM     22  C   UNL     1       1.864  13.224  20.294  0.00  0.00    +0.000 C 
ATOM     23  C   UNL     1       1.482  14.159  21.457  0.00  0.00    +0.000 C 
ENDBRANCH  16  22
ENDBRANCH   1  20
BRANCH  10  24
ATOM     24  C   UNL     1       5.838   4.473  15.330  0.00  0.00    +0.000 C 
ATOM     25  F   UNL     1       7.053   5.065  15.176  0.00  0.00    +0.000 F 
ATOM     26  F   UNL     1       6.072   3.131  15.344  0.00  0.00    +0.000 F 
ATOM     27  F   UNL     1       5.154   4.717  14.178  0.00  0.00    +0.000 F 
ENDBRANCH  10  24
TORSDOF 3
ENDMDL
MODEL 8
REMARK VINA RESULT:      -7.0      3.600      5.025
REMARK  Name = 
REMARK  5 active torsions:
REMARK  status: ('A' for Active; 'I' for Inactive)
REMARK    1  A    between atoms: C_1  and  C_2
REMARK    2  A    between atoms: C_2  and  C_3
REMARK    3  A    between atoms: C_2  and  N_4
REMARK    4  A    between atoms: C_8  and  C_9
REMARK    5  A    between atoms: C_18  and  C_19
REMARK                            x       y       z     vdW  Elec       q    Type
REMARK                         _______ _______ _______ _____ _____    ______ ____
ROOT
ATOM      1  C   UNL     1       2.281   7.769  17.904  0.00  0.00    +0.000 C 
ATOM      2  C   UNL     1       1.934   8.483  18.989  0.00  0.00    +0.000 C 
ATOM      3  C   UNL     1       1.588   7.951  20.359  0.00  0.00    +0.000 C 
ATOM      4  C   UNL     1       0.580   8.962  20.859  0.00  0.00    +0.000 C 
ATOM      5  N   UNL     1       0.930  10.179  20.178  0.00  0.00    +0.000 N 
ATOM      6  C   UNL     1       1.719   9.968  19.051  0.00  0.00    +0.000 A 
ATOM      7  N   UNL     1       2.181  10.920  18.321  0.00  0.00    +0.000 NA
ATOM      8  C   UNL     1       1.873  12.251  18.726  0.00  0.00    +0.000 A 
ATOM      9  C   UNL     1       2.493  13.345  18.099  0.00  0.00    +0.000 A 
ATOM     10  C   UNL     1       2.199  14.675  18.484  0.00  0.00    +0.000 A 
ATOM     11  C   UNL     1       1.263  14.907  19.504  0.00  0.00    +0.000 A 
ATOM     12  C   UNL     1       0.657  13.838  20.152  0.00  0.00    +0.000 A 
ATOM     13  C   UNL     1       0.980  12.531  19.773  0.00  0.00    +0.000 A 
ATOM     14  C   UNL     1       0.429  11.402  20.538  0.00  0.00    +0.000 A 
ATOM     15  O   UNL     1      -0.398  11.576  21.426  0.00  0.00    +0.000 OA
ENDROOT
BRANCH   1  20
ATOM     16  N   UNL     1       3.928   5.901  17.783  0.00  0.00    +0.000 N 
ATOM     17  N   UNL     1       4.033   4.580  18.073  0.00  0.00    +0.000 NA
ATOM     18  C   UNL     1       2.827   4.234  18.513  0.00  0.00    +0.000 A 
ATOM     19  C   UNL     1       1.942   5.316  18.518  0.00  0.00    +0.000 A 
ATOM     20  C   UNL     1       2.663   6.402  18.047  0.00  0.00    +0.000 A 
BRANCH  16  22
ATOM     21  C   UNL     1       6.374   6.016  17.952  0.00  0.00    +0.000 C 
ATOM     22  C   UNL     1       5.121   6.586  17.289  0.00  0.00    +0.000 C 
ATOM     23  C   UNL     1       5.264   6.513  15.756  0.00  0.00    +0.000 C 
ENDBRANCH  16  22
ENDBRANCH   1  20
BRANCH  10  24
ATOM     24  C   UNL     1       2.865  15.872  17.842  0.00  0.00    +0.000 C 
ATOM     25  F   UNL     1       3.466  15.601  16.653  0.00  0.00    +0.000 F 
ATOM     26  F   UNL     1       1.982  16.881  17.598  0.00  0.00    +0.000 F 
ATOM     27  F   UNL     1       3.831  16.412  18.637  0.00  0.00    +0.000 F 
ENDBRANCH  10  24
TORSDOF 3
ENDMDL
MODEL 9
REMARK VINA RESULT:      -6.9      3.322      4.640
REMARK  Name = 
REMARK  5 active torsions:
REMARK  status: ('A' for Active; 'I' for Inactive)
REMARK    1  A    between atoms: C_1  and  C_2
REMARK    2  A    between atoms: C_2  and  C_3
REMARK    3  A    between atoms: C_2  and  N_4
REMARK    4  A    between atoms: C_8  and  C_9
REMARK    5  A    between atoms: C_18  and  C_19
REMARK                            x       y       z     vdW  Elec       q    Type
REMARK                         _______ _______ _______ _____ _____    ______ ____
ROOT
ATOM      1  C   UNL     1       2.060   7.304  17.897  0.00  0.00    +0.000 C 
ATOM      2  C   UNL     1       1.931   7.940  19.074  0.00  0.00    +0.000 C 
ATOM      3  C   UNL     1       1.867   7.315  20.447  0.00  0.00    +0.000 C 
ATOM      4  C   UNL     1       0.972   8.272  21.202  0.00  0.00    +0.000 C 
ATOM      5  N   UNL     1       1.170   9.537  20.548  0.00  0.00    +0.000 N 
ATOM      6  C   UNL     1       1.723   9.414  19.276  0.00  0.00    +0.000 A 
ATOM      7  N   UNL     1       2.024  10.420  18.534  0.00  0.00    +0.000 NA
ATOM      8  C   UNL     1       1.793  11.716  19.079  0.00  0.00    +0.000 A 
ATOM      9  C   UNL     1       2.269  12.859  18.417  0.00  0.00    +0.000 A 
ATOM     10  C   UNL     1       2.048  14.156  18.940  0.00  0.00    +0.000 A 
ATOM     11  C   UNL     1       1.331  14.304  20.138  0.00  0.00    +0.000 A 
ATOM     12  C   UNL     1       0.873  13.184  20.820  0.00  0.00    +0.000 A 
ATOM     13  C   UNL     1       1.124  11.911  20.298  0.00  0.00    +0.000 A 
ATOM     14  C   UNL     1       0.743  10.724  21.081  0.00  0.00    +0.000 A 
ATOM     15  O   UNL     1       0.107  10.824  22.124  0.00  0.00    +0.000 OA
ENDROOT
BRANCH   1  20
ATOM     16  N   UNL     1       3.790   5.508  17.875  0.00  0.00    +0.000 N 
ATOM     17  N   UNL     1       3.893   4.157  17.919  0.00  0.00    +0.000 NA
ATOM     18  C   UNL     1       2.638   3.722  17.931  0.00  0.00    +0.000 A 
ATOM     19  C   UNL     1       1.719   4.776  17.902  0.00  0.00    +0.000 A 
ATOM     20  C   UNL     1       2.473   5.939  17.871  0.00  0.00    +0.000 A 
BRANCH  16  22
ATOM     21  C   UNL     1       6.106   5.569  18.687  0.00  0.00    +0.000 C 
ATOM     22  C   UNL     1       5.028   6.286  17.875  0.00  0.00    +0.000 C 
ATOM     23  C   UNL     1       5.554   6.579  16.457  0.00  0.00    +0.000 C 
ENDBRANCH  16  22
ENDBRANCH   1  20
BRANCH  10  24
ATOM     24  C   UNL     1       2.565  15.404  18.260  0.00  0.00    +0.000 C 
ATOM     25  F   UNL     1       1.605  16.330  17.995  0.00  0.00    +0.000 F 
ATOM     26  F   UNL     1       3.508  16.044  19.008  0.00  0.00    +0.000 F 
ATOM     27  F   UNL     1       3.164  15.131  17.067  0.00  0.00    +0.000 F 
ENDBRANCH  10  24
TORSDOF 3
ENDMDL
