MODEL 1
REMARK VINA RESULT:      -8.6      0.000      0.000
REMARK  Name = 
REMARK  4 active torsions:
REMARK  status: ('A' for Active; 'I' for Inactive)
REMARK    1  A    between atoms: C_2  and  C_10
REMARK    2  A    between atoms: N_3  and  C_4
REMARK    3  A    between atoms: C_4  and  C_5
REMARK    4  A    between atoms: C_12  and  C_13
REMARK                            x       y       z     vdW  Elec       q    Type
REMARK                         _______ _______ _______ _____ _____    ______ ____
ROOT
ATOM      1  C   UNL     1       4.196   5.402  19.411  0.00  0.00    +0.000 A 
ATOM      2  C   UNL     1       3.702   6.696  19.214  0.00  0.00    +0.000 A 
ATOM      3  C   UNL     1       2.396   6.991  19.566  0.00  0.00    +0.000 A 
ATOM      4  N   UNL     1       1.589   6.051  20.110  0.00  0.00    +0.000 NA
ATOM      5  C   UNL     1       2.043   4.795  20.279  0.00  0.00    +0.000 A 
ATOM      6  C   UNL     1       1.158   3.858  20.796  0.00  0.00    +0.000 A 
ATOM      7  C   UNL     1       1.523   2.526  20.999  0.00  0.00    +0.000 A 
ATOM      8  C   UNL     1       2.808   2.118  20.687  0.00  0.00    +0.000 A 
ATOM      9  C   UNL     1       3.717   3.042  20.172  0.00  0.00    +0.000 A 
ATOM     10  C   UNL     1       3.353   4.396  19.945  0.00  0.00    +0.000 A 
ENDROOT
BRANCH   3  11
ATOM     11  C   UNL     1       1.793   8.323  19.366  0.00  0.00    +0.000 A 
ATOM     12  C   UNL     1       1.899   9.011  18.147  0.00  0.00    +0.000 A 
ATOM     13  C   UNL     1       1.312  10.261  18.016  0.00  0.00    +0.000 A 
ATOM     14  N   UNL     1       0.631  10.875  19.001  0.00  0.00    +0.000 NA
ATOM     15  C   UNL     1       0.523  10.205  20.165  0.00  0.00    +0.000 A 
ATOM     16  C   UNL     1       1.076   8.954  20.392  0.00  0.00    +0.000 A 
ENDBRANCH   3  11
BRANCH   1  18
ATOM     17  O   UNL     1       6.534   5.156  19.747  0.00  0.00    +0.000 OA
ATOM     18  C   UNL     1       5.594   5.126  18.960  0.00  0.00    +0.000 C 
ATOM     19  N   UNL     1       5.752   4.805  17.628  0.00  0.00    +0.000 N 
ATOM     20  H   UNL     1       5.016   4.998  16.960  0.00  0.00    +0.000 HD
BRANCH  19  21
ATOM     21  C   UNL     1       7.058   4.531  17.066  0.00  0.00    +0.000 C 
BRANCH  21  22
ATOM     22  C   UNL     1       6.978   4.570  15.576  0.00  0.00    +0.000 A 
ATOM     23  C   UNL     1       6.181   3.756  14.734  0.00  0.00    +0.000 A 
ATOM     24  C   UNL     1       6.433   4.204  13.462  0.00  0.00    +0.000 A 
ATOM     25  N   UNL     1       7.339   5.214  13.593  0.00  0.00    +0.000 N 
ATOM     26  N   UNL     1       7.705   5.446  14.865  0.00  0.00    +0.000 NA
ATOM     27  H   UNL     1       7.747   5.787  12.861  0.00  0.00    +0.000 HD
ENDBRANCH  21  22
ENDBRANCH  19  21
ENDBRANCH   1  18
TORSDOF 4
ENDMDL
MODEL 2
REMARK VINA RESULT:      -8.4      0.865      1.266
REMARK  Name = 
REMARK  4 active torsions:
REMARK  status: ('A' for Active; 'I' for Inactive)
REMARK    1  A    between atoms: C_2  and  C_10
REMARK    2  A    between atoms: N_3  and  C_4
REMARK    3  A    between atoms: C_4  and  C_5
REMARK    4  A    between atoms: C_12  and  C_13
REMARK                            x       y       z     vdW  Elec       q    Type
REMARK                         _______ _______ _______ _____ _____    ______ ____
ROOT
ATOM      1  C   UNL     1       4.160   5.153  19.098  0.00  0.00    +0.000 A 
ATOM      2  C   UNL     1       3.681   6.447  19.330  0.00  0.00    +0.000 A 
ATOM      3  C   UNL     1       2.354   6.632  19.681  0.00  0.00    +0.000 A 
ATOM      4  N   UNL     1       1.512   5.581  19.815  0.00  0.00    +0.000 NA
ATOM      5  C   UNL     1       1.954   4.335  19.568  0.00  0.00    +0.000 A 
ATOM      6  C   UNL     1       1.037   3.297  19.674  0.00  0.00    +0.000 A 
ATOM      7  C   UNL     1       1.388   1.968  19.427  0.00  0.00    +0.000 A 
ATOM      8  C   UNL     1       2.690   1.664  19.073  0.00  0.00    +0.000 A 
ATOM      9  C   UNL     1       3.631   2.687  18.966  0.00  0.00    +0.000 A 
ATOM     10  C   UNL     1       3.283   4.044  19.199  0.00  0.00    +0.000 A 
ENDROOT
BRANCH   3  11
ATOM     11  C   UNL     1       1.766   7.966  19.916  0.00  0.00    +0.000 A 
ATOM     12  C   UNL     1       1.308   8.364  21.180  0.00  0.00    +0.000 A 
ATOM     13  C   UNL     1       0.764   9.629  21.343  0.00  0.00    +0.000 A 
ATOM     14  N   UNL     1       0.644  10.526  20.346  0.00  0.00    +0.000 NA
ATOM     15  C   UNL     1       1.097  10.143  19.135  0.00  0.00    +0.000 A 
ATOM     16  C   UNL     1       1.653   8.900  18.876  0.00  0.00    +0.000 A 
ENDBRANCH   3  11
BRANCH   1  18
ATOM     17  O   UNL     1       6.496   4.965  19.487  0.00  0.00    +0.000 OA
ATOM     18  C   UNL     1       5.585   5.018  18.667  0.00  0.00    +0.000 C 
ATOM     19  N   UNL     1       5.803   4.921  17.308  0.00  0.00    +0.000 N 
ATOM     20  H   UNL     1       5.081   5.184  16.650  0.00  0.00    +0.000 HD
BRANCH  19  21
ATOM     21  C   UNL     1       7.140   4.801  16.764  0.00  0.00    +0.000 C 
BRANCH  21  22
ATOM     22  C   UNL     1       7.066   4.714  15.276  0.00  0.00    +0.000 A 
ATOM     23  C   UNL     1       6.226   3.877  14.502  0.00  0.00    +0.000 A 
ATOM     24  C   UNL     1       6.508   4.197  13.197  0.00  0.00    +0.000 A 
ATOM     25  N   UNL     1       7.470   5.161  13.247  0.00  0.00    +0.000 N 
ATOM     26  N   UNL     1       7.845   5.482  14.497  0.00  0.00    +0.000 NA
ATOM     27  H   UNL     1       7.913   5.644  12.472  0.00  0.00    +0.000 HD
ENDBRANCH  21  22
ENDBRANCH  19  21
ENDBRANCH   1  18
TORSDOF 4
ENDMDL
MODEL 3
REMARK VINA RESULT:      -8.4      1.283      1.376
REMARK  Name = 
REMARK  4 active torsions:
REMARK  status: ('A' for Active; 'I' for Inactive)
REMARK    1  A    between atoms: C_2  and  C_10
REMARK    2  A    between atoms: N_3  and  C_4
REMARK    3  A    between atoms: C_4  and  C_5
REMARK    4  A    between atoms: C_12  and  C_13
REMARK                            x       y       z     vdW  Elec       q    Type
REMARK                         _______ _______ _______ _____ _____    ______ ____
ROOT
ATOM      1  C   UNL     1       4.378   5.094  18.136  0.00  0.00    +0.000 A 
ATOM      2  C   UNL     1       3.923   6.405  18.316  0.00  0.00    +0.000 A 
ATOM      3  C   UNL     1       2.635   6.625  18.775  0.00  0.00    +0.000 A 
ATOM      4  N   UNL     1       1.809   5.594  19.063  0.00  0.00    +0.000 NA
ATOM      5  C   UNL     1       2.224   4.329  18.867  0.00  0.00    +0.000 A 
ATOM      6  C   UNL     1       1.320   3.309  19.133  0.00  0.00    +0.000 A 
ATOM      7  C   UNL     1       1.645   1.963  18.951  0.00  0.00    +0.000 A 
ATOM      8  C   UNL     1       2.909   1.624  18.501  0.00  0.00    +0.000 A 
ATOM      9  C   UNL     1       3.836   2.630  18.232  0.00  0.00    +0.000 A 
ATOM     10  C   UNL     1       3.513   4.003  18.398  0.00  0.00    +0.000 A 
ENDROOT
BRANCH   3  11
ATOM     11  C   UNL     1       2.073   7.977  18.966  0.00  0.00    +0.000 A 
ATOM     12  C   UNL     1       2.108   8.947  17.952  0.00  0.00    +0.000 A 
ATOM     13  C   UNL     1       1.564  10.200  18.188  0.00  0.00    +0.000 A 
ATOM     14  N   UNL     1       0.990  10.561  19.351  0.00  0.00    +0.000 NA
ATOM     15  C   UNL     1       0.949   9.622  20.317  0.00  0.00    +0.000 A 
ATOM     16  C   UNL     1       1.467   8.344  20.176  0.00  0.00    +0.000 A 
ENDBRANCH   3  11
BRANCH   1  18
ATOM     17  O   UNL     1       6.662   4.460  18.272  0.00  0.00    +0.000 OA
ATOM     18  C   UNL     1       5.756   4.917  17.584  0.00  0.00    +0.000 C 
ATOM     19  N   UNL     1       5.931   5.263  16.261  0.00  0.00    +0.000 N 
ATOM     20  H   UNL     1       5.247   5.835  15.782  0.00  0.00    +0.000 HD
BRANCH  19  21
ATOM     21  C   UNL     1       7.223   5.151  15.615  0.00  0.00    +0.000 C 
BRANCH  21  22
ATOM     22  C   UNL     1       7.038   4.691  14.207  0.00  0.00    +0.000 A 
ATOM     23  C   UNL     1       6.149   3.694  13.735  0.00  0.00    +0.000 A 
ATOM     24  C   UNL     1       6.329   3.671  12.375  0.00  0.00    +0.000 A 
ATOM     25  N   UNL     1       7.283   4.606  12.107  0.00  0.00    +0.000 N 
ATOM     26  N   UNL     1       7.748   5.229  13.203  0.00  0.00    +0.000 NA
ATOM     27  H   UNL     1       7.662   4.872  11.203  0.00  0.00    +0.000 HD
ENDBRANCH  21  22
ENDBRANCH  19  21
ENDBRANCH   1  18
TORSDOF 4
ENDMDL
MODEL 4
REMARK VINA RESULT:      -8.3      1.423      1.825
REMARK  Name = 
REMARK  4 active torsions:
REMARK  status: ('A' for Active; 'I' for Inactive)
REMARK    1  A    between atoms: C_2  and  C_10
REMARK    2  A    between atoms: N_3  and  C_4
REMARK    3  A    between atoms: C_4  and  C_5
REMARK    4  A    between atoms: C_12  and  C_13
REMARK                            x       y       z     vdW  Elec       q    Type
REMARK                         _______ _______ _______ _____ _____    ______ ____
ROOT
ATOM      1  C   UNL     1       4.402   5.062  18.129  0.00  0.00    +0.000 A 
ATOM      2  C   UNL     1       3.935   6.367  18.316  0.00  0.00    +0.000 A 
ATOM      3  C   UNL     1       2.658   6.572  18.809  0.00  0.00    +0.000 A 
ATOM      4  N   UNL     1       1.853   5.531  19.125  0.00  0.00    +0.000 NA
ATOM      5  C   UNL     1       2.280   4.271  18.924  0.00  0.00    +0.000 A 
ATOM      6  C   UNL     1       1.397   3.241  19.219  0.00  0.00    +0.000 A 
ATOM      7  C   UNL     1       1.735   1.899  19.035  0.00  0.00    +0.000 A 
ATOM      8  C   UNL     1       2.990   1.573  18.551  0.00  0.00    +0.000 A 
ATOM      9  C   UNL     1       3.897   2.590  18.253  0.00  0.00    +0.000 A 
ATOM     10  C   UNL     1       3.559   3.960  18.420  0.00  0.00    +0.000 A 
ENDROOT
BRANCH   3  11
ATOM     11  C   UNL     1       2.083   7.918  19.010  0.00  0.00    +0.000 A 
ATOM     12  C   UNL     1       1.480   8.296  20.219  0.00  0.00    +0.000 A 
ATOM     13  C   UNL     1       0.957   9.573  20.350  0.00  0.00    +0.000 A 
ATOM     14  N   UNL     1       0.989  10.500  19.375  0.00  0.00    +0.000 NA
ATOM     15  C   UNL     1       1.580  10.135  18.219  0.00  0.00    +0.000 A 
ATOM     16  C   UNL     1       2.129   8.882  17.993  0.00  0.00    +0.000 A 
ENDBRANCH   3  11
BRANCH   1  18
ATOM     17  O   UNL     1       6.703   4.478  18.212  0.00  0.00    +0.000 OA
ATOM     18  C   UNL     1       5.766   4.900  17.541  0.00  0.00    +0.000 C 
ATOM     19  N   UNL     1       5.895   5.217  16.205  0.00  0.00    +0.000 N 
ATOM     20  H   UNL     1       5.184   5.762  15.733  0.00  0.00    +0.000 HD
BRANCH  19  21
ATOM     21  C   UNL     1       7.169   5.116  15.523  0.00  0.00    +0.000 C 
BRANCH  21  22
ATOM     22  C   UNL     1       6.957   4.574  14.148  0.00  0.00    +0.000 A 
ATOM     23  C   UNL     1       7.627   4.952  12.960  0.00  0.00    +0.000 A 
ATOM     24  C   UNL     1       7.105   4.142  11.982  0.00  0.00    +0.000 A 
ATOM     25  N   UNL     1       6.178   3.358  12.602  0.00  0.00    +0.000 N 
ATOM     26  N   UNL     1       6.051   3.611  13.915  0.00  0.00    +0.000 NA
ATOM     27  H   UNL     1       5.599   2.632  12.192  0.00  0.00    +0.000 HD
ENDBRANCH  21  22
ENDBRANCH  19  21
ENDBRANCH   1  18
TORSDOF 4
ENDMDL
MODEL 5
REMARK VINA RESULT:      -8.1      1.310      1.426
REMARK  Name = 
REMARK  4 active torsions:
REMARK  status: ('A' for Active; 'I' for Inactive)
REMARK    1  A    between atoms: C_2  and  C_10
REMARK    2  A    between atoms: N_3  and  C_4
REMARK    3  A    between atoms: C_4  and  C_5
REMARK    4  A    between atoms: C_12  and  C_13
REMARK                            x       y       z     vdW  Elec       q    Type
REMARK                         _______ _______ _______ _____ _____    ______ ____
ROOT
ATOM      1  C   UNL     1       3.868   5.720  18.642  0.00  0.00    +0.000 A 
ATOM      2  C   UNL     1       3.354   6.920  19.144  0.00  0.00    +0.000 A 
ATOM      3  C   UNL     1       2.154   6.915  19.834  0.00  0.00    +0.000 A 
ATOM      4  N   UNL     1       1.472   5.766  20.044  0.00  0.00    +0.000 NA
ATOM      5  C   UNL     1       1.941   4.609  19.542  0.00  0.00    +0.000 A 
ATOM      6  C   UNL     1       1.178   3.466  19.744  0.00  0.00    +0.000 A 
ATOM      7  C   UNL     1       1.568   2.217  19.256  0.00  0.00    +0.000 A 
ATOM      8  C   UNL     1       2.754   2.102  18.554  0.00  0.00    +0.000 A 
ATOM      9  C   UNL     1       3.541   3.234  18.343  0.00  0.00    +0.000 A 
ATOM     10  C   UNL     1       3.149   4.512  18.821  0.00  0.00    +0.000 A 
ENDROOT
BRANCH   3  11
ATOM     11  C   UNL     1       1.533   8.142  20.371  0.00  0.00    +0.000 A 
ATOM     12  C   UNL     1       1.221   9.237  19.551  0.00  0.00    +0.000 A 
ATOM     13  C   UNL     1       0.638  10.364  20.110  0.00  0.00    +0.000 A 
ATOM     14  N   UNL     1       0.343  10.484  21.418  0.00  0.00    +0.000 NA
ATOM     15  C   UNL     1       0.635   9.425  22.199  0.00  0.00    +0.000 A 
ATOM     16  C   UNL     1       1.218   8.258  21.732  0.00  0.00    +0.000 A 
ENDBRANCH   3  11
BRANCH   1  18
ATOM     17  O   UNL     1       5.372   6.741  17.114  0.00  0.00    +0.000 OA
ATOM     18  C   UNL     1       5.138   5.794  17.856  0.00  0.00    +0.000 C 
ATOM     19  N   UNL     1       6.031   4.760  18.045  0.00  0.00    +0.000 N 
ATOM     20  H   UNL     1       5.735   3.895  18.478  0.00  0.00    +0.000 HD
BRANCH  19  21
ATOM     21  C   UNL     1       7.290   4.709  17.330  0.00  0.00    +0.000 C 
BRANCH  21  22
ATOM     22  C   UNL     1       7.026   4.599  15.864  0.00  0.00    +0.000 A 
ATOM     23  C   UNL     1       6.125   3.721  15.214  0.00  0.00    +0.000 A 
ATOM     24  C   UNL     1       6.222   4.034  13.881  0.00  0.00    +0.000 A 
ATOM     25  N   UNL     1       7.145   5.033  13.797  0.00  0.00    +0.000 N 
ATOM     26  N   UNL     1       7.667   5.384  14.984  0.00  0.00    +0.000 NA
ATOM     27  H   UNL     1       7.465   5.521  12.966  0.00  0.00    +0.000 HD
ENDBRANCH  21  22
ENDBRANCH  19  21
ENDBRANCH   1  18
TORSDOF 4
ENDMDL
MODEL 6
REMARK VINA RESULT:      -8.0      1.821      1.944
REMARK  Name = 
REMARK  4 active torsions:
REMARK  status: ('A' for Active; 'I' for Inactive)
REMARK    1  A    between atoms: C_2  and  C_10
REMARK    2  A    between atoms: N_3  and  C_4
REMARK    3  A    between atoms: C_4  and  C_5
REMARK    4  A    between atoms: C_12  and  C_13
REMARK                            x       y       z     vdW  Elec       q    Type
REMARK                         _______ _______ _______ _____ _____    ______ ____
ROOT
ATOM      1  C   UNL     1       3.990   5.981  17.384  0.00  0.00    +0.000 A 
ATOM      2  C   UNL     1       3.471   7.163  17.924  0.00  0.00    +0.000 A 
ATOM      3  C   UNL     1       2.376   7.106  18.769  0.00  0.00    +0.000 A 
ATOM      4  N   UNL     1       1.802   5.924  19.093  0.00  0.00    +0.000 NA
ATOM      5  C   UNL     1       2.274   4.783  18.559  0.00  0.00    +0.000 A 
ATOM      6  C   UNL     1       1.619   3.603  18.886  0.00  0.00    +0.000 A 
ATOM      7  C   UNL     1       2.018   2.366  18.377  0.00  0.00    +0.000 A 
ATOM      8  C   UNL     1       3.106   2.301  17.525  0.00  0.00    +0.000 A 
ATOM      9  C   UNL     1       3.785   3.471  17.186  0.00  0.00    +0.000 A 
ATOM     10  C   UNL     1       3.378   4.738  17.684  0.00  0.00    +0.000 A 
ENDROOT
BRANCH   3  11
ATOM     11  C   UNL     1       1.755   8.309  19.357  0.00  0.00    +0.000 A 
ATOM     12  C   UNL     1       1.467   9.448  18.590  0.00  0.00    +0.000 A 
ATOM     13  C   UNL     1       0.883  10.550  19.196  0.00  0.00    +0.000 A 
ATOM     14  N   UNL     1       0.564  10.605  20.502  0.00  0.00    +0.000 NA
ATOM     15  C   UNL     1       0.833   9.504  21.233  0.00  0.00    +0.000 A 
ATOM     16  C   UNL     1       1.416   8.357  20.717  0.00  0.00    +0.000 A 
ENDBRANCH   3  11
BRANCH   1  18
ATOM     17  O   UNL     1       5.105   6.903  15.501  0.00  0.00    +0.000 OA
ATOM     18  C   UNL     1       5.136   6.107  16.433  0.00  0.00    +0.000 C 
ATOM     19  N   UNL     1       6.231   5.307  16.690  0.00  0.00    +0.000 N 
ATOM     20  H   UNL     1       6.156   4.515  17.315  0.00  0.00    +0.000 HD
BRANCH  19  21
ATOM     21  C   UNL     1       7.398   5.327  15.833  0.00  0.00    +0.000 C 
BRANCH  21  22
ATOM     22  C   UNL     1       7.049   4.748  14.502  0.00  0.00    +0.000 A 
ATOM     23  C   UNL     1       6.129   3.706  14.229  0.00  0.00    +0.000 A 
ATOM     24  C   UNL     1       6.139   3.570  12.863  0.00  0.00    +0.000 A 
ATOM     25  N   UNL     1       7.033   4.489  12.402  0.00  0.00    +0.000 N 
ATOM     26  N   UNL     1       7.618   5.207  13.376  0.00  0.00    +0.000 NA
ATOM     27  H   UNL     1       7.292   4.682  11.439  0.00  0.00    +0.000 HD
ENDBRANCH  21  22
ENDBRANCH  19  21
ENDBRANCH   1  18
TORSDOF 4
ENDMDL
MODEL 7
REMARK VINA RESULT:      -7.9      1.777      2.054
REMARK  Name = 
REMARK  4 active torsions:
REMARK  status: ('A' for Active; 'I' for Inactive)
REMARK    1  A    between atoms: C_2  and  C_10
REMARK    2  A    between atoms: N_3  and  C_4
REMARK    3  A    between atoms: C_4  and  C_5
REMARK    4  A    between atoms: C_12  and  C_13
REMARK                            x       y       z     vdW  Elec       q    Type
REMARK                         _______ _______ _______ _____ _____    ______ ____
ROOT
ATOM      1  C   UNL     1       4.402   5.197  17.574  0.00  0.00    +0.000 A 
ATOM      2  C   UNL     1       3.931   6.492  17.818  0.00  0.00    +0.000 A 
ATOM      3  C   UNL     1       2.738   6.668  18.499  0.00  0.00    +0.000 A 
ATOM      4  N   UNL     1       2.023   5.610  18.945  0.00  0.00    +0.000 NA
ATOM      5  C   UNL     1       2.451   4.359  18.692  0.00  0.00    +0.000 A 
ATOM      6  C   UNL     1       1.655   3.308  19.129  0.00  0.00    +0.000 A 
ATOM      7  C   UNL     1       2.001   1.974  18.909  0.00  0.00    +0.000 A 
ATOM      8  C   UNL     1       3.176   1.677  18.241  0.00  0.00    +0.000 A 
ATOM      9  C   UNL     1       3.996   2.715  17.798  0.00  0.00    +0.000 A 
ATOM     10  C   UNL     1       3.647   4.076  18.002  0.00  0.00    +0.000 A 
ENDROOT
BRANCH   3  11
ATOM     11  C   UNL     1       2.161   8.000  18.772  0.00  0.00    +0.000 A 
ATOM     12  C   UNL     1       2.188   9.031  17.821  0.00  0.00    +0.000 A 
ATOM     13  C   UNL     1       1.630  10.261  18.132  0.00  0.00    +0.000 A 
ATOM     14  N   UNL     1       1.049  10.543  19.313  0.00  0.00    +0.000 NA
ATOM     15  C   UNL     1       1.015   9.545  20.219  0.00  0.00    +0.000 A 
ATOM     16  C   UNL     1       1.547   8.284  20.000  0.00  0.00    +0.000 A 
ENDBRANCH   3  11
BRANCH   1  18
ATOM     17  O   UNL     1       6.760   5.037  17.336  0.00  0.00    +0.000 OA
ATOM     18  C   UNL     1       5.665   5.066  16.785  0.00  0.00    +0.000 C 
ATOM     19  N   UNL     1       5.519   4.944  15.419  0.00  0.00    +0.000 N 
ATOM     20  H   UNL     1       4.646   5.188  14.969  0.00  0.00    +0.000 HD
BRANCH  19  21
ATOM     21  C   UNL     1       6.667   4.824  14.544  0.00  0.00    +0.000 C 
BRANCH  21  22
ATOM     22  C   UNL     1       6.284   4.058  13.321  0.00  0.00    +0.000 A 
ATOM     23  C   UNL     1       7.141   3.577  12.302  0.00  0.00    +0.000 A 
ATOM     24  C   UNL     1       6.318   2.911  11.428  0.00  0.00    +0.000 A 
ATOM     25  N   UNL     1       5.059   3.029  11.936  0.00  0.00    +0.000 N 
ATOM     26  N   UNL     1       5.003   3.739  13.076  0.00  0.00    +0.000 NA
ATOM     27  H   UNL     1       4.195   2.650  11.561  0.00  0.00    +0.000 HD
ENDBRANCH  21  22
ENDBRANCH  19  21
ENDBRANCH   1  18
TORSDOF 4
ENDMDL
MODEL 8
REMARK VINA RESULT:      -7.7      0.875      1.299
REMARK  Name = 
REMARK  4 active torsions:
REMARK  status: ('A' for Active; 'I' for Inactive)
REMARK    1  A    between atoms: C_2  and  C_10
REMARK    2  A    between atoms: N_3  and  C_4
REMARK    3  A    between atoms: C_4  and  C_5
REMARK    4  A    between atoms: C_12  and  C_13
REMARK                            x       y       z     vdW  Elec       q    Type
REMARK                         _______ _______ _______ _____ _____    ______ ____
ROOT
ATOM      1  C   UNL     1       4.091   5.527  19.275  0.00  0.00    +0.000 A 
ATOM      2  C   UNL     1       3.554   6.817  19.216  0.00  0.00    +0.000 A 
ATOM      3  C   UNL     1       2.284   7.053  19.714  0.00  0.00    +0.000 A 
ATOM      4  N   UNL     1       1.554   6.059  20.270  0.00  0.00    +0.000 NA
ATOM      5  C   UNL     1       2.048   4.808  20.307  0.00  0.00    +0.000 A 
ATOM      6  C   UNL     1       1.238   3.815  20.845  0.00  0.00    +0.000 A 
ATOM      7  C   UNL     1       1.649   2.483  20.920  0.00  0.00    +0.000 A 
ATOM      8  C   UNL     1       2.904   2.131  20.456  0.00  0.00    +0.000 A 
ATOM      9  C   UNL     1       3.738   3.110  19.918  0.00  0.00    +0.000 A 
ATOM     10  C   UNL     1       3.326   4.466  19.820  0.00  0.00    +0.000 A 
ENDROOT
BRANCH   3  11
ATOM     11  C   UNL     1       1.637   8.380  19.665  0.00  0.00    +0.000 A 
ATOM     12  C   UNL     1       1.053   8.964  20.798  0.00  0.00    +0.000 A 
ATOM     13  C   UNL     1       0.459  10.213  20.693  0.00  0.00    +0.000 A 
ATOM     14  N   UNL     1       0.404  10.922  19.550  0.00  0.00    +0.000 NA
ATOM     15  C   UNL     1       0.978  10.361  18.467  0.00  0.00    +0.000 A 
ATOM     16  C   UNL     1       1.593   9.119  18.474  0.00  0.00    +0.000 A 
ENDBRANCH   3  11
BRANCH   1  18
ATOM     17  O   UNL     1       6.333   4.744  19.286  0.00  0.00    +0.000 OA
ATOM     18  C   UNL     1       5.442   5.319  18.670  0.00  0.00    +0.000 C 
ATOM     19  N   UNL     1       5.608   5.777  17.380  0.00  0.00    +0.000 N 
ATOM     20  H   UNL     1       4.951   6.431  16.976  0.00  0.00    +0.000 HD
BRANCH  19  21
ATOM     21  C   UNL     1       6.875   5.648  16.690  0.00  0.00    +0.000 C 
BRANCH  21  22
ATOM     22  C   UNL     1       6.683   4.855  15.439  0.00  0.00    +0.000 A 
ATOM     23  C   UNL     1       7.167   5.158  14.143  0.00  0.00    +0.000 A 
ATOM     24  C   UNL     1       6.759   4.111  13.356  0.00  0.00    +0.000 A 
ATOM     25  N   UNL     1       6.070   3.270  14.179  0.00  0.00    +0.000 N 
ATOM     26  N   UNL     1       5.989   3.706  15.447  0.00  0.00    +0.000 NA
ATOM     27  H   UNL     1       5.631   2.385  13.944  0.00  0.00    +0.000 HD
ENDBRANCH  21  22
ENDBRANCH  19  21
ENDBRANCH   1  18
TORSDOF 4
ENDMDL
MODEL 9
REMARK VINA RESULT:      -7.7      1.891      2.298
REMARK  Name = 
REMARK  4 active torsions:
REMARK  status: ('A' for Active; 'I' for Inactive)
REMARK    1  A    between atoms: C_2  and  C_10
REMARK    2  A    between atoms: N_3  and  C_4
REMARK    3  A    between atoms: C_4  and  C_5
REMARK    4  A    between atoms: C_12  and  C_13
REMARK                            x       y       z     vdW  Elec       q    Type
REMARK                         _______ _______ _______ _____ _____    ______ ____
ROOT
ATOM      1  C   UNL     1       4.132   5.832  17.241  0.00  0.00    +0.000 A 
ATOM      2  C   UNL     1       3.583   7.012  17.754  0.00  0.00    +0.000 A 
ATOM      3  C   UNL     1       2.529   6.943  18.650  0.00  0.00    +0.000 A 
ATOM      4  N   UNL     1       2.025   5.752  19.048  0.00  0.00    +0.000 NA
ATOM      5  C   UNL     1       2.526   4.611  18.540  0.00  0.00    +0.000 A 
ATOM      6  C   UNL     1       1.941   3.418  18.945  0.00  0.00    +0.000 A 
ATOM      7  C   UNL     1       2.375   2.179  18.470  0.00  0.00    +0.000 A 
ATOM      8  C   UNL     1       3.428   2.126  17.573  0.00  0.00    +0.000 A 
ATOM      9  C   UNL     1       4.036   3.310  17.155  0.00  0.00    +0.000 A 
ATOM     10  C   UNL     1       3.593   4.577  17.619  0.00  0.00    +0.000 A 
ENDROOT
BRANCH   3  11
ATOM     11  C   UNL     1       1.879   8.142  19.216  0.00  0.00    +0.000 A 
ATOM     12  C   UNL     1       1.504   8.216  20.565  0.00  0.00    +0.000 A 
ATOM     13  C   UNL     1       0.896   9.368  21.042  0.00  0.00    +0.000 A 
ATOM     14  N   UNL     1       0.635  10.447  20.281  0.00  0.00    +0.000 NA
ATOM     15  C   UNL     1       1.008  10.375  18.988  0.00  0.00    +0.000 A 
ATOM     16  C   UNL     1       1.620   9.267  18.421  0.00  0.00    +0.000 A 
ENDBRANCH   3  11
BRANCH   1  18
ATOM     17  O   UNL     1       5.450   7.036  15.675  0.00  0.00    +0.000 OA
ATOM     18  C   UNL     1       5.229   5.968  16.235  0.00  0.00    +0.000 C 
ATOM     19  N   UNL     1       5.990   4.840  16.008  0.00  0.00    +0.000 N 
ATOM     20  H   UNL     1       5.664   3.929  16.304  0.00  0.00    +0.000 HD
BRANCH  19  21
ATOM     21  C   UNL     1       7.073   4.840  15.046  0.00  0.00    +0.000 C 
BRANCH  21  22
ATOM     22  C   UNL     1       6.603   4.232  13.766  0.00  0.00    +0.000 A 
ATOM     23  C   UNL     1       5.388   3.542  13.535  0.00  0.00    +0.000 A 
ATOM     24  C   UNL     1       5.411   3.217  12.202  0.00  0.00    +0.000 A 
ATOM     25  N   UNL     1       6.592   3.696  11.719  0.00  0.00    +0.000 N 
ATOM     26  N   UNL     1       7.348   4.301  12.652  0.00  0.00    +0.000 NA
ATOM     27  H   UNL     1       6.945   3.648  10.769  0.00  0.00    +0.000 HD
ENDBRANCH  21  22
ENDBRANCH  19  21
ENDBRANCH   1  18
TORSDOF 4
ENDMDL
