MODEL 1
REMARK VINA RESULT:      -8.8      0.000      0.000
REMARK  Name = 
REMARK  4 active torsions:
REMARK  status: ('A' for Active; 'I' for Inactive)
REMARK    1  A    between atoms: C_1  and  C_2
REMARK    2  A    between atoms: C_5  and  N_6
REMARK    3  A    between atoms: C_7  and  C_9
REMARK    4  A    between atoms: C_9  and  C_10
REMARK                            x       y       z     vdW  Elec       q    Type
REMARK                         _______ _______ _______ _____ _____    ______ ____
ROOT
ATOM      1  C   UNL     1       7.985   6.852  18.522  0.00  0.00    +0.000 C 
ENDROOT
BRANCH   1   2
ATOM      2  C   UNL     1       7.222   6.136  17.438  0.00  0.00    +0.000 A 
ATOM      3  N   UNL     1       7.709   6.227  16.236  0.00  0.00    +0.000 NA
ATOM      4  N   UNL     1       7.067   5.583  15.227  0.00  0.00    +0.000 N 
ATOM      5  C   UNL     1       5.923   4.831  15.343  0.00  0.00    +0.000 A 
ATOM      6  O   UNL     1       5.416   4.259  14.387  0.00  0.00    +0.000 OA
ATOM      7  C   UNL     1       5.337   4.746  16.689  0.00  0.00    +0.000 A 
ATOM      8  C   UNL     1       4.152   4.028  16.891  0.00  0.00    +0.000 A 
ATOM      9  C   UNL     1       3.605   3.942  18.169  0.00  0.00    +0.000 A 
ATOM     10  C   UNL     1       4.240   4.574  19.238  0.00  0.00    +0.000 A 
ATOM     11  C   UNL     1       5.421   5.299  19.035  0.00  0.00    +0.000 A 
ATOM     12  C   UNL     1       5.974   5.388  17.751  0.00  0.00    +0.000 A 
ATOM     13  H   UNL     1       7.493   5.634  14.306  0.00  0.00    +0.000 HD
ENDBRANCH   1   2
BRANCH   1  15
ATOM     14  N   UNL     1       9.049   8.960  19.109  0.00  0.00    +0.000 N 
ATOM     15  C   UNL     1       8.150   8.329  18.267  0.00  0.00    +0.000 C 
ATOM     16  O   UNL     1       7.505   8.858  17.365  0.00  0.00    +0.000 OA
ATOM     17  H   UNL     1       9.660   8.376  19.680  0.00  0.00    +0.000 HD
BRANCH  14  22
ATOM     18  C   UNL     1      10.632  14.479  19.230  0.00  0.00    +0.000 C 
ATOM     19  C   UNL     1      10.143  13.062  19.186  0.00  0.00    +0.000 A 
ATOM     20  C   UNL     1      10.045  12.386  17.966  0.00  0.00    +0.000 A 
ATOM     21  C   UNL     1       9.655  11.044  17.920  0.00  0.00    +0.000 A 
ATOM     22  C   UNL     1       9.365  10.342  19.091  0.00  0.00    +0.000 A 
ATOM     23  C   UNL     1       9.401  11.043  20.302  0.00  0.00    +0.000 A 
ATOM     24  F   UNL     1       9.093  10.411  21.447  0.00  0.00    +0.000 F 
ATOM     25  C   UNL     1       9.795  12.384  20.361  0.00  0.00    +0.000 A 
ENDBRANCH  14  22
ENDBRANCH   1  15
TORSDOF 3
ENDMDL
MODEL 2
REMARK VINA RESULT:      -8.8      5.512      6.677
REMARK  Name = 
REMARK  4 active torsions:
REMARK  status: ('A' for Active; 'I' for Inactive)
REMARK    1  A    between atoms: C_1  and  C_2
REMARK    2  A    between atoms: C_5  and  N_6
REMARK    3  A    between atoms: C_7  and  C_9
REMARK    4  A    between atoms: C_9  and  C_10
REMARK                            x       y       z     vdW  Elec       q    Type
REMARK                         _______ _______ _______ _____ _____    ______ ____
ROOT
ATOM      1  C   UNL     1       3.057   3.599  17.390  0.00  0.00    +0.000 C 
ENDROOT
BRANCH   1   2
ATOM      2  C   UNL     1       4.526   3.909  17.520  0.00  0.00    +0.000 A 
ATOM      3  N   UNL     1       5.008   3.911  18.728  0.00  0.00    +0.000 NA
ATOM      4  N   UNL     1       6.331   4.167  18.896  0.00  0.00    +0.000 N 
ATOM      5  C   UNL     1       7.237   4.439  17.900  0.00  0.00    +0.000 A 
ATOM      6  O   UNL     1       8.423   4.636  18.130  0.00  0.00    +0.000 OA
ATOM      7  C   UNL     1       6.703   4.477  16.530  0.00  0.00    +0.000 A 
ATOM      8  C   UNL     1       7.551   4.780  15.458  0.00  0.00    +0.000 A 
ATOM      9  C   UNL     1       7.045   4.806  14.161  0.00  0.00    +0.000 A 
ATOM     10  C   UNL     1       5.695   4.533  13.940  0.00  0.00    +0.000 A 
ATOM     11  C   UNL     1       4.844   4.238  15.013  0.00  0.00    +0.000 A 
ATOM     12  C   UNL     1       5.351   4.210  16.319  0.00  0.00    +0.000 A 
ATOM     13  H   UNL     1       6.690   4.119  19.846  0.00  0.00    +0.000 HD
ENDBRANCH   1   2
BRANCH   1  15
ATOM     14  N   UNL     1       2.820   5.838  18.311  0.00  0.00    +0.000 N 
ATOM     15  C   UNL     1       2.161   4.756  17.755  0.00  0.00    +0.000 C 
ATOM     16  O   UNL     1       0.954   4.671  17.542  0.00  0.00    +0.000 OA
ATOM     17  H   UNL     1       3.838   5.861  18.252  0.00  0.00    +0.000 HD
BRANCH  14  22
ATOM     18  C   UNL     1       0.622  10.737  20.349  0.00  0.00    +0.000 C 
ATOM     19  C   UNL     1       1.121   9.436  19.795  0.00  0.00    +0.000 A 
ATOM     20  C   UNL     1       1.463   9.328  18.444  0.00  0.00    +0.000 A 
ATOM     21  C   UNL     1       1.994   8.139  17.931  0.00  0.00    +0.000 A 
ATOM     22  C   UNL     1       2.207   7.035  18.758  0.00  0.00    +0.000 A 
ATOM     23  C   UNL     1       1.800   7.129  20.095  0.00  0.00    +0.000 A 
ATOM     24  F   UNL     1       1.955   6.075  20.913  0.00  0.00    +0.000 F 
ATOM     25  C   UNL     1       1.274   8.313  20.619  0.00  0.00    +0.000 A 
ENDBRANCH  14  22
ENDBRANCH   1  15
TORSDOF 3
ENDMDL
MODEL 3
REMARK VINA RESULT:      -8.6      5.338      6.665
REMARK  Name = 
REMARK  4 active torsions:
REMARK  status: ('A' for Active; 'I' for Inactive)
REMARK    1  A    between atoms: C_1  and  C_2
REMARK    2  A    between atoms: C_5  and  N_6
REMARK    3  A    between atoms: C_7  and  C_9
REMARK    4  A    between atoms: C_9  and  C_10
REMARK                            x       y       z     vdW  Elec       q    Type
REMARK                         _______ _______ _______ _____ _____    ______ ____
ROOT
ATOM      1  C   UNL     1       3.151   3.817  18.078  0.00  0.00    +0.000 C 
ENDROOT
BRANCH   1   2
ATOM      2  C   UNL     1       4.626   4.124  18.084  0.00  0.00    +0.000 A 
ATOM      3  N   UNL     1       5.186   4.235  19.252  0.00  0.00    +0.000 NA
ATOM      4  N   UNL     1       6.518   4.492  19.310  0.00  0.00    +0.000 N 
ATOM      5  C   UNL     1       7.358   4.661  18.237  0.00  0.00    +0.000 A 
ATOM      6  O   UNL     1       8.557   4.868  18.370  0.00  0.00    +0.000 OA
ATOM      7  C   UNL     1       6.737   4.576  16.906  0.00  0.00    +0.000 A 
ATOM      8  C   UNL     1       7.514   4.768  15.758  0.00  0.00    +0.000 A 
ATOM      9  C   UNL     1       6.924   4.677  14.500  0.00  0.00    +0.000 A 
ATOM     10  C   UNL     1       5.562   4.397  14.393  0.00  0.00    +0.000 A 
ATOM     11  C   UNL     1       4.781   4.212  15.542  0.00  0.00    +0.000 A 
ATOM     12  C   UNL     1       5.372   4.303  16.810  0.00  0.00    +0.000 A 
ATOM     13  H   UNL     1       6.938   4.531  20.235  0.00  0.00    +0.000 HD
ENDBRANCH   1   2
BRANCH   1  15
ATOM     14  N   UNL     1       2.845   6.061  18.970  0.00  0.00    +0.000 N 
ATOM     15  C   UNL     1       2.280   5.040  18.226  0.00  0.00    +0.000 C 
ATOM     16  O   UNL     1       1.171   5.054  17.698  0.00  0.00    +0.000 OA
ATOM     17  H   UNL     1       3.841   6.002  19.183  0.00  0.00    +0.000 HD
BRANCH  14  22
ATOM     18  C   UNL     1       0.090  11.006  19.937  0.00  0.00    +0.000 C 
ATOM     19  C   UNL     1       0.876   9.747  19.717  0.00  0.00    +0.000 A 
ATOM     20  C   UNL     1       0.961   8.782  20.724  0.00  0.00    +0.000 A 
ATOM     21  C   UNL     1       1.633   7.575  20.506  0.00  0.00    +0.000 A 
ATOM     22  C   UNL     1       2.227   7.300  19.273  0.00  0.00    +0.000 A 
ATOM     23  C   UNL     1       2.195   8.298  18.292  0.00  0.00    +0.000 A 
ATOM     24  F   UNL     1       2.787   8.084  17.105  0.00  0.00    +0.000 F 
ATOM     25  C   UNL     1       1.521   9.505  18.497  0.00  0.00    +0.000 A 
ENDBRANCH  14  22
ENDBRANCH   1  15
TORSDOF 3
ENDMDL
MODEL 4
REMARK VINA RESULT:      -8.6      5.683      8.191
REMARK  Name = 
REMARK  4 active torsions:
REMARK  status: ('A' for Active; 'I' for Inactive)
REMARK    1  A    between atoms: C_1  and  C_2
REMARK    2  A    between atoms: C_5  and  N_6
REMARK    3  A    between atoms: C_7  and  C_9
REMARK    4  A    between atoms: C_9  and  C_10
REMARK                            x       y       z     vdW  Elec       q    Type
REMARK                         _______ _______ _______ _____ _____    ______ ____
ROOT
ATOM      1  C   UNL     1       2.226   6.931  19.908  0.00  0.00    +0.000 C 
ENDROOT
BRANCH   1   2
ATOM      2  C   UNL     1       1.695   8.308  19.603  0.00  0.00    +0.000 A 
ATOM      3  N   UNL     1       1.929   8.762  18.408  0.00  0.00    +0.000 NA
ATOM      4  N   UNL     1       1.454   9.991  18.077  0.00  0.00    +0.000 N 
ATOM      5  C   UNL     1       0.741  10.832  18.897  0.00  0.00    +0.000 A 
ATOM      6  O   UNL     1       0.326  11.919  18.518  0.00  0.00    +0.000 OA
ATOM      7  C   UNL     1       0.499  10.351  20.266  0.00  0.00    +0.000 A 
ATOM      8  C   UNL     1      -0.191  11.159  21.178  0.00  0.00    +0.000 A 
ATOM      9  C   UNL     1      -0.428  10.697  22.471  0.00  0.00    +0.000 A 
ATOM     10  C   UNL     1       0.027   9.433  22.847  0.00  0.00    +0.000 A 
ATOM     11  C   UNL     1       0.724   8.627  21.937  0.00  0.00    +0.000 A 
ATOM     12  C   UNL     1       0.964   9.090  20.636  0.00  0.00    +0.000 A 
ATOM     13  H   UNL     1       1.613  10.303  17.123  0.00  0.00    +0.000 HD
ENDBRANCH   1   2
BRANCH   1  15
ATOM     14  N   UNL     1       3.986   6.368  18.325  0.00  0.00    +0.000 N 
ATOM     15  C   UNL     1       2.664   6.169  18.683  0.00  0.00    +0.000 C 
ATOM     16  O   UNL     1       1.855   5.448  18.104  0.00  0.00    +0.000 OA
ATOM     17  H   UNL     1       4.599   6.831  18.997  0.00  0.00    +0.000 HD
BRANCH  14  22
ATOM     18  C   UNL     1       6.305   3.813  13.735  0.00  0.00    +0.000 C 
ATOM     19  C   UNL     1       5.774   4.496  14.960  0.00  0.00    +0.000 A 
ATOM     20  C   UNL     1       5.551   5.877  14.957  0.00  0.00    +0.000 A 
ATOM     21  C   UNL     1       4.992   6.514  16.070  0.00  0.00    +0.000 A 
ATOM     22  C   UNL     1       4.633   5.787  17.206  0.00  0.00    +0.000 A 
ATOM     23  C   UNL     1       4.921   4.417  17.226  0.00  0.00    +0.000 A 
ATOM     24  F   UNL     1       4.623   3.691  18.316  0.00  0.00    +0.000 F 
ATOM     25  C   UNL     1       5.474   3.769  16.118  0.00  0.00    +0.000 A 
ENDBRANCH  14  22
ENDBRANCH   1  15
TORSDOF 3
ENDMDL
MODEL 5
REMARK VINA RESULT:      -8.3      5.472      7.419
REMARK  Name = 
REMARK  4 active torsions:
REMARK  status: ('A' for Active; 'I' for Inactive)
REMARK    1  A    between atoms: C_1  and  C_2
REMARK    2  A    between atoms: C_5  and  N_6
REMARK    3  A    between atoms: C_7  and  C_9
REMARK    4  A    between atoms: C_9  and  C_10
REMARK                            x       y       z     vdW  Elec       q    Type
REMARK                         _______ _______ _______ _____ _____    ______ ____
ROOT
ATOM      1  C   UNL     1       4.339   6.290  17.248  0.00  0.00    +0.000 C 
ENDROOT
BRANCH   1   2
ATOM      2  C   UNL     1       4.411   5.060  18.114  0.00  0.00    +0.000 A 
ATOM      3  N   UNL     1       5.584   4.758  18.588  0.00  0.00    +0.000 NA
ATOM      4  N   UNL     1       5.698   3.667  19.390  0.00  0.00    +0.000 N 
ATOM      5  C   UNL     1       4.679   2.822  19.757  0.00  0.00    +0.000 A 
ATOM      6  O   UNL     1       4.857   1.870  20.505  0.00  0.00    +0.000 OA
ATOM      7  C   UNL     1       3.351   3.126  19.201  0.00  0.00    +0.000 A 
ATOM      8  C   UNL     1       2.264   2.295  19.497  0.00  0.00    +0.000 A 
ATOM      9  C   UNL     1       1.006   2.591  18.977  0.00  0.00    +0.000 A 
ATOM     10  C   UNL     1       0.841   3.712  18.163  0.00  0.00    +0.000 A 
ATOM     11  C   UNL     1       1.930   4.538  17.860  0.00  0.00    +0.000 A 
ATOM     12  C   UNL     1       3.197   4.243  18.382  0.00  0.00    +0.000 A 
ATOM     13  H   UNL     1       6.616   3.480  19.781  0.00  0.00    +0.000 HD
ENDBRANCH   1   2
BRANCH   1  15
ATOM     14  N   UNL     1       5.092   4.763  15.510  0.00  0.00    +0.000 N 
ATOM     15  C   UNL     1       4.901   6.087  15.863  0.00  0.00    +0.000 C 
ATOM     16  O   UNL     1       5.143   7.068  15.164  0.00  0.00    +0.000 OA
ATOM     17  H   UNL     1       4.670   4.045  16.100  0.00  0.00    +0.000 HD
BRANCH  14  22
ATOM     18  C   UNL     1       7.480   2.697  10.714  0.00  0.00    +0.000 C 
ATOM     19  C   UNL     1       6.835   3.302  11.924  0.00  0.00    +0.000 A 
ATOM     20  C   UNL     1       5.473   3.104  12.173  0.00  0.00    +0.000 A 
ATOM     21  C   UNL     1       4.876   3.606  13.334  0.00  0.00    +0.000 A 
ATOM     22  C   UNL     1       5.626   4.308  14.278  0.00  0.00    +0.000 A 
ATOM     23  C   UNL     1       6.973   4.559  13.991  0.00  0.00    +0.000 A 
ATOM     24  F   UNL     1       7.719   5.263  14.859  0.00  0.00    +0.000 F 
ATOM     25  C   UNL     1       7.582   4.057  12.837  0.00  0.00    +0.000 A 
ENDBRANCH  14  22
ENDBRANCH   1  15
TORSDOF 3
ENDMDL
MODEL 6
REMARK VINA RESULT:      -8.2      4.855      6.731
REMARK  Name = 
REMARK  4 active torsions:
REMARK  status: ('A' for Active; 'I' for Inactive)
REMARK    1  A    between atoms: C_1  and  C_2
REMARK    2  A    between atoms: C_5  and  N_6
REMARK    3  A    between atoms: C_7  and  C_9
REMARK    4  A    between atoms: C_9  and  C_10
REMARK                            x       y       z     vdW  Elec       q    Type
REMARK                         _______ _______ _______ _____ _____    ______ ____
ROOT
ATOM      1  C   UNL     1       3.206   4.218  20.069  0.00  0.00    +0.000 C 
ENDROOT
BRANCH   1   2
ATOM      2  C   UNL     1       3.853   4.203  18.708  0.00  0.00    +0.000 A 
ATOM      3  N   UNL     1       3.146   3.695  17.742  0.00  0.00    +0.000 NA
ATOM      4  N   UNL     1       3.677   3.675  16.492  0.00  0.00    +0.000 N 
ATOM      5  C   UNL     1       4.919   4.141  16.132  0.00  0.00    +0.000 A 
ATOM      6  O   UNL     1       5.319   4.110  14.975  0.00  0.00    +0.000 OA
ATOM      7  C   UNL     1       5.747   4.686  17.218  0.00  0.00    +0.000 A 
ATOM      8  C   UNL     1       7.039   5.152  16.944  0.00  0.00    +0.000 A 
ATOM      9  C   UNL     1       7.817   5.676  17.973  0.00  0.00    +0.000 A 
ATOM     10  C   UNL     1       7.304   5.731  19.269  0.00  0.00    +0.000 A 
ATOM     11  C   UNL     1       6.015   5.258  19.545  0.00  0.00    +0.000 A 
ATOM     12  C   UNL     1       5.230   4.730  18.512  0.00  0.00    +0.000 A 
ATOM     13  H   UNL     1       3.087   3.313  15.748  0.00  0.00    +0.000 HD
ENDBRANCH   1   2
BRANCH   1  15
ATOM     14  N   UNL     1       2.626   6.580  19.989  0.00  0.00    +0.000 N 
ATOM     15  C   UNL     1       2.165   5.297  20.230  0.00  0.00    +0.000 C 
ATOM     16  O   UNL     1       1.021   4.984  20.550  0.00  0.00    +0.000 OA
ATOM     17  H   UNL     1       3.537   6.684  19.542  0.00  0.00    +0.000 HD
BRANCH  14  22
ATOM     18  C   UNL     1      -0.730  11.235  20.177  0.00  0.00    +0.000 C 
ATOM     19  C   UNL     1       0.208  10.065  20.152  0.00  0.00    +0.000 A 
ATOM     20  C   UNL     1       0.420   9.305  21.306  0.00  0.00    +0.000 A 
ATOM     21  C   UNL     1       1.239   8.172  21.278  0.00  0.00    +0.000 A 
ATOM     22  C   UNL     1       1.856   7.765  20.094  0.00  0.00    +0.000 A 
ATOM     23  C   UNL     1       1.693   8.568  18.959  0.00  0.00    +0.000 A 
ATOM     24  F   UNL     1       2.301   8.229  17.810  0.00  0.00    +0.000 F 
ATOM     25  C   UNL     1       0.872   9.700  18.975  0.00  0.00    +0.000 A 
ENDBRANCH  14  22
ENDBRANCH   1  15
TORSDOF 3
ENDMDL
MODEL 7
REMARK VINA RESULT:      -8.2      5.764      6.496
REMARK  Name = 
REMARK  4 active torsions:
REMARK  status: ('A' for Active; 'I' for Inactive)
REMARK    1  A    between atoms: C_1  and  C_2
REMARK    2  A    between atoms: C_5  and  N_6
REMARK    3  A    between atoms: C_7  and  C_9
REMARK    4  A    between atoms: C_9  and  C_10
REMARK                            x       y       z     vdW  Elec       q    Type
REMARK                         _______ _______ _______ _____ _____    ______ ____
ROOT
ATOM      1  C   UNL     1       3.462   5.403  17.326  0.00  0.00    +0.000 C 
ENDROOT
BRANCH   1   2
ATOM      2  C   UNL     1       3.857   4.388  18.367  0.00  0.00    +0.000 A 
ATOM      3  N   UNL     1       5.090   3.974  18.328  0.00  0.00    +0.000 NA
ATOM      4  N   UNL     1       5.500   3.073  19.257  0.00  0.00    +0.000 N 
ATOM      5  C   UNL     1       4.729   2.531  20.256  0.00  0.00    +0.000 A 
ATOM      6  O   UNL     1       5.179   1.739  21.074  0.00  0.00    +0.000 OA
ATOM      7  C   UNL     1       3.322   2.959  20.295  0.00  0.00    +0.000 A 
ATOM      8  C   UNL     1       2.457   2.430  21.261  0.00  0.00    +0.000 A 
ATOM      9  C   UNL     1       1.128   2.845  21.300  0.00  0.00    +0.000 A 
ATOM     10  C   UNL     1       0.669   3.783  20.375  0.00  0.00    +0.000 A 
ATOM     11  C   UNL     1       1.531   4.306  19.404  0.00  0.00    +0.000 A 
ATOM     12  C   UNL     1       2.869   3.891  19.361  0.00  0.00    +0.000 A 
ATOM     13  H   UNL     1       6.479   2.800  19.230  0.00  0.00    +0.000 HD
ENDBRANCH   1   2
BRANCH   1  15
ATOM     14  N   UNL     1       2.094   7.205  18.222  0.00  0.00    +0.000 N 
ATOM     15  C   UNL     1       3.370   6.811  17.861  0.00  0.00    +0.000 C 
ATOM     16  O   UNL     1       4.391   7.490  17.942  0.00  0.00    +0.000 OA
ATOM     17  H   UNL     1       1.373   6.486  18.291  0.00  0.00    +0.000 HD
BRANCH  14  22
ATOM     18  C   UNL     1       0.937  12.346  20.503  0.00  0.00    +0.000 C 
ATOM     19  C   UNL     1       1.162  10.999  19.884  0.00  0.00    +0.000 A 
ATOM     20  C   UNL     1       1.497  10.890  18.531  0.00  0.00    +0.000 A 
ATOM     21  C   UNL     1       1.775   9.645  17.959  0.00  0.00    +0.000 A 
ATOM     22  C   UNL     1       1.737   8.480  18.728  0.00  0.00    +0.000 A 
ATOM     23  C   UNL     1       1.337   8.589  20.065  0.00  0.00    +0.000 A 
ATOM     24  F   UNL     1       1.253   7.486  20.827  0.00  0.00    +0.000 F 
ATOM     25  C   UNL     1       1.061   9.830  20.648  0.00  0.00    +0.000 A 
ENDBRANCH  14  22
ENDBRANCH   1  15
TORSDOF 3
ENDMDL
MODEL 8
REMARK VINA RESULT:      -8.2      6.526      9.617
REMARK  Name = 
REMARK  4 active torsions:
REMARK  status: ('A' for Active; 'I' for Inactive)
REMARK    1  A    between atoms: C_1  and  C_2
REMARK    2  A    between atoms: C_5  and  N_6
REMARK    3  A    between atoms: C_7  and  C_9
REMARK    4  A    between atoms: C_9  and  C_10
REMARK                            x       y       z     vdW  Elec       q    Type
REMARK                         _______ _______ _______ _____ _____    ______ ____
ROOT
ATOM      1  C   UNL     1       1.767   8.857  18.348  0.00  0.00    +0.000 C 
ENDROOT
BRANCH   1   2
ATOM      2  C   UNL     1       1.314   9.133  19.758  0.00  0.00    +0.000 A 
ATOM      3  N   UNL     1       1.848   8.396  20.688  0.00  0.00    +0.000 NA
ATOM      4  N   UNL     1       1.487   8.619  21.978  0.00  0.00    +0.000 N 
ATOM      5  C   UNL     1       0.587   9.561  22.416  0.00  0.00    +0.000 A 
ATOM      6  O   UNL     1       0.331   9.718  23.603  0.00  0.00    +0.000 OA
ATOM      7  C   UNL     1      -0.054  10.380  21.376  0.00  0.00    +0.000 A 
ATOM      8  C   UNL     1      -1.008  11.341  21.733  0.00  0.00    +0.000 A 
ATOM      9  C   UNL     1      -1.606  12.121  20.746  0.00  0.00    +0.000 A 
ATOM     10  C   UNL     1      -1.252  11.937  19.410  0.00  0.00    +0.000 A 
ATOM     11  C   UNL     1      -0.303  10.970  19.051  0.00  0.00    +0.000 A 
ATOM     12  C   UNL     1       0.300  10.184  20.042  0.00  0.00    +0.000 A 
ATOM     13  H   UNL     1       1.951   8.060  22.688  0.00  0.00    +0.000 HD
ENDBRANCH   1   2
BRANCH   1  15
ATOM     14  N   UNL     1       1.863   6.452  18.712  0.00  0.00    +0.000 N 
ATOM     15  C   UNL     1       2.519   7.558  18.200  0.00  0.00    +0.000 C 
ATOM     16  O   UNL     1       3.620   7.562  17.654  0.00  0.00    +0.000 OA
ATOM     17  H   UNL     1       0.878   6.553  18.957  0.00  0.00    +0.000 HD
BRANCH  14  22
ATOM     18  C   UNL     1       4.009   1.136  18.391  0.00  0.00    +0.000 C 
ATOM     19  C   UNL     1       3.399   2.498  18.533  0.00  0.00    +0.000 A 
ATOM     20  C   UNL     1       3.905   3.404  19.470  0.00  0.00    +0.000 A 
ATOM     21  C   UNL     1       3.389   4.701  19.564  0.00  0.00    +0.000 A 
ATOM     22  C   UNL     1       2.364   5.126  18.717  0.00  0.00    +0.000 A 
ATOM     23  C   UNL     1       1.818   4.194  17.827  0.00  0.00    +0.000 A 
ATOM     24  F   UNL     1       0.806   4.555  17.022  0.00  0.00    +0.000 F 
ATOM     25  C   UNL     1       2.330   2.897  17.721  0.00  0.00    +0.000 A 
ENDBRANCH  14  22
ENDBRANCH   1  15
TORSDOF 3
ENDMDL
MODEL 9
REMARK VINA RESULT:      -8.1      6.332      9.438
REMARK  Name = 
REMARK  4 active torsions:
REMARK  status: ('A' for Active; 'I' for Inactive)
REMARK    1  A    between atoms: C_1  and  C_2
REMARK    2  A    between atoms: C_5  and  N_6
REMARK    3  A    between atoms: C_7  and  C_9
REMARK    4  A    between atoms: C_9  and  C_10
REMARK                            x       y       z     vdW  Elec       q    Type
REMARK                         _______ _______ _______ _____ _____    ______ ____
ROOT
ATOM      1  C   UNL     1       1.712   8.786  18.288  0.00  0.00    +0.000 C 
ENDROOT
BRANCH   1   2
ATOM      2  C   UNL     1       1.288   9.085  19.703  0.00  0.00    +0.000 A 
ATOM      3  N   UNL     1       1.839   8.362  20.633  0.00  0.00    +0.000 NA
ATOM      4  N   UNL     1       1.504   8.606  21.927  0.00  0.00    +0.000 N 
ATOM      5  C   UNL     1       0.615   9.556  22.368  0.00  0.00    +0.000 A 
ATOM      6  O   UNL     1       0.383   9.732  23.557  0.00  0.00    +0.000 OA
ATOM      7  C   UNL     1      -0.046  10.359  21.328  0.00  0.00    +0.000 A 
ATOM      8  C   UNL     1      -0.991  11.327  21.689  0.00  0.00    +0.000 A 
ATOM      9  C   UNL     1      -1.608  12.093  20.702  0.00  0.00    +0.000 A 
ATOM     10  C   UNL     1      -1.281  11.887  19.362  0.00  0.00    +0.000 A 
ATOM     11  C   UNL     1      -0.341  10.913  19.000  0.00  0.00    +0.000 A 
ATOM     12  C   UNL     1       0.281  10.142  19.990  0.00  0.00    +0.000 A 
ATOM     13  H   UNL     1       1.982   8.057  22.636  0.00  0.00    +0.000 HD
ENDBRANCH   1   2
BRANCH   1  15
ATOM     14  N   UNL     1       1.910   6.376  18.559  0.00  0.00    +0.000 N 
ATOM     15  C   UNL     1       2.548   7.537  18.161  0.00  0.00    +0.000 C 
ATOM     16  O   UNL     1       3.694   7.625  17.728  0.00  0.00    +0.000 OA
ATOM     17  H   UNL     1       0.902   6.412  18.710  0.00  0.00    +0.000 HD
BRANCH  14  22
ATOM     18  C   UNL     1       3.919   0.998  18.710  0.00  0.00    +0.000 C 
ATOM     19  C   UNL     1       3.470   2.428  18.668  0.00  0.00    +0.000 A 
ATOM     20  C   UNL     1       3.291   3.077  17.443  0.00  0.00    +0.000 A 
ATOM     21  C   UNL     1       2.808   4.389  17.390  0.00  0.00    +0.000 A 
ATOM     22  C   UNL     1       2.483   5.079  18.559  0.00  0.00    +0.000 A 
ATOM     23  C   UNL     1       2.727   4.447  19.784  0.00  0.00    +0.000 A 
ATOM     24  F   UNL     1       2.461   5.093  20.931  0.00  0.00    +0.000 F 
ATOM     25  C   UNL     1       3.204   3.135  19.848  0.00  0.00    +0.000 A 
ENDBRANCH  14  22
ENDBRANCH   1  15
TORSDOF 3
ENDMDL
