MODEL 1
REMARK VINA RESULT:      -8.6      0.000      0.000
REMARK  Name = 
REMARK  6 active torsions:
REMARK  status: ('A' for Active; 'I' for Inactive)
REMARK    1  A    between atoms: C_2  and  C_3
REMARK    2  A    between atoms: C_3  and  O_4
REMARK    3  A    between atoms: O_4  and  C_5
REMARK    4  A    between atoms: C_5  and  C_7
REMARK    5  A    between atoms: N_18  and  C_19
REMARK    6  A    between atoms: C_21  and  C_22
REMARK                            x       y       z     vdW  Elec       q    Type
REMARK                         _______ _______ _______ _____ _____    ______ ____
ROOT
ATOM      1  O   UNL     1       0.517   4.282  20.178  0.00  0.00    +0.000 OA
ATOM      2  C   UNL     1       1.584   4.436  20.776  0.00  0.00    +0.000 C 
ATOM      3  N   UNL     1       2.290   5.623  20.859  0.00  0.00    +0.000 N 
ATOM      4  H   UNL     1       3.264   5.575  21.167  0.00  0.00    +0.000 HD
ENDROOT
BRANCH   3   5
ATOM      5  C   UNL     1       1.820   6.909  20.477  0.00  0.00    +0.000 A 
ATOM      6  C   UNL     1       1.071   7.703  21.351  0.00  0.00    +0.000 A 
ATOM      7  C   UNL     1       0.634   8.989  20.993  0.00  0.00    +0.000 A 
ATOM      8  C   UNL     1       1.010   9.509  19.747  0.00  0.00    +0.000 A 
ATOM      9  C   UNL     1       1.751   8.730  18.857  0.00  0.00    +0.000 A 
ATOM     10  C   UNL     1       2.139   7.431  19.214  0.00  0.00    +0.000 A 
ATOM     11 CL   UNL     1       2.964   6.479  18.029  0.00  0.00    +0.000 Cl
BRANCH   7  12
ATOM     12  C   UNL     1      -0.244   9.783  21.930  0.00  0.00    +0.000 C 
ATOM     13  F   UNL     1      -1.217  10.498  21.298  0.00  0.00    +0.000 F 
ATOM     14  F   UNL     1      -0.888   8.997  22.836  0.00  0.00    +0.000 F 
ATOM     15  F   UNL     1       0.469  10.688  22.657  0.00  0.00    +0.000 F 
ENDBRANCH   7  12
ENDBRANCH   3   5
BRANCH   2  16
ATOM     16  C   UNL     1       2.238   3.239  21.468  0.00  0.00    +0.000 C 
BRANCH  16  17
ATOM     17  O   UNL     1       3.485   2.845  20.901  0.00  0.00    +0.000 OA
BRANCH  17  18
ATOM     18  C   UNL     1       3.427   2.472  19.602  0.00  0.00    +0.000 C 
ATOM     19  O   UNL     1       2.698   1.592  19.161  0.00  0.00    +0.000 OA
BRANCH  18  20
ATOM     20  C   UNL     1       4.328   3.318  18.780  0.00  0.00    +0.000 A 
ATOM     21  C   UNL     1       4.185   3.235  17.452  0.00  0.00    +0.000 A 
ATOM     22  C   UNL     1       5.027   4.076  16.588  0.00  0.00    +0.000 A 
ATOM     23  O   UNL     1       4.904   4.050  15.374  0.00  0.00    +0.000 OA
ATOM     24  C   UNL     1       6.003   4.941  17.267  0.00  0.00    +0.000 A 
ATOM     25  C   UNL     1       6.862   5.760  16.531  0.00  0.00    +0.000 A 
ATOM     26  C   UNL     1       7.780   6.569  17.202  0.00  0.00    +0.000 A 
ATOM     27  C   UNL     1       7.832   6.560  18.598  0.00  0.00    +0.000 A 
ATOM     28  C   UNL     1       6.969   5.742  19.329  0.00  0.00    +0.000 A 
ATOM     29  C   UNL     1       6.056   4.930  18.659  0.00  0.00    +0.000 A 
ATOM     30  O   UNL     1       5.234   4.142  19.428  0.00  0.00    +0.000 OA
ENDBRANCH  18  20
ENDBRANCH  17  18
ENDBRANCH  16  17
ENDBRANCH   2  16
TORSDOF 6
ENDMDL
MODEL 2
REMARK VINA RESULT:      -8.5      0.925      2.038
REMARK  Name = 
REMARK  6 active torsions:
REMARK  status: ('A' for Active; 'I' for Inactive)
REMARK    1  A    between atoms: C_2  and  C_3
REMARK    2  A    between atoms: C_3  and  O_4
REMARK    3  A    between atoms: O_4  and  C_5
REMARK    4  A    between atoms: C_5  and  C_7
REMARK    5  A    between atoms: N_18  and  C_19
REMARK    6  A    between atoms: C_21  and  C_22
REMARK                            x       y       z     vdW  Elec       q    Type
REMARK                         _______ _______ _______ _____ _____    ______ ____
ROOT
ATOM      1  O   UNL     1       0.606   4.232  20.120  0.00  0.00    +0.000 OA
ATOM      2  C   UNL     1       1.690   4.390  20.685  0.00  0.00    +0.000 C 
ATOM      3  N   UNL     1       2.406   5.574  20.723  0.00  0.00    +0.000 N 
ATOM      4  H   UNL     1       3.387   5.525  21.005  0.00  0.00    +0.000 HD
ENDROOT
BRANCH   3   5
ATOM      5  C   UNL     1       1.933   6.855  20.329  0.00  0.00    +0.000 A 
ATOM      6  C   UNL     1       1.165   7.648  21.188  0.00  0.00    +0.000 A 
ATOM      7  C   UNL     1       0.726   8.929  20.817  0.00  0.00    +0.000 A 
ATOM      8  C   UNL     1       1.118   9.447  19.576  0.00  0.00    +0.000 A 
ATOM      9  C   UNL     1       1.878   8.669  18.700  0.00  0.00    +0.000 A 
ATOM     10  C   UNL     1       2.268   7.374  19.069  0.00  0.00    +0.000 A 
ATOM     11 CL   UNL     1       3.119   6.423  17.901  0.00  0.00    +0.000 Cl
BRANCH   7  12
ATOM     12  C   UNL     1      -0.172   9.722  21.737  0.00  0.00    +0.000 C 
ATOM     13  F   UNL     1       0.503  10.518  22.612  0.00  0.00    +0.000 F 
ATOM     14  F   UNL     1      -1.019  10.546  21.061  0.00  0.00    +0.000 F 
ATOM     15  F   UNL     1      -0.961   8.916  22.501  0.00  0.00    +0.000 F 
ENDBRANCH   7  12
ENDBRANCH   3   5
BRANCH   2  16
ATOM     16  C   UNL     1       2.355   3.203  21.382  0.00  0.00    +0.000 C 
BRANCH  16  17
ATOM     17  O   UNL     1       3.534   2.730  20.735  0.00  0.00    +0.000 OA
BRANCH  17  18
ATOM     18  C   UNL     1       3.389   2.452  19.419  0.00  0.00    +0.000 C 
ATOM     19  O   UNL     1       2.530   1.713  18.953  0.00  0.00    +0.000 OA
BRANCH  18  20
ATOM     20  C   UNL     1       4.378   3.213  18.616  0.00  0.00    +0.000 A 
ATOM     21  C   UNL     1       5.292   3.916  19.296  0.00  0.00    +0.000 A 
ATOM     22  C   UNL     1       6.319   4.661  18.552  0.00  0.00    +0.000 A 
ATOM     23  O   UNL     1       7.187   5.289  19.138  0.00  0.00    +0.000 OA
ATOM     24  C   UNL     1       6.241   4.597  17.086  0.00  0.00    +0.000 A 
ATOM     25  C   UNL     1       7.159   5.289  16.293  0.00  0.00    +0.000 A 
ATOM     26  C   UNL     1       7.060   5.212  14.903  0.00  0.00    +0.000 A 
ATOM     27  C   UNL     1       6.053   4.444  14.315  0.00  0.00    +0.000 A 
ATOM     28  C   UNL     1       5.140   3.751  15.111  0.00  0.00    +0.000 A 
ATOM     29  C   UNL     1       5.235   3.833  16.499  0.00  0.00    +0.000 A 
ATOM     30  O   UNL     1       4.308   3.134  17.234  0.00  0.00    +0.000 OA
ENDBRANCH  18  20
ENDBRANCH  17  18
ENDBRANCH  16  17
ENDBRANCH   2  16
TORSDOF 6
ENDMDL
MODEL 3
REMARK VINA RESULT:      -8.3      4.778      8.572
REMARK  Name = 
REMARK  6 active torsions:
REMARK  status: ('A' for Active; 'I' for Inactive)
REMARK    1  A    between atoms: C_2  and  C_3
REMARK    2  A    between atoms: C_3  and  O_4
REMARK    3  A    between atoms: O_4  and  C_5
REMARK    4  A    between atoms: C_5  and  C_7
REMARK    5  A    between atoms: N_18  and  C_19
REMARK    6  A    between atoms: C_21  and  C_22
REMARK                            x       y       z     vdW  Elec       q    Type
REMARK                         _______ _______ _______ _____ _____    ______ ____
ROOT
ATOM      1  O   UNL     1      -0.359   8.176  21.049  0.00  0.00    +0.000 OA
ATOM      2  C   UNL     1       0.790   8.528  21.326  0.00  0.00    +0.000 C 
ATOM      3  N   UNL     1       1.935   7.799  21.059  0.00  0.00    +0.000 N 
ATOM      4  H   UNL     1       2.794   8.072  21.543  0.00  0.00    +0.000 HD
ENDROOT
BRANCH   3   5
ATOM      5  C   UNL     1       2.025   6.646  20.233  0.00  0.00    +0.000 A 
ATOM      6  C   UNL     1       1.827   5.360  20.745  0.00  0.00    +0.000 A 
ATOM      7  C   UNL     1       1.879   4.221  19.926  0.00  0.00    +0.000 A 
ATOM      8  C   UNL     1       2.077   4.386  18.549  0.00  0.00    +0.000 A 
ATOM      9  C   UNL     1       2.285   5.661  18.017  0.00  0.00    +0.000 A 
ATOM     10  C   UNL     1       2.275   6.782  18.858  0.00  0.00    +0.000 A 
ATOM     11 CL   UNL     1       2.642   8.320  18.157  0.00  0.00    +0.000 Cl
BRANCH   7  12
ATOM     12  C   UNL     1       1.744   2.843  20.529  0.00  0.00    +0.000 C 
ATOM     13  F   UNL     1       0.800   2.761  21.507  0.00  0.00    +0.000 F 
ATOM     14  F   UNL     1       1.409   1.899  19.607  0.00  0.00    +0.000 F 
ATOM     15  F   UNL     1       2.906   2.417  21.098  0.00  0.00    +0.000 F 
ENDBRANCH   7  12
ENDBRANCH   3   5
BRANCH   2  16
ATOM     16  C   UNL     1       1.015   9.853  22.056  0.00  0.00    +0.000 C 
BRANCH  16  17
ATOM     17  O   UNL     1       1.037  10.995  21.202  0.00  0.00    +0.000 OA
BRANCH  17  18
ATOM     18  C   UNL     1       0.055  11.896  21.433  0.00  0.00    +0.000 C 
ATOM     19  O   UNL     1       0.081  12.746  22.315  0.00  0.00    +0.000 OA
BRANCH  18  20
ATOM     20  C   UNL     1      -1.031  11.747  20.432  0.00  0.00    +0.000 A 
ATOM     21  C   UNL     1      -2.177  12.389  20.687  0.00  0.00    +0.000 A 
ATOM     22  C   UNL     1      -3.275  12.306  19.712  0.00  0.00    +0.000 A 
ATOM     23  O   UNL     1      -4.324  12.902  19.896  0.00  0.00    +0.000 OA
ATOM     24  C   UNL     1      -3.032  11.480  18.521  0.00  0.00    +0.000 A 
ATOM     25  C   UNL     1      -4.023  11.321  17.550  0.00  0.00    +0.000 A 
ATOM     26  C   UNL     1      -3.766  10.530  16.430  0.00  0.00    +0.000 A 
ATOM     27  C   UNL     1      -2.523   9.907  16.284  0.00  0.00    +0.000 A 
ATOM     28  C   UNL     1      -1.535  10.070  17.256  0.00  0.00    +0.000 A 
ATOM     29  C   UNL     1      -1.795  10.857  18.377  0.00  0.00    +0.000 A 
ATOM     30  O   UNL     1      -0.788  10.980  19.304  0.00  0.00    +0.000 OA
ENDBRANCH  18  20
ENDBRANCH  17  18
ENDBRANCH  16  17
ENDBRANCH   2  16
TORSDOF 6
ENDMDL
MODEL 4
REMARK VINA RESULT:      -8.2      1.869      2.843
REMARK  Name = 
REMARK  6 active torsions:
REMARK  status: ('A' for Active; 'I' for Inactive)
REMARK    1  A    between atoms: C_2  and  C_3
REMARK    2  A    between atoms: C_3  and  O_4
REMARK    3  A    between atoms: O_4  and  C_5
REMARK    4  A    between atoms: C_5  and  C_7
REMARK    5  A    between atoms: N_18  and  C_19
REMARK    6  A    between atoms: C_21  and  C_22
REMARK                            x       y       z     vdW  Elec       q    Type
REMARK                         _______ _______ _______ _____ _____    ______ ____
ROOT
ATOM      1  O   UNL     1       1.290   4.656  19.905  0.00  0.00    +0.000 OA
ATOM      2  C   UNL     1       2.476   4.993  19.940  0.00  0.00    +0.000 C 
ATOM      3  N   UNL     1       2.941   6.290  19.819  0.00  0.00    +0.000 N 
ATOM      4  H   UNL     1       3.936   6.420  19.621  0.00  0.00    +0.000 HD
ENDROOT
BRANCH   3   5
ATOM      5  C   UNL     1       2.155   7.473  19.864  0.00  0.00    +0.000 A 
ATOM      6  C   UNL     1       1.460   7.847  21.019  0.00  0.00    +0.000 A 
ATOM      7  C   UNL     1       0.710   9.033  21.081  0.00  0.00    +0.000 A 
ATOM      8  C   UNL     1       0.708   9.891  19.973  0.00  0.00    +0.000 A 
ATOM      9  C   UNL     1       1.388   9.533  18.807  0.00  0.00    +0.000 A 
ATOM     10  C   UNL     1       2.093   8.323  18.749  0.00  0.00    +0.000 A 
ATOM     11 CL   UNL     1       2.828   7.887  17.244  0.00  0.00    +0.000 Cl
BRANCH   7  12
ATOM     12  C   UNL     1      -0.095   9.361  22.315  0.00  0.00    +0.000 C 
ATOM     13  F   UNL     1      -1.038   8.427  22.620  0.00  0.00    +0.000 F 
ATOM     14  F   UNL     1       0.680   9.486  23.428  0.00  0.00    +0.000 F 
ATOM     15  F   UNL     1      -0.766  10.540  22.191  0.00  0.00    +0.000 F 
ENDBRANCH   7  12
ENDBRANCH   3   5
BRANCH   2  16
ATOM     16  C   UNL     1       3.558   3.923  20.089  0.00  0.00    +0.000 C 
BRANCH  16  17
ATOM     17  O   UNL     1       4.580   3.982  19.097  0.00  0.00    +0.000 OA
BRANCH  17  18
ATOM     18  C   UNL     1       4.220   3.513  17.881  0.00  0.00    +0.000 C 
ATOM     19  O   UNL     1       3.259   2.783  17.671  0.00  0.00    +0.000 OA
BRANCH  18  20
ATOM     20  C   UNL     1       5.119   4.053  16.830  0.00  0.00    +0.000 A 
ATOM     21  C   UNL     1       5.944   5.041  17.194  0.00  0.00    +0.000 A 
ATOM     22  C   UNL     1       6.882   5.591  16.203  0.00  0.00    +0.000 A 
ATOM     23  O   UNL     1       7.671   6.471  16.507  0.00  0.00    +0.000 OA
ATOM     24  C   UNL     1       6.816   5.018  14.851  0.00  0.00    +0.000 A 
ATOM     25  C   UNL     1       7.650   5.490  13.836  0.00  0.00    +0.000 A 
ATOM     26  C   UNL     1       7.565   4.929  12.561  0.00  0.00    +0.000 A 
ATOM     27  C   UNL     1       6.653   3.901  12.309  0.00  0.00    +0.000 A 
ATOM     28  C   UNL     1       5.823   3.431  13.327  0.00  0.00    +0.000 A 
ATOM     29  C   UNL     1       5.905   3.995  14.599  0.00  0.00    +0.000 A 
ATOM     30  O   UNL     1       5.061   3.496  15.562  0.00  0.00    +0.000 OA
ENDBRANCH  18  20
ENDBRANCH  17  18
ENDBRANCH  16  17
ENDBRANCH   2  16
TORSDOF 6
ENDMDL
MODEL 5
REMARK VINA RESULT:      -8.0      5.331      7.594
REMARK  Name = 
REMARK  6 active torsions:
REMARK  status: ('A' for Active; 'I' for Inactive)
REMARK    1  A    between atoms: C_2  and  C_3
REMARK    2  A    between atoms: C_3  and  O_4
REMARK    3  A    between atoms: O_4  and  C_5
REMARK    4  A    between atoms: C_5  and  C_7
REMARK    5  A    between atoms: N_18  and  C_19
REMARK    6  A    between atoms: C_21  and  C_22
REMARK                            x       y       z     vdW  Elec       q    Type
REMARK                         _______ _______ _______ _____ _____    ______ ____
ROOT
ATOM      1  O   UNL     1       7.873  10.392  17.652  0.00  0.00    +0.000 OA
ATOM      2  C   UNL     1       8.428   9.512  18.313  0.00  0.00    +0.000 C 
ATOM      3  N   UNL     1       9.338   9.732  19.332  0.00  0.00    +0.000 N 
ATOM      4  H   UNL     1       9.907   8.940  19.639  0.00  0.00    +0.000 HD
ENDROOT
BRANCH   3   5
ATOM      5  C   UNL     1       9.622  10.980  19.950  0.00  0.00    +0.000 A 
ATOM      6  C   UNL     1       9.036  11.346  21.166  0.00  0.00    +0.000 A 
ATOM      7  C   UNL     1       9.341  12.562  21.799  0.00  0.00    +0.000 A 
ATOM      8  C   UNL     1      10.302  13.402  21.222  0.00  0.00    +0.000 A 
ATOM      9  C   UNL     1      10.894  13.060  20.004  0.00  0.00    +0.000 A 
ATOM     10  C   UNL     1      10.542  11.864  19.365  0.00  0.00    +0.000 A 
ATOM     11 CL   UNL     1      11.231  11.546  17.810  0.00  0.00    +0.000 Cl
BRANCH   7  12
ATOM     12  C   UNL     1       8.625  12.960  23.067  0.00  0.00    +0.000 C 
ATOM     13  F   UNL     1       8.796  12.081  24.094  0.00  0.00    +0.000 F 
ATOM     14  F   UNL     1       9.032  14.170  23.540  0.00  0.00    +0.000 F 
ATOM     15  F   UNL     1       7.279  13.061  22.885  0.00  0.00    +0.000 F 
ENDBRANCH   7  12
ENDBRANCH   3   5
BRANCH   2  16
ATOM     16  C   UNL     1       8.150   8.043  17.993  0.00  0.00    +0.000 C 
BRANCH  16  17
ATOM     17  O   UNL     1       7.079   7.837  17.074  0.00  0.00    +0.000 OA
BRANCH  17  18
ATOM     18  C   UNL     1       6.811   6.541  16.795  0.00  0.00    +0.000 C 
ATOM     19  O   UNL     1       7.509   5.819  16.093  0.00  0.00    +0.000 OA
BRANCH  18  20
ATOM     20  C   UNL     1       5.584   6.101  17.505  0.00  0.00    +0.000 A 
ATOM     21  C   UNL     1       4.526   6.918  17.440  0.00  0.00    +0.000 A 
ATOM     22  C   UNL     1       3.271   6.518  18.095  0.00  0.00    +0.000 A 
ATOM     23  O   UNL     1       2.277   7.223  18.031  0.00  0.00    +0.000 OA
ATOM     24  C   UNL     1       3.288   5.234  18.811  0.00  0.00    +0.000 A 
ATOM     25  C   UNL     1       2.152   4.779  19.484  0.00  0.00    +0.000 A 
ATOM     26  C   UNL     1       2.197   3.558  20.157  0.00  0.00    +0.000 A 
ATOM     27  C   UNL     1       3.370   2.798  20.153  0.00  0.00    +0.000 A 
ATOM     28  C   UNL     1       4.502   3.257  19.477  0.00  0.00    +0.000 A 
ATOM     29  C   UNL     1       4.458   4.479  18.809  0.00  0.00    +0.000 A 
ATOM     30  O   UNL     1       5.603   4.883  18.164  0.00  0.00    +0.000 OA
ENDBRANCH  18  20
ENDBRANCH  17  18
ENDBRANCH  16  17
ENDBRANCH   2  16
TORSDOF 6
ENDMDL
MODEL 6
REMARK VINA RESULT:      -7.8      4.818      8.727
REMARK  Name = 
REMARK  6 active torsions:
REMARK  status: ('A' for Active; 'I' for Inactive)
REMARK    1  A    between atoms: C_2  and  C_3
REMARK    2  A    between atoms: C_3  and  O_4
REMARK    3  A    between atoms: O_4  and  C_5
REMARK    4  A    between atoms: C_5  and  C_7
REMARK    5  A    between atoms: N_18  and  C_19
REMARK    6  A    between atoms: C_21  and  C_22
REMARK                            x       y       z     vdW  Elec       q    Type
REMARK                         _______ _______ _______ _____ _____    ______ ____
ROOT
ATOM      1  O   UNL     1      -0.298   8.037  21.339  0.00  0.00    +0.000 OA
ATOM      2  C   UNL     1       0.831   8.523  21.428  0.00  0.00    +0.000 C 
ATOM      3  N   UNL     1       1.999   7.916  21.001  0.00  0.00    +0.000 N 
ATOM      4  H   UNL     1       2.884   8.298  21.341  0.00  0.00    +0.000 HD
ENDROOT
BRANCH   3   5
ATOM      5  C   UNL     1       2.093   6.751  20.192  0.00  0.00    +0.000 A 
ATOM      6  C   UNL     1       1.937   5.470  20.731  0.00  0.00    +0.000 A 
ATOM      7  C   UNL     1       1.993   4.318  19.930  0.00  0.00    +0.000 A 
ATOM      8  C   UNL     1       2.153   4.463  18.546  0.00  0.00    +0.000 A 
ATOM      9  C   UNL     1       2.319   5.733  17.988  0.00  0.00    +0.000 A 
ATOM     10  C   UNL     1       2.306   6.868  18.810  0.00  0.00    +0.000 A 
ATOM     11 CL   UNL     1       2.621   8.402  18.074  0.00  0.00    +0.000 Cl
BRANCH   7  12
ATOM     12  C   UNL     1       1.904   2.948  20.559  0.00  0.00    +0.000 C 
ATOM     13  F   UNL     1       2.323   2.911  21.855  0.00  0.00    +0.000 F 
ATOM     14  F   UNL     1       0.635   2.455  20.563  0.00  0.00    +0.000 F 
ATOM     15  F   UNL     1       2.662   2.030  19.898  0.00  0.00    +0.000 F 
ENDBRANCH   7  12
ENDBRANCH   3   5
BRANCH   2  16
ATOM     16  C   UNL     1       1.011   9.890  22.089  0.00  0.00    +0.000 C 
BRANCH  16  17
ATOM     17  O   UNL     1       0.999  10.987  21.179  0.00  0.00    +0.000 OA
BRANCH  17  18
ATOM     18  C   UNL     1      -0.027  11.854  21.347  0.00  0.00    +0.000 C 
ATOM     19  O   UNL     1      -0.082  12.707  22.224  0.00  0.00    +0.000 OA
BRANCH  18  20
ATOM     20  C   UNL     1      -1.046  11.661  20.285  0.00  0.00    +0.000 A 
ATOM     21  C   UNL     1      -0.679  10.937  19.222  0.00  0.00    +0.000 A 
ATOM     22  C   UNL     1      -1.659  10.684  18.155  0.00  0.00    +0.000 A 
ATOM     23  O   UNL     1      -1.370  10.003  17.185  0.00  0.00    +0.000 OA
ATOM     24  C   UNL     1      -2.988  11.287  18.332  0.00  0.00    +0.000 A 
ATOM     25  C   UNL     1      -3.980  11.123  17.362  0.00  0.00    +0.000 A 
ATOM     26  C   UNL     1      -5.232  11.707  17.555  0.00  0.00    +0.000 A 
ATOM     27  C   UNL     1      -5.488  12.447  18.712  0.00  0.00    +0.000 A 
ATOM     28  C   UNL     1      -4.495  12.607  19.680  0.00  0.00    +0.000 A 
ATOM     29  C   UNL     1      -3.243  12.027  19.484  0.00  0.00    +0.000 A 
ATOM     30  O   UNL     1      -2.302  12.219  20.467  0.00  0.00    +0.000 OA
ENDBRANCH  18  20
ENDBRANCH  17  18
ENDBRANCH  16  17
ENDBRANCH   2  16
TORSDOF 6
ENDMDL
MODEL 7
REMARK VINA RESULT:      -7.8      4.386      8.946
REMARK  Name = 
REMARK  6 active torsions:
REMARK  status: ('A' for Active; 'I' for Inactive)
REMARK    1  A    between atoms: C_2  and  C_3
REMARK    2  A    between atoms: C_3  and  O_4
REMARK    3  A    between atoms: O_4  and  C_5
REMARK    4  A    between atoms: C_5  and  C_7
REMARK    5  A    between atoms: N_18  and  C_19
REMARK    6  A    between atoms: C_21  and  C_22
REMARK                            x       y       z     vdW  Elec       q    Type
REMARK                         _______ _______ _______ _____ _____    ______ ____
ROOT
ATOM      1  O   UNL     1       2.095   8.040  19.772  0.00  0.00    +0.000 OA
ATOM      2  C   UNL     1       2.219   8.146  18.550  0.00  0.00    +0.000 C 
ATOM      3  N   UNL     1       2.771   7.190  17.716  0.00  0.00    +0.000 N 
ATOM      4  H   UNL     1       3.041   7.481  16.774  0.00  0.00    +0.000 HD
ENDROOT
BRANCH   3   5
ATOM      5  C   UNL     1       3.079   5.847  18.066  0.00  0.00    +0.000 A 
ATOM      6  C   UNL     1       2.088   4.953  18.481  0.00  0.00    +0.000 A 
ATOM      7  C   UNL     1       2.381   3.615  18.793  0.00  0.00    +0.000 A 
ATOM      8  C   UNL     1       3.693   3.153  18.628  0.00  0.00    +0.000 A 
ATOM      9  C   UNL     1       4.700   4.032  18.222  0.00  0.00    +0.000 A 
ATOM     10  C   UNL     1       4.396   5.375  17.960  0.00  0.00    +0.000 A 
ATOM     11 CL   UNL     1       5.704   6.436  17.562  0.00  0.00    +0.000 Cl
BRANCH   7  12
ATOM     12  C   UNL     1       1.300   2.701  19.318  0.00  0.00    +0.000 C 
ATOM     13  F   UNL     1       1.747   1.461  19.661  0.00  0.00    +0.000 F 
ATOM     14  F   UNL     1       0.689   3.198  20.429  0.00  0.00    +0.000 F 
ATOM     15  F   UNL     1       0.310   2.500  18.404  0.00  0.00    +0.000 F 
ENDBRANCH   7  12
ENDBRANCH   3   5
BRANCH   2  16
ATOM     16  C   UNL     1       1.775   9.436  17.859  0.00  0.00    +0.000 C 
BRANCH  16  17
ATOM     17  O   UNL     1       1.141  10.375  18.724  0.00  0.00    +0.000 OA
BRANCH  17  18
ATOM     18  C   UNL     1      -0.210  10.388  18.656  0.00  0.00    +0.000 C 
ATOM     19  O   UNL     1      -0.865   9.979  17.705  0.00  0.00    +0.000 OA
BRANCH  18  20
ATOM     20  C   UNL     1      -0.787  10.914  19.918  0.00  0.00    +0.000 A 
ATOM     21  C   UNL     1      -0.279  10.434  21.059  0.00  0.00    +0.000 A 
ATOM     22  C   UNL     1      -0.787  10.945  22.341  0.00  0.00    +0.000 A 
ATOM     23  O   UNL     1      -0.327  10.553  23.401  0.00  0.00    +0.000 OA
ATOM     24  C   UNL     1      -1.862  11.946  22.265  0.00  0.00    +0.000 A 
ATOM     25  C   UNL     1      -2.426  12.474  23.429  0.00  0.00    +0.000 A 
ATOM     26  C   UNL     1      -3.445  13.422  23.328  0.00  0.00    +0.000 A 
ATOM     27  C   UNL     1      -3.892  13.838  22.071  0.00  0.00    +0.000 A 
ATOM     28  C   UNL     1      -3.324  13.309  20.912  0.00  0.00    +0.000 A 
ATOM     29  C   UNL     1      -2.309  12.359  21.013  0.00  0.00    +0.000 A 
ATOM     30  O   UNL     1      -1.788  11.869  19.839  0.00  0.00    +0.000 OA
ENDBRANCH  18  20
ENDBRANCH  17  18
ENDBRANCH  16  17
ENDBRANCH   2  16
TORSDOF 6
ENDMDL
MODEL 8
REMARK VINA RESULT:      -7.7      4.953      7.761
REMARK  Name = 
REMARK  6 active torsions:
REMARK  status: ('A' for Active; 'I' for Inactive)
REMARK    1  A    between atoms: C_2  and  C_3
REMARK    2  A    between atoms: C_3  and  O_4
REMARK    3  A    between atoms: O_4  and  C_5
REMARK    4  A    between atoms: C_5  and  C_7
REMARK    5  A    between atoms: N_18  and  C_19
REMARK    6  A    between atoms: C_21  and  C_22
REMARK                            x       y       z     vdW  Elec       q    Type
REMARK                         _______ _______ _______ _____ _____    ______ ____
ROOT
ATOM      1  O   UNL     1       3.057   3.616  16.765  0.00  0.00    +0.000 OA
ATOM      2  C   UNL     1       3.906   3.506  17.651  0.00  0.00    +0.000 C 
ATOM      3  N   UNL     1       5.275   3.571  17.459  0.00  0.00    +0.000 N 
ATOM      4  H   UNL     1       5.876   3.228  18.212  0.00  0.00    +0.000 HD
ENDROOT
BRANCH   3   5
ATOM      5  C   UNL     1       5.939   3.996  16.276  0.00  0.00    +0.000 A 
ATOM      6  C   UNL     1       5.560   3.525  15.015  0.00  0.00    +0.000 A 
ATOM      7  C   UNL     1       6.188   3.969  13.840  0.00  0.00    +0.000 A 
ATOM      8  C   UNL     1       7.182   4.953  13.934  0.00  0.00    +0.000 A 
ATOM      9  C   UNL     1       7.581   5.430  15.184  0.00  0.00    +0.000 A 
ATOM     10  C   UNL     1       6.974   4.941  16.349  0.00  0.00    +0.000 A 
ATOM     11 CL   UNL     1       7.583   5.494  17.871  0.00  0.00    +0.000 Cl
BRANCH   7  12
ATOM     12  C   UNL     1       5.810   3.376  12.504  0.00  0.00    +0.000 C 
ATOM     13  F   UNL     1       6.621   3.764  11.481  0.00  0.00    +0.000 F 
ATOM     14  F   UNL     1       5.840   2.015  12.508  0.00  0.00    +0.000 F 
ATOM     15  F   UNL     1       4.547   3.723  12.129  0.00  0.00    +0.000 F 
ENDBRANCH   7  12
ENDBRANCH   3   5
BRANCH   2  16
ATOM     16  C   UNL     1       3.462   3.238  19.090  0.00  0.00    +0.000 C 
BRANCH  16  17
ATOM     17  O   UNL     1       3.603   4.356  19.963  0.00  0.00    +0.000 OA
BRANCH  17  18
ATOM     18  C   UNL     1       2.460   4.755  20.566  0.00  0.00    +0.000 C 
ATOM     19  O   UNL     1       1.806   4.071  21.344  0.00  0.00    +0.000 OA
BRANCH  18  20
ATOM     20  C   UNL     1       2.140   6.156  20.195  0.00  0.00    +0.000 A 
ATOM     21  C   UNL     1       2.611   6.591  19.020  0.00  0.00    +0.000 A 
ATOM     22  C   UNL     1       2.296   7.959  18.585  0.00  0.00    +0.000 A 
ATOM     23  O   UNL     1       2.682   8.380  17.506  0.00  0.00    +0.000 OA
ATOM     24  C   UNL     1       1.494   8.772  19.511  0.00  0.00    +0.000 A 
ATOM     25  C   UNL     1       1.163  10.092  19.197  0.00  0.00    +0.000 A 
ATOM     26  C   UNL     1       0.403  10.841  20.095  0.00  0.00    +0.000 A 
ATOM     27  C   UNL     1      -0.025  10.270  21.297  0.00  0.00    +0.000 A 
ATOM     28  C   UNL     1       0.307   8.950  21.605  0.00  0.00    +0.000 A 
ATOM     29  C   UNL     1       1.071   8.203  20.710  0.00  0.00    +0.000 A 
ATOM     30  O   UNL     1       1.371   6.911  21.067  0.00  0.00    +0.000 OA
ENDBRANCH  18  20
ENDBRANCH  17  18
ENDBRANCH  16  17
ENDBRANCH   2  16
TORSDOF 6
ENDMDL
MODEL 9
REMARK VINA RESULT:      -7.7      4.863      7.718
REMARK  Name = 
REMARK  6 active torsions:
REMARK  status: ('A' for Active; 'I' for Inactive)
REMARK    1  A    between atoms: C_2  and  C_3
REMARK    2  A    between atoms: C_3  and  O_4
REMARK    3  A    between atoms: O_4  and  C_5
REMARK    4  A    between atoms: C_5  and  C_7
REMARK    5  A    between atoms: N_18  and  C_19
REMARK    6  A    between atoms: C_21  and  C_22
REMARK                            x       y       z     vdW  Elec       q    Type
REMARK                         _______ _______ _______ _____ _____    ______ ____
ROOT
ATOM      1  O   UNL     1       4.417   2.460  18.463  0.00  0.00    +0.000 OA
ATOM      2  C   UNL     1       3.553   3.247  18.071  0.00  0.00    +0.000 C 
ATOM      3  N   UNL     1       3.748   4.249  17.137  0.00  0.00    +0.000 N 
ATOM      4  H   UNL     1       3.038   4.981  17.072  0.00  0.00    +0.000 HD
ENDROOT
BRANCH   3   5
ATOM      5  C   UNL     1       4.888   4.410  16.303  0.00  0.00    +0.000 A 
ATOM      6  C   UNL     1       4.888   3.981  14.972  0.00  0.00    +0.000 A 
ATOM      7  C   UNL     1       5.999   4.171  14.134  0.00  0.00    +0.000 A 
ATOM      8  C   UNL     1       7.113   4.859  14.632  0.00  0.00    +0.000 A 
ATOM      9  C   UNL     1       7.137   5.288  15.960  0.00  0.00    +0.000 A 
ATOM     10  C   UNL     1       6.036   5.049  16.795  0.00  0.00    +0.000 A 
ATOM     11 CL   UNL     1       6.168   5.512  18.457  0.00  0.00    +0.000 Cl
BRANCH   7  12
ATOM     12  C   UNL     1       5.994   3.620  12.728  0.00  0.00    +0.000 C 
ATOM     13  F   UNL     1       4.791   3.730  12.099  0.00  0.00    +0.000 F 
ATOM     14  F   UNL     1       6.896   4.241  11.919  0.00  0.00    +0.000 F 
ATOM     15  F   UNL     1       6.310   2.295  12.696  0.00  0.00    +0.000 F 
ENDBRANCH   7  12
ENDBRANCH   3   5
BRANCH   2  16
ATOM     16  C   UNL     1       2.145   3.172  18.663  0.00  0.00    +0.000 C 
BRANCH  16  17
ATOM     17  O   UNL     1       1.573   4.441  18.974  0.00  0.00    +0.000 OA
BRANCH  17  18
ATOM     18  C   UNL     1       2.202   5.122  19.959  0.00  0.00    +0.000 C 
ATOM     19  O   UNL     1       2.945   4.617  20.791  0.00  0.00    +0.000 OA
BRANCH  18  20
ATOM     20  C   UNL     1       1.910   6.573  19.853  0.00  0.00    +0.000 A 
ATOM     21  C   UNL     1       2.235   7.171  18.701  0.00  0.00    +0.000 A 
ATOM     22  C   UNL     1       1.937   8.600  18.527  0.00  0.00    +0.000 A 
ATOM     23  O   UNL     1       2.191   9.171  17.479  0.00  0.00    +0.000 OA
ATOM     24  C   UNL     1       1.317   9.283  19.671  0.00  0.00    +0.000 A 
ATOM     25  C   UNL     1       1.017  10.646  19.611  0.00  0.00    +0.000 A 
ATOM     26  C   UNL     1       0.431  11.269  20.713  0.00  0.00    +0.000 A 
ATOM     27  C   UNL     1       0.145  10.531  21.864  0.00  0.00    +0.000 A 
ATOM     28  C   UNL     1       0.444   9.169  21.919  0.00  0.00    +0.000 A 
ATOM     29  C   UNL     1       1.035   8.548  20.820  0.00  0.00    +0.000 A 
ATOM     30  O   UNL     1       1.311   7.207  20.931  0.00  0.00    +0.000 OA
ENDBRANCH  18  20
ENDBRANCH  17  18
ENDBRANCH  16  17
ENDBRANCH   2  16
TORSDOF 6
ENDMDL
