MODEL 1
REMARK VINA RESULT:      -8.1      0.000      0.000
REMARK  Name = 
REMARK  4 active torsions:
REMARK  status: ('A' for Active; 'I' for Inactive)
REMARK    1  A    between atoms: C_1  and  C_2
REMARK    2  A    between atoms: C_5  and  C_6
REMARK    3  A    between atoms: N_18  and  C_19
REMARK    4  A    between atoms: N_22  and  C_23
REMARK                            x       y       z     vdW  Elec       q    Type
REMARK                         _______ _______ _______ _____ _____    ______ ____
ROOT
ATOM      1  C   UNL     1       3.159   6.473  18.342  0.00  0.00    +0.000 A 
ATOM      2  N   UNL     1       2.890   7.736  18.181  0.00  0.00    +0.000 NA
ATOM      3  C   UNL     1       2.068   8.447  19.035  0.00  0.00    +0.000 A 
ATOM      4  C   UNL     1       1.447   7.821  20.049  0.00  0.00    +0.000 A 
ATOM      5  C   UNL     1       0.570   8.589  20.970  0.00  0.00    +0.000 A 
ATOM      6  O   UNL     1       0.046   8.099  21.967  0.00  0.00    +0.000 OA
ATOM      7  C   UNL     1       0.337  10.013  20.679  0.00  0.00    +0.000 A 
ATOM      8  C   UNL     1      -0.544  10.731  21.514  0.00  0.00    +0.000 A 
ATOM      9  C   UNL     1      -0.780  12.079  21.287  0.00  0.00    +0.000 A 
ATOM     10  C   UNL     1      -0.138  12.704  20.229  0.00  0.00    +0.000 A 
ATOM     11  C   UNL     1       0.733  11.979  19.398  0.00  0.00    +0.000 A 
ATOM     12  C   UNL     1       1.003  10.611  19.598  0.00  0.00    +0.000 A 
ATOM     13  N   UNL     1       1.877   9.835  18.803  0.00  0.00    +0.000 N 
ATOM     14  C   UNL     1       2.570  10.441  17.661  0.00  0.00    +0.000 C 
ATOM     15  C   UNL     1       1.641   6.372  20.208  0.00  0.00    +0.000 A 
ATOM     16  O   UNL     1       0.930   5.746  20.995  0.00  0.00    +0.000 OA
ATOM     17  N   UNL     1       2.613   5.751  19.418  0.00  0.00    +0.000 N 
ENDROOT
BRANCH   1  22
ATOM     18  C   UNL     1       6.231   4.250  13.826  0.00  0.00    +0.000 C 
ATOM     19  C   UNL     1       5.556   4.856  15.017  0.00  0.00    +0.000 A 
ATOM     20  C   UNL     1       5.575   6.217  15.329  0.00  0.00    +0.000 A 
ATOM     21  C   UNL     1       4.841   6.718  16.431  0.00  0.00    +0.000 A 
ATOM     22  C   UNL     1       4.064   5.876  17.248  0.00  0.00    +0.000 A 
ATOM     23  C   UNL     1       4.151   4.530  16.931  0.00  0.00    +0.000 A 
ATOM     24  C   UNL     1       4.872   4.008  15.861  0.00  0.00    +0.000 A 
ENDBRANCH   1  22
BRANCH  17  25
ATOM     25  C   UNL     1       2.817   4.313  19.789  0.00  0.00    +0.000 C 
ATOM     26  C   UNL     1       4.302   3.914  19.928  0.00  0.00    +0.000 C 
ATOM     27  C   UNL     1       4.515   2.402  20.029  0.00  0.00    +0.000 C 
ATOM     28  C   UNL     1       3.675   1.575  19.060  0.00  0.00    +0.000 C 
ATOM     29  C   UNL     1       2.187   1.889  19.186  0.00  0.00    +0.000 C 
ATOM     30  C   UNL     1       1.838   3.370  19.049  0.00  0.00    +0.000 C 
ENDBRANCH  17  25
TORSDOF 2
ENDMDL
MODEL 2
REMARK VINA RESULT:      -7.7      2.953      9.251
REMARK  Name = 
REMARK  4 active torsions:
REMARK  status: ('A' for Active; 'I' for Inactive)
REMARK    1  A    between atoms: C_1  and  C_2
REMARK    2  A    between atoms: C_5  and  C_6
REMARK    3  A    between atoms: N_18  and  C_19
REMARK    4  A    between atoms: N_22  and  C_23
REMARK                            x       y       z     vdW  Elec       q    Type
REMARK                         _______ _______ _______ _____ _____    ______ ____
ROOT
ATOM      1  C   UNL     1       0.382  13.001  20.024  0.00  0.00    +0.000 A 
ATOM      2  N   UNL     1       0.972  12.046  19.368  0.00  0.00    +0.000 NA
ATOM      3  C   UNL     1       1.004  10.736  19.808  0.00  0.00    +0.000 A 
ATOM      4  C   UNL     1       0.470  10.412  20.999  0.00  0.00    +0.000 A 
ATOM      5  C   UNL     1       0.499   9.003  21.466  0.00  0.00    +0.000 A 
ATOM      6  O   UNL     1      -0.049   8.623  22.497  0.00  0.00    +0.000 OA
ATOM      7  C   UNL     1       1.203   8.011  20.637  0.00  0.00    +0.000 A 
ATOM      8  C   UNL     1       1.287   6.684  21.107  0.00  0.00    +0.000 A 
ATOM      9  C   UNL     1       1.927   5.713  20.350  0.00  0.00    +0.000 A 
ATOM     10  C   UNL     1       2.480   6.070  19.130  0.00  0.00    +0.000 A 
ATOM     11  C   UNL     1       2.398   7.396  18.673  0.00  0.00    +0.000 A 
ATOM     12  C   UNL     1       1.753   8.409  19.408  0.00  0.00    +0.000 A 
ATOM     13  N   UNL     1       1.629   9.755  18.993  0.00  0.00    +0.000 N 
ATOM     14  C   UNL     1       2.210  10.191  17.720  0.00  0.00    +0.000 C 
ATOM     15  C   UNL     1      -0.117  11.479  21.822  0.00  0.00    +0.000 A 
ATOM     16  O   UNL     1      -0.425  11.247  22.991  0.00  0.00    +0.000 OA
ATOM     17  N   UNL     1      -0.268  12.744  21.244  0.00  0.00    +0.000 N 
ENDROOT
BRANCH   1  22
ATOM     18  C   UNL     1       0.818  18.517  17.983  0.00  0.00    +0.000 C 
ATOM     19  C   UNL     1       0.780  17.082  18.409  0.00  0.00    +0.000 A 
ATOM     20  C   UNL     1       1.901  16.338  18.782  0.00  0.00    +0.000 A 
ATOM     21  C   UNL     1       1.765  15.009  19.251  0.00  0.00    +0.000 A 
ATOM     22  C   UNL     1       0.507  14.389  19.367  0.00  0.00    +0.000 A 
ATOM     23  C   UNL     1      -0.553  15.154  18.908  0.00  0.00    +0.000 A 
ATOM     24  C   UNL     1      -0.449  16.458  18.433  0.00  0.00    +0.000 A 
ENDBRANCH   1  22
BRANCH  17  25
ATOM     25  C   UNL     1      -1.018  13.691  22.131  0.00  0.00    +0.000 C 
ATOM     26  C   UNL     1      -2.471  13.948  21.676  0.00  0.00    +0.000 C 
ATOM     27  C   UNL     1      -3.138  15.113  22.409  0.00  0.00    +0.000 C 
ATOM     28  C   UNL     1      -2.252  16.343  22.587  0.00  0.00    +0.000 C 
ATOM     29  C   UNL     1      -0.932  16.000  23.270  0.00  0.00    +0.000 C 
ATOM     30  C   UNL     1      -0.142  14.879  22.598  0.00  0.00    +0.000 C 
ENDBRANCH  17  25
TORSDOF 2
ENDMDL
MODEL 3
REMARK VINA RESULT:      -7.7      0.975      1.345
REMARK  Name = 
REMARK  4 active torsions:
REMARK  status: ('A' for Active; 'I' for Inactive)
REMARK    1  A    between atoms: C_1  and  C_2
REMARK    2  A    between atoms: C_5  and  C_6
REMARK    3  A    between atoms: N_18  and  C_19
REMARK    4  A    between atoms: N_22  and  C_23
REMARK                            x       y       z     vdW  Elec       q    Type
REMARK                         _______ _______ _______ _____ _____    ______ ____
ROOT
ATOM      1  C   UNL     1       2.952   6.885  18.428  0.00  0.00    +0.000 A 
ATOM      2  N   UNL     1       2.761   8.157  18.236  0.00  0.00    +0.000 NA
ATOM      3  C   UNL     1       1.920   8.921  19.023  0.00  0.00    +0.000 A 
ATOM      4  C   UNL     1       1.199   8.342  19.998  0.00  0.00    +0.000 A 
ATOM      5  C   UNL     1       0.302   9.167  20.848  0.00  0.00    +0.000 A 
ATOM      6  O   UNL     1      -0.314   8.719  21.811  0.00  0.00    +0.000 OA
ATOM      7  C   UNL     1       0.165  10.598  20.527  0.00  0.00    +0.000 A 
ATOM      8  C   UNL     1      -0.733  11.371  21.291  0.00  0.00    +0.000 A 
ATOM      9  C   UNL     1      -0.882  12.727  21.035  0.00  0.00    +0.000 A 
ATOM     10  C   UNL     1      -0.137  13.303  20.018  0.00  0.00    +0.000 A 
ATOM     11  C   UNL     1       0.750  12.522  19.257  0.00  0.00    +0.000 A 
ATOM     12  C   UNL     1       0.934  11.146  19.489  0.00  0.00    +0.000 A 
ATOM     13  N   UNL     1       1.819  10.314  18.764  0.00  0.00    +0.000 N 
ATOM     14  C   UNL     1       2.619  10.868  17.668  0.00  0.00    +0.000 C 
ATOM     15  C   UNL     1       1.305   6.888  20.185  0.00  0.00    +0.000 A 
ATOM     16  O   UNL     1       0.511   6.310  20.927  0.00  0.00    +0.000 OA
ATOM     17  N   UNL     1       2.297   6.207  19.471  0.00  0.00    +0.000 N 
ENDROOT
BRANCH   1  22
ATOM     18  C   UNL     1       6.174   4.355  14.187  0.00  0.00    +0.000 C 
ATOM     19  C   UNL     1       5.458   5.053  15.301  0.00  0.00    +0.000 A 
ATOM     20  C   UNL     1       5.368   6.440  15.437  0.00  0.00    +0.000 A 
ATOM     21  C   UNL     1       4.601   7.017  16.478  0.00  0.00    +0.000 A 
ATOM     22  C   UNL     1       3.898   6.227  17.406  0.00  0.00    +0.000 A 
ATOM     23  C   UNL     1       4.092   4.863  17.261  0.00  0.00    +0.000 A 
ATOM     24  C   UNL     1       4.848   4.267  16.255  0.00  0.00    +0.000 A 
ENDBRANCH   1  22
BRANCH  17  25
ATOM     25  C   UNL     1       2.399   4.766  19.870  0.00  0.00    +0.000 C 
ATOM     26  C   UNL     1       1.431   3.840  19.103  0.00  0.00    +0.000 C 
ATOM     27  C   UNL     1       1.338   2.434  19.700  0.00  0.00    +0.000 C 
ATOM     28  C   UNL     1       1.258   2.393  21.223  0.00  0.00    +0.000 C 
ATOM     29  C   UNL     1       2.413   3.148  21.874  0.00  0.00    +0.000 C 
ATOM     30  C   UNL     1       2.578   4.589  21.397  0.00  0.00    +0.000 C 
ENDBRANCH  17  25
TORSDOF 2
ENDMDL
MODEL 4
REMARK VINA RESULT:      -7.6      9.020     10.759
REMARK  Name = 
REMARK  4 active torsions:
REMARK  status: ('A' for Active; 'I' for Inactive)
REMARK    1  A    between atoms: C_1  and  C_2
REMARK    2  A    between atoms: C_5  and  C_6
REMARK    3  A    between atoms: N_18  and  C_19
REMARK    4  A    between atoms: N_22  and  C_23
REMARK                            x       y       z     vdW  Elec       q    Type
REMARK                         _______ _______ _______ _____ _____    ______ ____
ROOT
ATOM      1  C   UNL     1       9.160  14.463  21.283  0.00  0.00    +0.000 A 
ATOM      2  N   UNL     1       8.489  15.087  22.207  0.00  0.00    +0.000 NA
ATOM      3  C   UNL     1       7.835  14.434  23.234  0.00  0.00    +0.000 A 
ATOM      4  C   UNL     1       7.812  13.091  23.273  0.00  0.00    +0.000 A 
ATOM      5  C   UNL     1       7.115  12.392  24.383  0.00  0.00    +0.000 A 
ATOM      6  O   UNL     1       7.133  11.173  24.529  0.00  0.00    +0.000 OA
ATOM      7  C   UNL     1       6.384  13.209  25.367  0.00  0.00    +0.000 A 
ATOM      8  C   UNL     1       5.668  12.548  26.385  0.00  0.00    +0.000 A 
ATOM      9  C   UNL     1       4.979  13.277  27.343  0.00  0.00    +0.000 A 
ATOM     10  C   UNL     1       5.006  14.662  27.279  0.00  0.00    +0.000 A 
ATOM     11  C   UNL     1       5.716  15.313  26.256  0.00  0.00    +0.000 A 
ATOM     12  C   UNL     1       6.432  14.608  25.269  0.00  0.00    +0.000 A 
ATOM     13  N   UNL     1       7.172  15.208  24.224  0.00  0.00    +0.000 N 
ATOM     14  C   UNL     1       7.221  16.668  24.099  0.00  0.00    +0.000 C 
ATOM     15  C   UNL     1       8.471  12.343  22.193  0.00  0.00    +0.000 A 
ATOM     16  O   UNL     1       8.291  11.129  22.096  0.00  0.00    +0.000 OA
ATOM     17  N   UNL     1       9.255  13.060  21.283  0.00  0.00    +0.000 N 
ENDROOT
BRANCH   1  22
ATOM     18  C   UNL     1      11.275  18.397  17.432  0.00  0.00    +0.000 C 
ATOM     19  C   UNL     1      10.840  17.333  18.392  0.00  0.00    +0.000 A 
ATOM     20  C   UNL     1      11.538  16.977  19.548  0.00  0.00    +0.000 A 
ATOM     21  C   UNL     1      11.012  16.015  20.444  0.00  0.00    +0.000 A 
ATOM     22  C   UNL     1       9.773  15.388  20.214  0.00  0.00    +0.000 A 
ATOM     23  C   UNL     1       9.172  15.728  19.013  0.00  0.00    +0.000 A 
ATOM     24  C   UNL     1       9.669  16.662  18.109  0.00  0.00    +0.000 A 
ENDBRANCH   1  22
BRANCH  17  25
ATOM     25  C   UNL     1       9.991  12.164  20.333  0.00  0.00    +0.000 C 
ATOM     26  C   UNL     1      11.526  12.310  20.408  0.00  0.00    +0.000 C 
ATOM     27  C   UNL     1      12.257  11.612  19.260  0.00  0.00    +0.000 C 
ATOM     28  C   UNL     1      11.620  11.808  17.887  0.00  0.00    +0.000 C 
ATOM     29  C   UNL     1      10.149  11.400  17.878  0.00  0.00    +0.000 C 
ATOM     30  C   UNL     1       9.298  12.074  18.952  0.00  0.00    +0.000 C 
ENDBRANCH  17  25
TORSDOF 2
ENDMDL
MODEL 5
REMARK VINA RESULT:      -7.6      4.969      8.223
REMARK  Name = 
REMARK  4 active torsions:
REMARK  status: ('A' for Active; 'I' for Inactive)
REMARK    1  A    between atoms: C_1  and  C_2
REMARK    2  A    between atoms: C_5  and  C_6
REMARK    3  A    between atoms: N_18  and  C_19
REMARK    4  A    between atoms: N_22  and  C_23
REMARK                            x       y       z     vdW  Elec       q    Type
REMARK                         _______ _______ _______ _____ _____    ______ ____
ROOT
ATOM      1  C   UNL     1      -2.279  12.217  19.683  0.00  0.00    +0.000 A 
ATOM      2  N   UNL     1      -3.247  12.961  20.132  0.00  0.00    +0.000 NA
ATOM      3  C   UNL     1      -3.154  13.697  21.297  0.00  0.00    +0.000 A 
ATOM      4  C   UNL     1      -2.053  13.611  22.063  0.00  0.00    +0.000 A 
ATOM      5  C   UNL     1      -1.953  14.410  23.311  0.00  0.00    +0.000 A 
ATOM      6  O   UNL     1      -0.942  14.448  24.008  0.00  0.00    +0.000 OA
ATOM      7  C   UNL     1      -3.120  15.210  23.719  0.00  0.00    +0.000 A 
ATOM      8  C   UNL     1      -3.052  15.920  24.935  0.00  0.00    +0.000 A 
ATOM      9  C   UNL     1      -4.122  16.701  25.350  0.00  0.00    +0.000 A 
ATOM     10  C   UNL     1      -5.253  16.768  24.551  0.00  0.00    +0.000 A 
ATOM     11  C   UNL     1      -5.314  16.051  23.343  0.00  0.00    +0.000 A 
ATOM     12  C   UNL     1      -4.248  15.252  22.886  0.00  0.00    +0.000 A 
ATOM     13  N   UNL     1      -4.249  14.519  21.676  0.00  0.00    +0.000 N 
ATOM     14  C   UNL     1      -5.425  14.541  20.801  0.00  0.00    +0.000 C 
ATOM     15  C   UNL     1      -0.974  12.703  21.647  0.00  0.00    +0.000 A 
ATOM     16  O   UNL     1      -0.055  12.454  22.426  0.00  0.00    +0.000 OA
ATOM     17  N   UNL     1      -1.061  12.122  20.378  0.00  0.00    +0.000 N 
ENDROOT
BRANCH   1  22
ATOM     18  C   UNL     1      -3.273   9.628  14.478  0.00  0.00    +0.000 C 
ATOM     19  C   UNL     1      -3.033  10.175  15.851  0.00  0.00    +0.000 A 
ATOM     20  C   UNL     1      -1.986   9.782  16.687  0.00  0.00    +0.000 A 
ATOM     21  C   UNL     1      -1.784  10.411  17.939  0.00  0.00    +0.000 A 
ATOM     22  C   UNL     1      -2.618  11.453  18.389  0.00  0.00    +0.000 A 
ATOM     23  C   UNL     1      -3.681  11.739  17.548  0.00  0.00    +0.000 A 
ATOM     24  C   UNL     1      -3.910  11.131  16.317  0.00  0.00    +0.000 A 
ENDBRANCH   1  22
BRANCH  17  25
ATOM     25  C   UNL     1       0.172  11.348  20.019  0.00  0.00    +0.000 C 
ATOM     26  C   UNL     1       0.852  11.832  18.721  0.00  0.00    +0.000 C 
ATOM     27  C   UNL     1       1.933  10.878  18.211  0.00  0.00    +0.000 C 
ATOM     28  C   UNL     1       1.558   9.400  18.274  0.00  0.00    +0.000 C 
ATOM     29  C   UNL     1       1.128   8.980  19.676  0.00  0.00    +0.000 C 
ATOM     30  C   UNL     1       0.010   9.830  20.278  0.00  0.00    +0.000 C 
ENDBRANCH  17  25
TORSDOF 2
ENDMDL
MODEL 6
REMARK VINA RESULT:      -7.5      0.809      1.184
REMARK  Name = 
REMARK  4 active torsions:
REMARK  status: ('A' for Active; 'I' for Inactive)
REMARK    1  A    between atoms: C_1  and  C_2
REMARK    2  A    between atoms: C_5  and  C_6
REMARK    3  A    between atoms: N_18  and  C_19
REMARK    4  A    between atoms: N_22  and  C_23
REMARK                            x       y       z     vdW  Elec       q    Type
REMARK                         _______ _______ _______ _____ _____    ______ ____
ROOT
ATOM      1  C   UNL     1       2.735   6.985  18.682  0.00  0.00    +0.000 A 
ATOM      2  N   UNL     1       2.488   8.244  18.467  0.00  0.00    +0.000 NA
ATOM      3  C   UNL     1       1.708   9.014  19.309  0.00  0.00    +0.000 A 
ATOM      4  C   UNL     1       1.105   8.451  20.370  0.00  0.00    +0.000 A 
ATOM      5  C   UNL     1       0.274   9.283  21.278  0.00  0.00    +0.000 A 
ATOM      6  O   UNL     1      -0.229   8.854  22.313  0.00  0.00    +0.000 OA
ATOM      7  C   UNL     1       0.062  10.696  20.925  0.00  0.00    +0.000 A 
ATOM      8  C   UNL     1      -0.778  11.473  21.749  0.00  0.00    +0.000 A 
ATOM      9  C   UNL     1      -0.992  12.814  21.464  0.00  0.00    +0.000 A 
ATOM     10  C   UNL     1      -0.370  13.372  20.358  0.00  0.00    +0.000 A 
ATOM     11  C   UNL     1       0.460  12.588  19.538  0.00  0.00    +0.000 A 
ATOM     12  C   UNL     1       0.706  11.226  19.797  0.00  0.00    +0.000 A 
ATOM     13  N   UNL     1       1.539  10.393  19.015  0.00  0.00    +0.000 N 
ATOM     14  C   UNL     1       2.209  10.927  17.825  0.00  0.00    +0.000 C 
ATOM     15  C   UNL     1       1.274   7.009  20.595  0.00  0.00    +0.000 A 
ATOM     16  O   UNL     1       0.575   6.437  21.432  0.00  0.00    +0.000 OA
ATOM     17  N   UNL     1       2.208   6.328  19.807  0.00  0.00    +0.000 N 
ENDROOT
BRANCH   1  22
ATOM     18  C   UNL     1       6.327   4.250  14.887  0.00  0.00    +0.000 C 
ATOM     19  C   UNL     1       5.324   4.922  15.773  0.00  0.00    +0.000 A 
ATOM     20  C   UNL     1       4.208   4.289  16.325  0.00  0.00    +0.000 A 
ATOM     21  C   UNL     1       3.354   4.979  17.220  0.00  0.00    +0.000 A 
ATOM     22  C   UNL     1       3.593   6.315  17.592  0.00  0.00    +0.000 A 
ATOM     23  C   UNL     1       4.669   6.905  16.948  0.00  0.00    +0.000 A 
ATOM     24  C   UNL     1       5.520   6.256  16.058  0.00  0.00    +0.000 A 
ENDBRANCH   1  22
BRANCH  17  25
ATOM     25  C   UNL     1       2.394   4.906  20.242  0.00  0.00    +0.000 C 
ATOM     26  C   UNL     1       3.839   4.390  20.075  0.00  0.00    +0.000 C 
ATOM     27  C   UNL     1       3.965   2.876  20.252  0.00  0.00    +0.000 C 
ATOM     28  C   UNL     1       2.868   2.062  19.571  0.00  0.00    +0.000 C 
ATOM     29  C   UNL     1       1.475   2.511  20.003  0.00  0.00    +0.000 C 
ATOM     30  C   UNL     1       1.207   4.004  19.825  0.00  0.00    +0.000 C 
ENDBRANCH  17  25
TORSDOF 2
ENDMDL
MODEL 7
REMARK VINA RESULT:      -7.5      3.283     10.232
REMARK  Name = 
REMARK  4 active torsions:
REMARK  status: ('A' for Active; 'I' for Inactive)
REMARK    1  A    between atoms: C_1  and  C_2
REMARK    2  A    between atoms: C_5  and  C_6
REMARK    3  A    between atoms: N_18  and  C_19
REMARK    4  A    between atoms: N_22  and  C_23
REMARK                            x       y       z     vdW  Elec       q    Type
REMARK                         _______ _______ _______ _____ _____    ______ ____
ROOT
ATOM      1  C   UNL     1      -0.048  12.837  21.438  0.00  0.00    +0.000 A 
ATOM      2  N   UNL     1       0.130  11.577  21.706  0.00  0.00    +0.000 NA
ATOM      3  C   UNL     1       0.716  10.692  20.821  0.00  0.00    +0.000 A 
ATOM      4  C   UNL     1       1.068  11.104  19.591  0.00  0.00    +0.000 A 
ATOM      5  C   UNL     1       1.705  10.153  18.644  0.00  0.00    +0.000 A 
ATOM      6  O   UNL     1       2.134  10.484  17.542  0.00  0.00    +0.000 OA
ATOM      7  C   UNL     1       1.846   8.748  19.061  0.00  0.00    +0.000 A 
ATOM      8  C   UNL     1       2.392   7.829  18.142  0.00  0.00    +0.000 A 
ATOM      9  C   UNL     1       2.559   6.498  18.499  0.00  0.00    +0.000 A 
ATOM     10  C   UNL     1       2.179   6.091  19.768  0.00  0.00    +0.000 A 
ATOM     11  C   UNL     1       1.628   7.013  20.675  0.00  0.00    +0.000 A 
ATOM     12  C   UNL     1       1.448   8.372  20.353  0.00  0.00    +0.000 A 
ATOM     13  N   UNL     1       0.911   9.345  21.228  0.00  0.00    +0.000 N 
ATOM     14  C   UNL     1       0.478   8.966  22.576  0.00  0.00    +0.000 C 
ATOM     15  C   UNL     1       0.793  12.496  19.208  0.00  0.00    +0.000 A 
ATOM     16  O   UNL     1       0.918  12.840  18.032  0.00  0.00    +0.000 OA
ATOM     17  N   UNL     1       0.357  13.376  20.204  0.00  0.00    +0.000 N 
ENDROOT
BRANCH   1  22
ATOM     18  C   UNL     1      -3.007  16.123  25.340  0.00  0.00    +0.000 C 
ATOM     19  C   UNL     1      -2.259  15.198  24.431  0.00  0.00    +0.000 A 
ATOM     20  C   UNL     1      -2.756  13.983  23.955  0.00  0.00    +0.000 A 
ATOM     21  C   UNL     1      -2.013  13.208  23.032  0.00  0.00    +0.000 A 
ATOM     22  C   UNL     1      -0.758  13.627  22.554  0.00  0.00    +0.000 A 
ATOM     23  C   UNL     1      -0.289  14.799  23.124  0.00  0.00    +0.000 A 
ATOM     24  C   UNL     1      -0.992  15.577  24.040  0.00  0.00    +0.000 A 
ENDBRANCH   1  22
BRANCH  17  25
ATOM     25  C   UNL     1       0.266  14.790  19.717  0.00  0.00    +0.000 C 
ATOM     26  C   UNL     1       1.436  15.683  20.181  0.00  0.00    +0.000 C 
ATOM     27  C   UNL     1       1.202  17.172  19.922  0.00  0.00    +0.000 C 
ATOM     28  C   UNL     1      -0.204  17.663  20.259  0.00  0.00    +0.000 C 
ATOM     29  C   UNL     1      -1.278  16.846  19.546  0.00  0.00    +0.000 C 
ATOM     30  C   UNL     1      -1.181  15.338  19.770  0.00  0.00    +0.000 C 
ENDBRANCH  17  25
TORSDOF 2
ENDMDL
MODEL 8
REMARK VINA RESULT:      -7.5      2.873      9.542
REMARK  Name = 
REMARK  4 active torsions:
REMARK  status: ('A' for Active; 'I' for Inactive)
REMARK    1  A    between atoms: C_1  and  C_2
REMARK    2  A    between atoms: C_5  and  C_6
REMARK    3  A    between atoms: N_18  and  C_19
REMARK    4  A    between atoms: N_22  and  C_23
REMARK                            x       y       z     vdW  Elec       q    Type
REMARK                         _______ _______ _______ _____ _____    ______ ____
ROOT
ATOM      1  C   UNL     1      -0.480  12.830  20.943  0.00  0.00    +0.000 A 
ATOM      2  N   UNL     1       0.226  12.178  20.065  0.00  0.00    +0.000 NA
ATOM      3  C   UNL     1       0.545  10.840  20.197  0.00  0.00    +0.000 A 
ATOM      4  C   UNL     1       0.183  10.167  21.303  0.00  0.00    +0.000 A 
ATOM      5  C   UNL     1       0.520   8.727  21.438  0.00  0.00    +0.000 A 
ATOM      6  O   UNL     1       0.142   8.031  22.377  0.00  0.00    +0.000 OA
ATOM      7  C   UNL     1       1.331   8.101  20.380  0.00  0.00    +0.000 A 
ATOM      8  C   UNL     1       1.706   6.751  20.535  0.00  0.00    +0.000 A 
ATOM      9  C   UNL     1       2.456   6.116  19.555  0.00  0.00    +0.000 A 
ATOM     10  C   UNL     1       2.829   6.832  18.427  0.00  0.00    +0.000 A 
ATOM     11  C   UNL     1       2.456   8.179  18.285  0.00  0.00    +0.000 A 
ATOM     12  C   UNL     1       1.691   8.857  19.254  0.00  0.00    +0.000 A 
ATOM     13  N   UNL     1       1.278  10.206  19.159  0.00  0.00    +0.000 N 
ATOM     14  C   UNL     1       1.658  11.014  17.996  0.00  0.00    +0.000 C 
ATOM     15  C   UNL     1      -0.528  10.889  22.367  0.00  0.00    +0.000 A 
ATOM     16  O   UNL     1      -0.689  10.354  23.464  0.00  0.00    +0.000 OA
ATOM     17  N   UNL     1      -0.966  12.190  22.096  0.00  0.00    +0.000 N 
ENDROOT
BRANCH   1  22
ATOM     18  C   UNL     1      -1.250  18.628  20.186  0.00  0.00    +0.000 C 
ATOM     19  C   UNL     1      -0.990  17.156  20.275  0.00  0.00    +0.000 A 
ATOM     20  C   UNL     1       0.280  16.581  20.361  0.00  0.00    +0.000 A 
ATOM     21  C   UNL     1       0.432  15.183  20.524  0.00  0.00    +0.000 A 
ATOM     22  C   UNL     1      -0.678  14.321  20.612  0.00  0.00    +0.000 A 
ATOM     23  C   UNL     1      -1.903  14.946  20.442  0.00  0.00    +0.000 A 
ATOM     24  C   UNL     1      -2.083  16.315  20.270  0.00  0.00    +0.000 A 
ENDBRANCH   1  22
BRANCH  17  25
ATOM     25  C   UNL     1      -1.808  12.751  23.202  0.00  0.00    +0.000 C 
ATOM     26  C   UNL     1      -3.326  12.641  22.941  0.00  0.00    +0.000 C 
ATOM     27  C   UNL     1      -4.169  13.454  23.925  0.00  0.00    +0.000 C 
ATOM     28  C   UNL     1      -3.628  14.850  24.226  0.00  0.00    +0.000 C 
ATOM     29  C   UNL     1      -2.182  14.807  24.708  0.00  0.00    +0.000 C 
ATOM     30  C   UNL     1      -1.224  14.063  23.779  0.00  0.00    +0.000 C 
ENDBRANCH  17  25
TORSDOF 2
ENDMDL
MODEL 9
REMARK VINA RESULT:      -7.4      2.141      8.711
REMARK  Name = 
REMARK  4 active torsions:
REMARK  status: ('A' for Active; 'I' for Inactive)
REMARK    1  A    between atoms: C_1  and  C_2
REMARK    2  A    between atoms: C_5  and  C_6
REMARK    3  A    between atoms: N_18  and  C_19
REMARK    4  A    between atoms: N_22  and  C_23
REMARK                            x       y       z     vdW  Elec       q    Type
REMARK                         _______ _______ _______ _____ _____    ______ ____
ROOT
ATOM      1  C   UNL     1       0.852   9.936  20.217  0.00  0.00    +0.000 A 
ATOM      2  N   UNL     1       1.050   8.667  20.422  0.00  0.00    +0.000 NA
ATOM      3  C   UNL     1       1.852   7.887  19.610  0.00  0.00    +0.000 A 
ATOM      4  C   UNL     1       2.414   8.417  18.510  0.00  0.00    +0.000 A 
ATOM      5  C   UNL     1       3.282   7.580  17.643  0.00  0.00    +0.000 A 
ATOM      6  O   UNL     1       3.898   8.022  16.678  0.00  0.00    +0.000 OA
ATOM      7  C   UNL     1       3.424   6.152  17.976  0.00  0.00    +0.000 A 
ATOM      8  C   UNL     1       4.196   5.340  17.120  0.00  0.00    +0.000 A 
ATOM      9  C   UNL     1       4.370   3.993  17.404  0.00  0.00    +0.000 A 
ATOM     10  C   UNL     1       3.773   3.463  18.537  0.00  0.00    +0.000 A 
ATOM     11  C   UNL     1       2.999   4.279  19.380  0.00  0.00    +0.000 A 
ATOM     12  C   UNL     1       2.803   5.651  19.130  0.00  0.00    +0.000 A 
ATOM     13  N   UNL     1       2.046   6.521  19.948  0.00  0.00    +0.000 N 
ATOM     14  C   UNL     1       1.379   6.011  21.149  0.00  0.00    +0.000 C 
ATOM     15  C   UNL     1       2.135   9.823  18.183  0.00  0.00    +0.000 A 
ATOM     16  O   UNL     1       2.468  10.270  17.085  0.00  0.00    +0.000 OA
ATOM     17  N   UNL     1       1.458  10.595  19.133  0.00  0.00    +0.000 N 
ENDROOT
BRANCH   1  22
ATOM     18  C   UNL     1      -3.194  12.129  23.904  0.00  0.00    +0.000 C 
ATOM     19  C   UNL     1      -2.083  11.601  23.052  0.00  0.00    +0.000 A 
ATOM     20  C   UNL     1      -1.228  10.561  23.422  0.00  0.00    +0.000 A 
ATOM     21  C   UNL     1      -0.254  10.068  22.520  0.00  0.00    +0.000 A 
ATOM     22  C   UNL     1      -0.111  10.595  21.223  0.00  0.00    +0.000 A 
ATOM     23  C   UNL     1      -0.935  11.674  20.949  0.00  0.00    +0.000 A 
ATOM     24  C   UNL     1      -1.895  12.186  21.818  0.00  0.00    +0.000 A 
ENDBRANCH   1  22
BRANCH  17  25
ATOM     25  C   UNL     1       1.378  12.040  18.743  0.00  0.00    +0.000 C 
ATOM     26  C   UNL     1       2.167  12.979  19.680  0.00  0.00    +0.000 C 
ATOM     27  C   UNL     1       1.861  14.460  19.450  0.00  0.00    +0.000 C 
ATOM     28  C   UNL     1       0.382  14.781  19.252  0.00  0.00    +0.000 C 
ATOM     29  C   UNL     1      -0.235  13.952  18.129  0.00  0.00    +0.000 C 
ATOM     30  C   UNL     1      -0.040  12.444  18.272  0.00  0.00    +0.000 C 
ENDBRANCH  17  25
TORSDOF 2
ENDMDL
