MODEL 1
REMARK VINA RESULT:      -8.3      0.000      0.000
REMARK  Name = 
REMARK  3 active torsions:
REMARK  status: ('A' for Active; 'I' for Inactive)
REMARK    1  A    between atoms: S_2  and  N_4
REMARK    2  A    between atoms: S_2  and  C_17
REMARK    3  A    between atoms: C_8  and  C_9
REMARK                            x       y       z     vdW  Elec       q    Type
REMARK                         _______ _______ _______ _____ _____    ______ ____
ROOT
ATOM      1  O   UNL     1       2.200   5.282  18.065  0.00  0.00    +0.000 OA
ATOM      2  S   UNL     1       2.820   5.844  19.243  0.00  0.00    +0.000 S 
ATOM      3  O   UNL     1       2.919   5.087  20.474  0.00  0.00    +0.000 OA
ENDROOT
BRANCH   2   4
ATOM      4  C   UNL     1       1.983   7.364  19.615  0.00  0.00    +0.000 A 
ATOM      5  C   UNL     1       1.886   8.374  18.658  0.00  0.00    +0.000 A 
ATOM      6  C   UNL     1       1.236   9.566  18.988  0.00  0.00    +0.000 A 
ATOM      7  C   UNL     1       0.689   9.758  20.271  0.00  0.00    +0.000 A 
ATOM      8  C   UNL     1       0.010  10.938  20.613  0.00  0.00    +0.000 A 
ATOM      9  C   UNL     1      -0.526  11.097  21.892  0.00  0.00    +0.000 A 
ATOM     10 BR   UNL     1      -1.467  12.680  22.326  0.00  0.00    +0.000 Br
ATOM     11  C   UNL     1      -0.385  10.099  22.850  0.00  0.00    +0.000 A 
ATOM     12  C   UNL     1       0.293   8.924  22.527  0.00  0.00    +0.000 A 
ATOM     13  C   UNL     1       0.822   8.736  21.242  0.00  0.00    +0.000 A 
ATOM     14  C   UNL     1       1.477   7.547  20.905  0.00  0.00    +0.000 A 
ENDBRANCH   2   4
BRANCH   2  15
ATOM     15  N   UNL     1       4.381   6.390  18.908  0.00  0.00    +0.000 N 
ATOM     16  C   UNL     1       5.068   5.496  18.065  0.00  0.00    +0.000 A 
ATOM     17  N   UNL     1       5.941   4.633  18.530  0.00  0.00    +0.000 NA
ATOM     18  N   UNL     1       6.528   4.042  17.432  0.00  0.00    +0.000 NA
ATOM     19  C   UNL     1       6.021   4.638  16.370  0.00  0.00    +0.000 A 
ATOM     20  O   UNL     1       5.061   5.564  16.698  0.00  0.00    +0.000 OA
ATOM     21  H   UNL     1       4.853   6.428  19.812  0.00  0.00    +0.000 HD
BRANCH  19  22
ATOM     22  C   UNL     1       6.391   4.499  14.965  0.00  0.00    +0.000 A 
ATOM     23  C   UNL     1       7.462   5.257  14.453  0.00  0.00    +0.000 A 
ATOM     24  C   UNL     1       7.820   5.176  13.105  0.00  0.00    +0.000 A 
ATOM     25  C   UNL     1       7.107   4.338  12.257  0.00  0.00    +0.000 A 
ATOM     26  F   UNL     1       7.447   4.260  10.965  0.00  0.00    +0.000 F 
ATOM     27  C   UNL     1       6.043   3.582  12.734  0.00  0.00    +0.000 A 
ATOM     28  C   UNL     1       5.685   3.663  14.085  0.00  0.00    +0.000 A 
ENDBRANCH  19  22
ENDBRANCH   2  15
TORSDOF 3
ENDMDL
MODEL 2
REMARK VINA RESULT:      -8.3      4.384      5.513
REMARK  Name = 
REMARK  3 active torsions:
REMARK  status: ('A' for Active; 'I' for Inactive)
REMARK    1  A    between atoms: S_2  and  N_4
REMARK    2  A    between atoms: S_2  and  C_17
REMARK    3  A    between atoms: C_8  and  C_9
REMARK                            x       y       z     vdW  Elec       q    Type
REMARK                         _______ _______ _______ _____ _____    ______ ____
ROOT
ATOM      1  O   UNL     1       0.856   9.262  20.089  0.00  0.00    +0.000 OA
ATOM      2  S   UNL     1       0.810  10.149  18.948  0.00  0.00    +0.000 S 
ATOM      3  O   UNL     1       1.571  11.381  18.924  0.00  0.00    +0.000 OA
ENDROOT
BRANCH   2   4
ATOM      4  C   UNL     1      -0.890  10.564  18.660  0.00  0.00    +0.000 A 
ATOM      5  C   UNL     1      -1.570  10.048  17.557  0.00  0.00    +0.000 A 
ATOM      6  C   UNL     1      -2.904  10.408  17.348  0.00  0.00    +0.000 A 
ATOM      7  C   UNL     1      -3.561  11.286  18.231  0.00  0.00    +0.000 A 
ATOM      8  C   UNL     1      -4.909  11.639  18.052  0.00  0.00    +0.000 A 
ATOM      9  C   UNL     1      -5.534  12.507  18.948  0.00  0.00    +0.000 A 
ATOM     10 BR   UNL     1      -7.358  12.946  18.712  0.00  0.00    +0.000 Br
ATOM     11  C   UNL     1      -4.832  13.048  20.020  0.00  0.00    +0.000 A 
ATOM     12  C   UNL     1      -3.491  12.712  20.207  0.00  0.00    +0.000 A 
ATOM     13  C   UNL     1      -2.850  11.825  19.330  0.00  0.00    +0.000 A 
ATOM     14  C   UNL     1      -1.514  11.463  19.530  0.00  0.00    +0.000 A 
ENDBRANCH   2   4
BRANCH   2  15
ATOM     15  N   UNL     1       1.205   9.332  17.526  0.00  0.00    +0.000 N 
ATOM     16  C   UNL     1       2.169   8.332  17.758  0.00  0.00    +0.000 A 
ATOM     17  N   UNL     1       3.441   8.516  17.489  0.00  0.00    +0.000 NA
ATOM     18  N   UNL     1       4.059   7.299  17.683  0.00  0.00    +0.000 NA
ATOM     19  C   UNL     1       3.108   6.440  17.990  0.00  0.00    +0.000 A 
ATOM     20  O   UNL     1       1.873   7.035  18.081  0.00  0.00    +0.000 OA
ATOM     21  H   UNL     1       1.601  10.041  16.908  0.00  0.00    +0.000 HD
BRANCH  19  22
ATOM     22  C   UNL     1       3.186   4.992  18.160  0.00  0.00    +0.000 A 
ATOM     23  C   UNL     1       4.172   4.447  19.004  0.00  0.00    +0.000 A 
ATOM     24  C   UNL     1       4.299   3.064  19.163  0.00  0.00    +0.000 A 
ATOM     25  C   UNL     1       3.441   2.216  18.474  0.00  0.00    +0.000 A 
ATOM     26  F   UNL     1       3.562   0.891  18.622  0.00  0.00    +0.000 F 
ATOM     27  C   UNL     1       2.462   2.726  17.632  0.00  0.00    +0.000 A 
ATOM     28  C   UNL     1       2.334   4.111  17.474  0.00  0.00    +0.000 A 
ENDBRANCH  19  22
ENDBRANCH   2  15
TORSDOF 3
ENDMDL
MODEL 3
REMARK VINA RESULT:      -8.2      1.505      1.938
REMARK  Name = 
REMARK  3 active torsions:
REMARK  status: ('A' for Active; 'I' for Inactive)
REMARK    1  A    between atoms: S_2  and  N_4
REMARK    2  A    between atoms: S_2  and  C_17
REMARK    3  A    between atoms: C_8  and  C_9
REMARK                            x       y       z     vdW  Elec       q    Type
REMARK                         _______ _______ _______ _____ _____    ______ ____
ROOT
ATOM      1  O   UNL     1       2.760   5.146  17.565  0.00  0.00    +0.000 OA
ATOM      2  S   UNL     1       3.607   6.233  18.000  0.00  0.00    +0.000 S 
ATOM      3  O   UNL     1       4.661   6.021  18.972  0.00  0.00    +0.000 OA
ENDROOT
BRANCH   2   4
ATOM      4  C   UNL     1       2.554   7.517  18.623  0.00  0.00    +0.000 A 
ATOM      5  C   UNL     1       2.140   8.560  17.795  0.00  0.00    +0.000 A 
ATOM      6  C   UNL     1       1.325   9.566  18.320  0.00  0.00    +0.000 A 
ATOM      7  C   UNL     1       0.927   9.540  19.670  0.00  0.00    +0.000 A 
ATOM      8  C   UNL     1       0.087  10.528  20.210  0.00  0.00    +0.000 A 
ATOM      9  C   UNL     1      -0.293  10.473  21.551  0.00  0.00    +0.000 A 
ATOM     10 BR   UNL     1      -1.452  11.793  22.254  0.00  0.00    +0.000 Br
ATOM     11  C   UNL     1       0.162   9.451  22.377  0.00  0.00    +0.000 A 
ATOM     12  C   UNL     1       1.001   8.465  21.857  0.00  0.00    +0.000 A 
ATOM     13  C   UNL     1       1.381   8.492  20.507  0.00  0.00    +0.000 A 
ATOM     14  C   UNL     1       2.199   7.490  19.975  0.00  0.00    +0.000 A 
ENDBRANCH   2   4
BRANCH   2  15
ATOM     15  N   UNL     1       4.336   7.000  16.686  0.00  0.00    +0.000 N 
ATOM     16  C   UNL     1       5.265   6.155  16.048  0.00  0.00    +0.000 A 
ATOM     17  N   UNL     1       6.557   6.253  16.263  0.00  0.00    +0.000 NA
ATOM     18  N   UNL     1       7.166   5.398  15.370  0.00  0.00    +0.000 NA
ATOM     19  C   UNL     1       6.205   4.889  14.623  0.00  0.00    +0.000 A 
ATOM     20  O   UNL     1       4.958   5.310  15.017  0.00  0.00    +0.000 OA
ATOM     21  H   UNL     1       4.829   7.801  17.081  0.00  0.00    +0.000 HD
BRANCH  19  22
ATOM     22  C   UNL     1       6.302   4.039  13.441  0.00  0.00    +0.000 A 
ATOM     23  C   UNL     1       5.157   3.362  12.980  0.00  0.00    +0.000 A 
ATOM     24  C   UNL     1       5.222   2.512  11.872  0.00  0.00    +0.000 A 
ATOM     25  C   UNL     1       6.434   2.330  11.220  0.00  0.00    +0.000 A 
ATOM     26  F   UNL     1       6.500   1.515  10.160  0.00  0.00    +0.000 F 
ATOM     27  C   UNL     1       7.581   2.982  11.656  0.00  0.00    +0.000 A 
ATOM     28  C   UNL     1       7.516   3.834  12.764  0.00  0.00    +0.000 A 
ENDBRANCH  19  22
ENDBRANCH   2  15
TORSDOF 3
ENDMDL
MODEL 4
REMARK VINA RESULT:      -8.2      4.390      5.812
REMARK  Name = 
REMARK  3 active torsions:
REMARK  status: ('A' for Active; 'I' for Inactive)
REMARK    1  A    between atoms: S_2  and  N_4
REMARK    2  A    between atoms: S_2  and  C_17
REMARK    3  A    between atoms: C_8  and  C_9
REMARK                            x       y       z     vdW  Elec       q    Type
REMARK                         _______ _______ _______ _____ _____    ______ ____
ROOT
ATOM      1  O   UNL     1       1.002   9.414  20.390  0.00  0.00    +0.000 OA
ATOM      2  S   UNL     1       0.924  10.293  19.245  0.00  0.00    +0.000 S 
ATOM      3  O   UNL     1       1.840  11.404  19.088  0.00  0.00    +0.000 OA
ENDROOT
BRANCH   2   4
ATOM      4  C   UNL     1      -0.725  10.944  19.180  0.00  0.00    +0.000 A 
ATOM      5  C   UNL     1      -1.224  11.719  20.227  0.00  0.00    +0.000 A 
ATOM      6  C   UNL     1      -2.533  12.202  20.154  0.00  0.00    +0.000 A 
ATOM      7  C   UNL     1      -3.349  11.911  19.045  0.00  0.00    +0.000 A 
ATOM      8  C   UNL     1      -4.658  12.408  18.941  0.00  0.00    +0.000 A 
ATOM      9  C   UNL     1      -5.440  12.106  17.826  0.00  0.00    +0.000 A 
ATOM     10 BR   UNL     1      -7.189  12.812  17.686  0.00  0.00    +0.000 Br
ATOM     11  C   UNL     1      -4.945  11.297  16.809  0.00  0.00    +0.000 A 
ATOM     12  C   UNL     1      -3.649  10.789  16.901  0.00  0.00    +0.000 A 
ATOM     13  C   UNL     1      -2.839  11.097  18.004  0.00  0.00    +0.000 A 
ATOM     14  C   UNL     1      -1.529  10.614  18.086  0.00  0.00    +0.000 A 
ENDBRANCH   2   4
BRANCH   2  15
ATOM     15  N   UNL     1       1.001   9.421  17.803  0.00  0.00    +0.000 N 
ATOM     16  C   UNL     1       2.014   8.444  17.846  0.00  0.00    +0.000 A 
ATOM     17  N   UNL     1       3.186   8.632  17.286  0.00  0.00    +0.000 NA
ATOM     18  N   UNL     1       3.859   7.432  17.380  0.00  0.00    +0.000 NA
ATOM     19  C   UNL     1       3.022   6.575  17.930  0.00  0.00    +0.000 A 
ATOM     20  O   UNL     1       1.828   7.159  18.278  0.00  0.00    +0.000 OA
ATOM     21  H   UNL     1       1.230  10.108  17.084  0.00  0.00    +0.000 HD
BRANCH  19  22
ATOM     22  C   UNL     1       3.169   5.136  18.133  0.00  0.00    +0.000 A 
ATOM     23  C   UNL     1       2.253   4.255  17.527  0.00  0.00    +0.000 A 
ATOM     24  C   UNL     1       2.342   2.875  17.729  0.00  0.00    +0.000 A 
ATOM     25  C   UNL     1       3.347   2.367  18.541  0.00  0.00    +0.000 A 
ATOM     26  F   UNL     1       3.434   1.046  18.738  0.00  0.00    +0.000 F 
ATOM     27  C   UNL     1       4.262   3.214  19.155  0.00  0.00    +0.000 A 
ATOM     28  C   UNL     1       4.173   4.596  18.952  0.00  0.00    +0.000 A 
ENDBRANCH  19  22
ENDBRANCH   2  15
TORSDOF 3
ENDMDL
MODEL 5
REMARK VINA RESULT:      -8.2      1.042      1.560
REMARK  Name = 
REMARK  3 active torsions:
REMARK  status: ('A' for Active; 'I' for Inactive)
REMARK    1  A    between atoms: S_2  and  N_4
REMARK    2  A    between atoms: S_2  and  C_17
REMARK    3  A    between atoms: C_8  and  C_9
REMARK                            x       y       z     vdW  Elec       q    Type
REMARK                         _______ _______ _______ _____ _____    ______ ____
ROOT
ATOM      1  O   UNL     1       1.964   4.974  18.672  0.00  0.00    +0.000 OA
ATOM      2  S   UNL     1       2.488   5.801  19.735  0.00  0.00    +0.000 S 
ATOM      3  O   UNL     1       2.210   5.504  21.125  0.00  0.00    +0.000 OA
ENDROOT
BRANCH   2   4
ATOM      4  C   UNL     1       1.960   7.466  19.427  0.00  0.00    +0.000 A 
ATOM      5  C   UNL     1       2.161   8.057  18.179  0.00  0.00    +0.000 A 
ATOM      6  C   UNL     1       1.750   9.376  17.974  0.00  0.00    +0.000 A 
ATOM      7  C   UNL     1       1.145  10.112  19.009  0.00  0.00    +0.000 A 
ATOM      8  C   UNL     1       0.701  11.430  18.815  0.00  0.00    +0.000 A 
ATOM      9  C   UNL     1       0.101  12.133  19.860  0.00  0.00    +0.000 A 
ATOM     10 BR   UNL     1      -0.521  13.896  19.572  0.00  0.00    +0.000 Br
ATOM     11  C   UNL     1      -0.056  11.548  21.112  0.00  0.00    +0.000 A 
ATOM     12  C   UNL     1       0.386  10.241  21.323  0.00  0.00    +0.000 A 
ATOM     13  C   UNL     1       0.975   9.511  20.280  0.00  0.00    +0.000 A 
ATOM     14  C   UNL     1       1.392   8.191  20.479  0.00  0.00    +0.000 A 
ENDBRANCH   2   4
BRANCH   2  15
ATOM     15  N   UNL     1       4.165   5.951  19.619  0.00  0.00    +0.000 N 
ATOM     16  C   UNL     1       4.690   5.098  18.629  0.00  0.00    +0.000 A 
ATOM     17  N   UNL     1       5.252   3.949  18.928  0.00  0.00    +0.000 NA
ATOM     18  N   UNL     1       5.788   3.462  17.755  0.00  0.00    +0.000 NA
ATOM     19  C   UNL     1       5.577   4.383  16.835  0.00  0.00    +0.000 A 
ATOM     20  O   UNL     1       4.857   5.450  17.318  0.00  0.00    +0.000 OA
ATOM     21  H   UNL     1       4.524   5.667  20.531  0.00  0.00    +0.000 HD
BRANCH  19  22
ATOM     22  C   UNL     1       6.056   4.445  15.458  0.00  0.00    +0.000 A 
ATOM     23  C   UNL     1       5.358   3.752  14.451  0.00  0.00    +0.000 A 
ATOM     24  C   UNL     1       5.808   3.760  13.128  0.00  0.00    +0.000 A 
ATOM     25  C   UNL     1       6.964   4.459  12.803  0.00  0.00    +0.000 A 
ATOM     26  F   UNL     1       7.399   4.466  11.537  0.00  0.00    +0.000 F 
ATOM     27  C   UNL     1       7.675   5.148  13.778  0.00  0.00    +0.000 A 
ATOM     28  C   UNL     1       7.223   5.141  15.103  0.00  0.00    +0.000 A 
ENDBRANCH  19  22
ENDBRANCH   2  15
TORSDOF 3
ENDMDL
MODEL 6
REMARK VINA RESULT:      -8.2      6.730     11.126
REMARK  Name = 
REMARK  3 active torsions:
REMARK  status: ('A' for Active; 'I' for Inactive)
REMARK    1  A    between atoms: S_2  and  N_4
REMARK    2  A    between atoms: S_2  and  C_17
REMARK    3  A    between atoms: C_8  and  C_9
REMARK                            x       y       z     vdW  Elec       q    Type
REMARK                         _______ _______ _______ _____ _____    ______ ____
ROOT
ATOM      1  O   UNL     1      -0.467  10.546  18.726  0.00  0.00    +0.000 OA
ATOM      2  S   UNL     1       0.865  10.632  19.280  0.00  0.00    +0.000 S 
ATOM      3  O   UNL     1       1.793  11.656  18.848  0.00  0.00    +0.000 OA
ENDROOT
BRANCH   2   4
ATOM      4  C   UNL     1       1.650   9.060  19.037  0.00  0.00    +0.000 A 
ATOM      5  C   UNL     1       2.394   8.808  17.884  0.00  0.00    +0.000 A 
ATOM      6  C   UNL     1       2.985   7.554  17.714  0.00  0.00    +0.000 A 
ATOM      7  C   UNL     1       2.832   6.547  18.685  0.00  0.00    +0.000 A 
ATOM      8  C   UNL     1       3.440   5.289  18.544  0.00  0.00    +0.000 A 
ATOM      9  C   UNL     1       3.274   4.312  19.527  0.00  0.00    +0.000 A 
ATOM     10 BR   UNL     1       4.127   2.634  19.338  0.00  0.00    +0.000 Br
ATOM     11  C   UNL     1       2.494   4.561  20.651  0.00  0.00    +0.000 A 
ATOM     12  C   UNL     1       1.879   5.804  20.803  0.00  0.00    +0.000 A 
ATOM     13  C   UNL     1       2.049   6.806  19.836  0.00  0.00    +0.000 A 
ATOM     14  C   UNL     1       1.457   8.063  19.998  0.00  0.00    +0.000 A 
ENDBRANCH   2   4
BRANCH   2  15
ATOM     15  N   UNL     1       0.817  10.730  20.964  0.00  0.00    +0.000 N 
ATOM     16  C   UNL     1      -0.107  11.700  21.397  0.00  0.00    +0.000 A 
ATOM     17  N   UNL     1       0.270  12.900  21.774  0.00  0.00    +0.000 NA
ATOM     18  N   UNL     1      -0.854  13.520  22.278  0.00  0.00    +0.000 NA
ATOM     19  C   UNL     1      -1.824  12.628  22.237  0.00  0.00    +0.000 A 
ATOM     20  O   UNL     1      -1.425  11.446  21.662  0.00  0.00    +0.000 OA
ATOM     21  H   UNL     1       1.757  11.014  21.245  0.00  0.00    +0.000 HD
BRANCH  19  22
ATOM     22  C   UNL     1      -3.180  12.709  22.772  0.00  0.00    +0.000 A 
ATOM     23  C   UNL     1      -3.401  12.458  24.139  0.00  0.00    +0.000 A 
ATOM     24  C   UNL     1      -4.690  12.492  24.678  0.00  0.00    +0.000 A 
ATOM     25  C   UNL     1      -5.769  12.773  23.850  0.00  0.00    +0.000 A 
ATOM     26  F   UNL     1      -7.006  12.804  24.363  0.00  0.00    +0.000 F 
ATOM     27  C   UNL     1      -5.581  13.020  22.496  0.00  0.00    +0.000 A 
ATOM     28  C   UNL     1      -4.290  12.987  21.957  0.00  0.00    +0.000 A 
ENDBRANCH  19  22
ENDBRANCH   2  15
TORSDOF 3
ENDMDL
MODEL 7
REMARK VINA RESULT:      -8.1      6.867     11.314
REMARK  Name = 
REMARK  3 active torsions:
REMARK  status: ('A' for Active; 'I' for Inactive)
REMARK    1  A    between atoms: S_2  and  N_4
REMARK    2  A    between atoms: S_2  and  C_17
REMARK    3  A    between atoms: C_8  and  C_9
REMARK                            x       y       z     vdW  Elec       q    Type
REMARK                         _______ _______ _______ _____ _____    ______ ____
ROOT
ATOM      1  O   UNL     1      -0.583  11.011  18.907  0.00  0.00    +0.000 OA
ATOM      2  S   UNL     1       0.726  11.034  19.518  0.00  0.00    +0.000 S 
ATOM      3  O   UNL     1       1.679  12.082  19.216  0.00  0.00    +0.000 OA
ENDROOT
BRANCH   2   4
ATOM      4  C   UNL     1       1.509   9.481  19.165  0.00  0.00    +0.000 A 
ATOM      5  C   UNL     1       2.154   9.272  17.946  0.00  0.00    +0.000 A 
ATOM      6  C   UNL     1       2.745   8.032  17.691  0.00  0.00    +0.000 A 
ATOM      7  C   UNL     1       2.691   6.997  18.644  0.00  0.00    +0.000 A 
ATOM      8  C   UNL     1       3.301   5.753  18.417  0.00  0.00    +0.000 A 
ATOM      9  C   UNL     1       3.234   4.749  19.383  0.00  0.00    +0.000 A 
ATOM     10 BR   UNL     1       4.091   3.091  19.075  0.00  0.00    +0.000 Br
ATOM     11  C   UNL     1       2.552   4.956  20.577  0.00  0.00    +0.000 A 
ATOM     12  C   UNL     1       1.934   6.185  20.815  0.00  0.00    +0.000 A 
ATOM     13  C   UNL     1       2.006   7.214  19.865  0.00  0.00    +0.000 A 
ATOM     14  C   UNL     1       1.414   8.457  20.111  0.00  0.00    +0.000 A 
ENDBRANCH   2   4
BRANCH   2  15
ATOM     15  N   UNL     1       0.613  10.981  21.201  0.00  0.00    +0.000 N 
ATOM     16  C   UNL     1      -0.361  11.879  21.679  0.00  0.00    +0.000 A 
ATOM     17  N   UNL     1      -0.042  13.052  22.174  0.00  0.00    +0.000 NA
ATOM     18  N   UNL     1      -1.204  13.589  22.684  0.00  0.00    +0.000 NA
ATOM     19  C   UNL     1      -2.140  12.673  22.527  0.00  0.00    +0.000 A 
ATOM     20  O   UNL     1      -1.678  11.559  21.868  0.00  0.00    +0.000 OA
ATOM     21  H   UNL     1       1.531  11.270  21.542  0.00  0.00    +0.000 HD
BRANCH  19  22
ATOM     22  C   UNL     1      -3.517  12.662  23.012  0.00  0.00    +0.000 A 
ATOM     23  C   UNL     1      -4.563  12.993  22.130  0.00  0.00    +0.000 A 
ATOM     24  C   UNL     1      -5.890  13.027  22.569  0.00  0.00    +0.000 A 
ATOM     25  C   UNL     1      -6.178  12.734  23.896  0.00  0.00    +0.000 A 
ATOM     26  F   UNL     1      -7.448  12.768  24.320  0.00  0.00    +0.000 F 
ATOM     27  C   UNL     1      -5.165  12.408  24.789  0.00  0.00    +0.000 A 
ATOM     28  C   UNL     1      -3.837  12.373  24.349  0.00  0.00    +0.000 A 
ENDBRANCH  19  22
ENDBRANCH   2  15
TORSDOF 3
ENDMDL
MODEL 8
REMARK VINA RESULT:      -8.1      4.428      6.295
REMARK  Name = 
REMARK  3 active torsions:
REMARK  status: ('A' for Active; 'I' for Inactive)
REMARK    1  A    between atoms: S_2  and  N_4
REMARK    2  A    between atoms: S_2  and  C_17
REMARK    3  A    between atoms: C_8  and  C_9
REMARK                            x       y       z     vdW  Elec       q    Type
REMARK                         _______ _______ _______ _____ _____    ______ ____
ROOT
ATOM      1  O   UNL     1       1.052  10.968  21.187  0.00  0.00    +0.000 OA
ATOM      2  S   UNL     1       0.372  11.630  20.096  0.00  0.00    +0.000 S 
ATOM      3  O   UNL     1       0.933  12.806  19.465  0.00  0.00    +0.000 OA
ENDROOT
BRANCH   2   4
ATOM      4  C   UNL     1      -1.258  12.049  20.656  0.00  0.00    +0.000 A 
ATOM      5  C   UNL     1      -2.239  12.452  19.750  0.00  0.00    +0.000 A 
ATOM      6  C   UNL     1      -3.508  12.792  20.225  0.00  0.00    +0.000 A 
ATOM      7  C   UNL     1      -3.802  12.739  21.600  0.00  0.00    +0.000 A 
ATOM      8  C   UNL     1      -5.079  13.052  22.094  0.00  0.00    +0.000 A 
ATOM      9  C   UNL     1      -5.341  12.986  23.462  0.00  0.00    +0.000 A 
ATOM     10 BR   UNL     1      -7.075  13.378  24.107  0.00  0.00    +0.000 Br
ATOM     11  C   UNL     1      -4.342  12.623  24.360  0.00  0.00    +0.000 A 
ATOM     12  C   UNL     1      -3.066  12.315  23.886  0.00  0.00    +0.000 A 
ATOM     13  C   UNL     1      -2.788  12.358  22.512  0.00  0.00    +0.000 A 
ATOM     14  C   UNL     1      -1.519  12.021  22.029  0.00  0.00    +0.000 A 
ENDBRANCH   2   4
BRANCH   2  15
ATOM     15  N   UNL     1       0.033  10.549  18.846  0.00  0.00    +0.000 N 
ATOM     16  C   UNL     1       1.127   9.700  18.589  0.00  0.00    +0.000 A 
ATOM     17  N   UNL     1       1.955   9.914  17.593  0.00  0.00    +0.000 NA
ATOM     18  N   UNL     1       2.793   8.821  17.542  0.00  0.00    +0.000 NA
ATOM     19  C   UNL     1       2.372   7.982  18.468  0.00  0.00    +0.000 A 
ATOM     20  O   UNL     1       1.323   8.489  19.196  0.00  0.00    +0.000 OA
ATOM     21  H   UNL     1      -0.138  11.131  18.025  0.00  0.00    +0.000 HD
BRANCH  19  22
ATOM     22  C   UNL     1       2.809   6.618  18.751  0.00  0.00    +0.000 A 
ATOM     23  C   UNL     1       2.390   5.990  19.939  0.00  0.00    +0.000 A 
ATOM     24  C   UNL     1       2.817   4.698  20.259  0.00  0.00    +0.000 A 
ATOM     25  C   UNL     1       3.670   4.027  19.393  0.00  0.00    +0.000 A 
ATOM     26  F   UNL     1       4.083   2.790  19.698  0.00  0.00    +0.000 F 
ATOM     27  C   UNL     1       4.103   4.624  18.216  0.00  0.00    +0.000 A 
ATOM     28  C   UNL     1       3.674   5.917  17.895  0.00  0.00    +0.000 A 
ENDBRANCH  19  22
ENDBRANCH   2  15
TORSDOF 3
ENDMDL
MODEL 9
REMARK VINA RESULT:      -8.1      4.658      6.344
REMARK  Name = 
REMARK  3 active torsions:
REMARK  status: ('A' for Active; 'I' for Inactive)
REMARK    1  A    between atoms: S_2  and  N_4
REMARK    2  A    between atoms: S_2  and  C_17
REMARK    3  A    between atoms: C_8  and  C_9
REMARK                            x       y       z     vdW  Elec       q    Type
REMARK                         _______ _______ _______ _____ _____    ______ ____
ROOT
ATOM      1  O   UNL     1       1.302  10.287  20.269  0.00  0.00    +0.000 OA
ATOM      2  S   UNL     1       0.990  11.019  19.063  0.00  0.00    +0.000 S 
ATOM      3  O   UNL     1       1.742  12.197  18.683  0.00  0.00    +0.000 OA
ENDROOT
BRANCH   2   4
ATOM      4  C   UNL     1      -0.721  11.481  19.144  0.00  0.00    +0.000 A 
ATOM      5  C   UNL     1      -1.232  12.120  20.274  0.00  0.00    +0.000 A 
ATOM      6  C   UNL     1      -2.588  12.455  20.315  0.00  0.00    +0.000 A 
ATOM      7  C   UNL     1      -3.439  12.148  19.237  0.00  0.00    +0.000 A 
ATOM      8  C   UNL     1      -4.799  12.499  19.248  0.00  0.00    +0.000 A 
ATOM      9  C   UNL     1      -5.616  12.185  18.162  0.00  0.00    +0.000 A 
ATOM     10 BR   UNL     1      -7.438  12.694  18.179  0.00  0.00    +0.000 Br
ATOM     11  C   UNL     1      -5.104  11.509  17.059  0.00  0.00    +0.000 A 
ATOM     12  C   UNL     1      -3.757  11.148  17.036  0.00  0.00    +0.000 A 
ATOM     13  C   UNL     1      -2.914  11.471  18.109  0.00  0.00    +0.000 A 
ATOM     14  C   UNL     1      -1.556  11.137  18.077  0.00  0.00    +0.000 A 
ENDBRANCH   2   4
BRANCH   2  15
ATOM     15  N   UNL     1       1.003  10.006  17.714  0.00  0.00    +0.000 N 
ATOM     16  C   UNL     1       1.797   8.865  17.937  0.00  0.00    +0.000 A 
ATOM     17  N   UNL     1       3.023   8.769  17.476  0.00  0.00    +0.000 NA
ATOM     18  N   UNL     1       3.437   7.480  17.735  0.00  0.00    +0.000 NA
ATOM     19  C   UNL     1       2.408   6.857  18.275  0.00  0.00    +0.000 A 
ATOM     20  O   UNL     1       1.329   7.689  18.457  0.00  0.00    +0.000 OA
ATOM     21  H   UNL     1       1.417  10.560  16.964  0.00  0.00    +0.000 HD
BRANCH  19  22
ATOM     22  C   UNL     1       2.252   5.446  18.614  0.00  0.00    +0.000 A 
ATOM     23  C   UNL     1       2.455   4.470  17.620  0.00  0.00    +0.000 A 
ATOM     24  C   UNL     1       2.280   3.111  17.900  0.00  0.00    +0.000 A 
ATOM     25  C   UNL     1       1.898   2.720  19.176  0.00  0.00    +0.000 A 
ATOM     26  F   UNL     1       1.727   1.420  19.447  0.00  0.00    +0.000 F 
ATOM     27  C   UNL     1       1.687   3.663  20.175  0.00  0.00    +0.000 A 
ATOM     28  C   UNL     1       1.863   5.023  19.895  0.00  0.00    +0.000 A 
ENDBRANCH  19  22
ENDBRANCH   2  15
TORSDOF 3
ENDMDL
