MODEL 1
REMARK VINA RESULT:      -8.9      0.000      0.000
REMARK  Name = 
REMARK  5 active torsions:
REMARK  status: ('A' for Active; 'I' for Inactive)
REMARK    1  A    between atoms: C_1  and  C_2
REMARK    2  A    between atoms: C_2  and  C_3
REMARK    3  A    between atoms: C_5  and  C_6
REMARK    4  A    between atoms: C_8  and  C_9
REMARK    5  A    between atoms: C_13  and  N_14
REMARK                            x       y       z     vdW  Elec       q    Type
REMARK                         _______ _______ _______ _____ _____    ______ ____
ROOT
ATOM      1  C   UNL     1       2.640   7.322  18.682  0.00  0.00    +0.000 A 
ATOM      2  N   UNL     1       2.051   7.769  19.766  0.00  0.00    +0.000 NA
ATOM      3  C   UNL     1       1.446   8.936  19.317  0.00  0.00    +0.000 A 
ATOM      4  N   UNL     1       1.643   9.175  18.007  0.00  0.00    +0.000 NA
ATOM      5  O   UNL     1       2.416   8.100  17.586  0.00  0.00    +0.000 OA
ENDROOT
BRANCH   1  10
ATOM      6  C   UNL     1       5.545   5.136  15.368  0.00  0.00    +0.000 C 
ATOM      7  C   UNL     1       4.973   4.961  16.784  0.00  0.00    +0.000 C 
ATOM      8  C   UNL     1       6.118   4.567  17.728  0.00  0.00    +0.000 C 
ATOM      9  C   UNL     1       4.291   6.268  17.191  0.00  0.00    +0.000 C 
ATOM     10  C   UNL     1       3.525   6.129  18.510  0.00  0.00    +0.000 C 
ATOM     11  C   UNL     1       2.780   4.817  18.569  0.00  0.00    +0.000 A 
ATOM     12  C   UNL     1       1.806   4.581  19.558  0.00  0.00    +0.000 A 
ATOM     13  C   UNL     1       1.084   3.388  19.579  0.00  0.00    +0.000 A 
ATOM     14  C   UNL     1       1.339   2.408  18.624  0.00  0.00    +0.000 A 
ATOM     15  C   UNL     1       2.335   2.612  17.670  0.00  0.00    +0.000 A 
ATOM     16  C   UNL     1       3.066   3.802  17.654  0.00  0.00    +0.000 A 
ATOM     17  O   UNL     1       4.032   3.881  16.689  0.00  0.00    +0.000 OA
ENDBRANCH   1  10
BRANCH   3  18
ATOM     18  C   UNL     1       0.707   9.835  20.211  0.00  0.00    +0.000 A 
ATOM     19  N   UNL     1       0.326  11.029  19.709  0.00  0.00    +0.000 NA
ATOM     20  C   UNL     1      -0.418  11.795  20.521  0.00  0.00    +0.000 A 
ATOM     21  C   UNL     1      -0.791  11.411  21.787  0.00  0.00    +0.000 A 
ATOM     22  C   UNL     1      -0.342  10.180  22.210  0.00  0.00    +0.000 A 
ATOM     23  N   UNL     1       0.407   9.381  21.447  0.00  0.00    +0.000 NA
BRANCH  22  24
ATOM     24  N   UNL     1      -0.729   9.676  23.449  0.00  0.00    +0.000 N 
ATOM     25  H   UNL     1      -0.431   8.719  23.598  0.00  0.00    +0.000 HD
ATOM     26  H   UNL     1      -1.738   9.782  23.527  0.00  0.00    +0.000 HD
ENDBRANCH  22  24
ENDBRANCH   3  18
TORSDOF 3
ENDMDL
MODEL 2
REMARK VINA RESULT:      -8.7      0.943      1.476
REMARK  Name = 
REMARK  5 active torsions:
REMARK  status: ('A' for Active; 'I' for Inactive)
REMARK    1  A    between atoms: C_1  and  C_2
REMARK    2  A    between atoms: C_2  and  C_3
REMARK    3  A    between atoms: C_5  and  C_6
REMARK    4  A    between atoms: C_8  and  C_9
REMARK    5  A    between atoms: C_13  and  N_14
REMARK                            x       y       z     vdW  Elec       q    Type
REMARK                         _______ _______ _______ _____ _____    ______ ____
ROOT
ATOM      1  C   UNL     1       2.302   7.407  19.355  0.00  0.00    +0.000 A 
ATOM      2  N   UNL     1       1.703   7.751  20.470  0.00  0.00    +0.000 NA
ATOM      3  C   UNL     1       1.078   8.941  20.120  0.00  0.00    +0.000 A 
ATOM      4  N   UNL     1       1.273   9.293  18.836  0.00  0.00    +0.000 NA
ATOM      5  O   UNL     1       2.067   8.272  18.327  0.00  0.00    +0.000 OA
ENDROOT
BRANCH   1  10
ATOM      6  C   UNL     1       5.244   5.557  15.873  0.00  0.00    +0.000 C 
ATOM      7  C   UNL     1       4.677   5.254  17.269  0.00  0.00    +0.000 C 
ATOM      8  C   UNL     1       5.829   4.804  18.179  0.00  0.00    +0.000 C 
ATOM      9  C   UNL     1       3.972   6.510  17.783  0.00  0.00    +0.000 C 
ATOM     10  C   UNL     1       3.209   6.249  19.085  0.00  0.00    +0.000 C 
ATOM     11  C   UNL     1       2.488   4.923  19.034  0.00  0.00    +0.000 A 
ATOM     12  C   UNL     1       1.518   4.589  19.999  0.00  0.00    +0.000 A 
ATOM     13  C   UNL     1       0.818   3.385  19.920  0.00  0.00    +0.000 A 
ATOM     14  C   UNL     1       1.090   2.492  18.888  0.00  0.00    +0.000 A 
ATOM     15  C   UNL     1       2.082   2.792  17.955  0.00  0.00    +0.000 A 
ATOM     16  C   UNL     1       2.791   3.993  18.038  0.00  0.00    +0.000 A 
ATOM     17  O   UNL     1       3.755   4.170  17.084  0.00  0.00    +0.000 OA
ENDBRANCH   1  10
BRANCH   3  18
ATOM     18  C   UNL     1       0.323   9.748  21.085  0.00  0.00    +0.000 A 
ATOM     19  N   UNL     1      -0.044   9.150  22.238  0.00  0.00    +0.000 NA
ATOM     20  C   UNL     1      -0.660   9.934  23.135  0.00  0.00    +0.000 A 
ATOM     21  C   UNL     1      -0.910  11.269  22.923  0.00  0.00    +0.000 A 
ATOM     22  C   UNL     1      -0.507  11.781  21.710  0.00  0.00    +0.000 A 
ATOM     23  N   UNL     1       0.102  11.045  20.779  0.00  0.00    +0.000 NA
BRANCH  22  24
ATOM     24  N   UNL     1      -0.653  13.139  21.434  0.00  0.00    +0.000 N 
ATOM     25  H   UNL     1      -0.570  13.721  22.259  0.00  0.00    +0.000 HD
ATOM     26  H   UNL     1      -1.544  13.266  20.960  0.00  0.00    +0.000 HD
ENDBRANCH  22  24
ENDBRANCH   3  18
TORSDOF 3
ENDMDL
MODEL 3
REMARK VINA RESULT:      -8.6      0.797      1.545
REMARK  Name = 
REMARK  5 active torsions:
REMARK  status: ('A' for Active; 'I' for Inactive)
REMARK    1  A    between atoms: C_1  and  C_2
REMARK    2  A    between atoms: C_2  and  C_3
REMARK    3  A    between atoms: C_5  and  C_6
REMARK    4  A    between atoms: C_8  and  C_9
REMARK    5  A    between atoms: C_13  and  N_14
REMARK                            x       y       z     vdW  Elec       q    Type
REMARK                         _______ _______ _______ _____ _____    ______ ____
ROOT
ATOM      1  C   UNL     1       2.723   7.538  18.317  0.00  0.00    +0.000 A 
ATOM      2  N   UNL     1       1.989   7.981  19.310  0.00  0.00    +0.000 NA
ATOM      3  C   UNL     1       1.466   9.159  18.792  0.00  0.00    +0.000 A 
ATOM      4  N   UNL     1       1.852   9.409  17.527  0.00  0.00    +0.000 NA
ATOM      5  O   UNL     1       2.667   8.329  17.209  0.00  0.00    +0.000 OA
ENDROOT
BRANCH   1  10
ATOM      6  C   UNL     1       5.772   5.151  15.283  0.00  0.00    +0.000 C 
ATOM      7  C   UNL     1       5.135   5.064  16.679  0.00  0.00    +0.000 C 
ATOM      8  C   UNL     1       6.234   4.729  17.698  0.00  0.00    +0.000 C 
ATOM      9  C   UNL     1       4.439   6.393  16.972  0.00  0.00    +0.000 C 
ATOM     10  C   UNL     1       3.612   6.337  18.261  0.00  0.00    +0.000 C 
ATOM     11  C   UNL     1       2.862   5.030  18.366  0.00  0.00    +0.000 A 
ATOM     12  C   UNL     1       1.842   4.857  19.322  0.00  0.00    +0.000 A 
ATOM     13  C   UNL     1       1.117   3.666  19.383  0.00  0.00    +0.000 A 
ATOM     14  C   UNL     1       1.413   2.629  18.504  0.00  0.00    +0.000 A 
ATOM     15  C   UNL     1       2.453   2.774  17.586  0.00  0.00    +0.000 A 
ATOM     16  C   UNL     1       3.186   3.960  17.530  0.00  0.00    +0.000 A 
ATOM     17  O   UNL     1       4.196   3.980  16.608  0.00  0.00    +0.000 OA
ENDBRANCH   1  10
BRANCH   3  18
ATOM     18  C   UNL     1       0.616  10.058  19.581  0.00  0.00    +0.000 A 
ATOM     19  N   UNL     1       0.746  10.010  20.924  0.00  0.00    +0.000 NA
ATOM     20  C   UNL     1       0.017  10.900  21.615  0.00  0.00    +0.000 A 
ATOM     21  C   UNL     1      -0.812  11.820  21.019  0.00  0.00    +0.000 A 
ATOM     22  C   UNL     1      -0.883  11.779  19.645  0.00  0.00    +0.000 A 
ATOM     23  N   UNL     1      -0.187  10.910  18.908  0.00  0.00    +0.000 NA
BRANCH  22  24
ATOM     24  N   UNL     1      -1.640  12.719  18.949  0.00  0.00    +0.000 N 
ATOM     25  H   UNL     1      -1.653  12.556  17.950  0.00  0.00    +0.000 HD
ATOM     26  H   UNL     1      -1.284  13.642  19.185  0.00  0.00    +0.000 HD
ENDBRANCH  22  24
ENDBRANCH   3  18
TORSDOF 3
ENDMDL
MODEL 4
REMARK VINA RESULT:      -8.6      1.342      3.228
REMARK  Name = 
REMARK  5 active torsions:
REMARK  status: ('A' for Active; 'I' for Inactive)
REMARK    1  A    between atoms: C_1  and  C_2
REMARK    2  A    between atoms: C_2  and  C_3
REMARK    3  A    between atoms: C_5  and  C_6
REMARK    4  A    between atoms: C_8  and  C_9
REMARK    5  A    between atoms: C_13  and  N_14
REMARK                            x       y       z     vdW  Elec       q    Type
REMARK                         _______ _______ _______ _____ _____    ______ ____
ROOT
ATOM      1  C   UNL     1       2.632   7.061  18.405  0.00  0.00    +0.000 A 
ATOM      2  N   UNL     1       2.117   7.473  19.539  0.00  0.00    +0.000 NA
ATOM      3  C   UNL     1       1.639   8.734  19.210  0.00  0.00    +0.000 A 
ATOM      4  N   UNL     1       1.838   9.066  17.921  0.00  0.00    +0.000 NA
ATOM      5  O   UNL     1       2.478   7.955  17.386  0.00  0.00    +0.000 OA
ENDROOT
BRANCH   1  10
ATOM      6  C   UNL     1       3.590   2.623  20.299  0.00  0.00    +0.000 C 
ATOM      7  C   UNL     1       3.928   3.532  19.107  0.00  0.00    +0.000 C 
ATOM      8  C   UNL     1       3.795   2.714  17.814  0.00  0.00    +0.000 C 
ATOM      9  C   UNL     1       2.990   4.740  19.143  0.00  0.00    +0.000 C 
ATOM     10  C   UNL     1       3.375   5.798  18.105  0.00  0.00    +0.000 C 
ATOM     11  C   UNL     1       4.873   5.983  18.051  0.00  0.00    +0.000 A 
ATOM     12  C   UNL     1       5.443   7.076  17.369  0.00  0.00    +0.000 A 
ATOM     13  C   UNL     1       6.825   7.272  17.364  0.00  0.00    +0.000 A 
ATOM     14  C   UNL     1       7.654   6.370  18.022  0.00  0.00    +0.000 A 
ATOM     15  C   UNL     1       7.103   5.259  18.660  0.00  0.00    +0.000 A 
ATOM     16  C   UNL     1       5.722   5.055  18.658  0.00  0.00    +0.000 A 
ATOM     17  O   UNL     1       5.297   3.922  19.293  0.00  0.00    +0.000 OA
ENDBRANCH   1  10
BRANCH   3  18
ATOM     18  C   UNL     1       1.023   9.626  20.199  0.00  0.00    +0.000 A 
ATOM     19  N   UNL     1       0.765  10.893  19.812  0.00  0.00    +0.000 NA
ATOM     20  C   UNL     1       0.126  11.661  20.707  0.00  0.00    +0.000 A 
ATOM     21  C   UNL     1      -0.260  11.210  21.947  0.00  0.00    +0.000 A 
ATOM     22  C   UNL     1       0.060   9.906  22.250  0.00  0.00    +0.000 A 
ATOM     23  N   UNL     1       0.701   9.101  21.401  0.00  0.00    +0.000 NA
BRANCH  22  24
ATOM     24  N   UNL     1      -0.354   9.340  23.454  0.00  0.00    +0.000 N 
ATOM     25  H   UNL     1      -0.631  10.029  24.142  0.00  0.00    +0.000 HD
ATOM     26  H   UNL     1       0.396   8.739  23.789  0.00  0.00    +0.000 HD
ENDBRANCH  22  24
ENDBRANCH   3  18
TORSDOF 3
ENDMDL
MODEL 5
REMARK VINA RESULT:      -8.4      1.533      2.329
REMARK  Name = 
REMARK  5 active torsions:
REMARK  status: ('A' for Active; 'I' for Inactive)
REMARK    1  A    between atoms: C_1  and  C_2
REMARK    2  A    between atoms: C_2  and  C_3
REMARK    3  A    between atoms: C_5  and  C_6
REMARK    4  A    between atoms: C_8  and  C_9
REMARK    5  A    between atoms: C_13  and  N_14
REMARK                            x       y       z     vdW  Elec       q    Type
REMARK                         _______ _______ _______ _____ _____    ______ ____
ROOT
ATOM      1  C   UNL     1       2.154   7.547  19.709  0.00  0.00    +0.000 A 
ATOM      2  N   UNL     1       1.808   8.604  19.013  0.00  0.00    +0.000 NA
ATOM      3  C   UNL     1       0.891   9.226  19.850  0.00  0.00    +0.000 A 
ATOM      4  N   UNL     1       0.704   8.582  21.017  0.00  0.00    +0.000 NA
ATOM      5  O   UNL     1       1.552   7.484  20.930  0.00  0.00    +0.000 OA
ENDROOT
BRANCH   1  10
ATOM      6  C   UNL     1       5.009   5.982  16.021  0.00  0.00    +0.000 C 
ATOM      7  C   UNL     1       4.487   5.575  17.408  0.00  0.00    +0.000 C 
ATOM      8  C   UNL     1       5.671   5.077  18.249  0.00  0.00    +0.000 C 
ATOM      9  C   UNL     1       3.785   6.783  18.029  0.00  0.00    +0.000 C 
ATOM     10  C   UNL     1       3.064   6.422  19.332  0.00  0.00    +0.000 C 
ATOM     11  C   UNL     1       2.356   5.094  19.208  0.00  0.00    +0.000 A 
ATOM     12  C   UNL     1       1.420   4.681  20.176  0.00  0.00    +0.000 A 
ATOM     13  C   UNL     1       0.729   3.477  20.033  0.00  0.00    +0.000 A 
ATOM     14  C   UNL     1       0.979   2.662  18.933  0.00  0.00    +0.000 A 
ATOM     15  C   UNL     1       1.939   3.039  17.995  0.00  0.00    +0.000 A 
ATOM     16  C   UNL     1       2.638   4.240  18.141  0.00  0.00    +0.000 A 
ATOM     17  O   UNL     1       3.571   4.495  17.174  0.00  0.00    +0.000 OA
ENDBRANCH   1  10
BRANCH   3  18
ATOM     18  C   UNL     1       0.167  10.442  19.461  0.00  0.00    +0.000 A 
ATOM     19  N   UNL     1       0.409  11.560  20.177  0.00  0.00    +0.000 NA
ATOM     20  C   UNL     1      -0.203  12.674  19.748  0.00  0.00    +0.000 A 
ATOM     21  C   UNL     1      -1.024  12.707  18.647  0.00  0.00    +0.000 A 
ATOM     22  C   UNL     1      -1.216  11.511  17.992  0.00  0.00    +0.000 A 
ATOM     23  N   UNL     1      -0.639  10.371  18.380  0.00  0.00    +0.000 NA
BRANCH  22  24
ATOM     24  N   UNL     1      -1.973  11.459  16.824  0.00  0.00    +0.000 N 
ATOM     25  H   UNL     1      -1.959  12.329  16.304  0.00  0.00    +0.000 HD
ATOM     26  H   UNL     1      -2.917  11.177  17.077  0.00  0.00    +0.000 HD
ENDBRANCH  22  24
ENDBRANCH   3  18
TORSDOF 3
ENDMDL
MODEL 6
REMARK VINA RESULT:      -8.3      1.694      2.377
REMARK  Name = 
REMARK  5 active torsions:
REMARK  status: ('A' for Active; 'I' for Inactive)
REMARK    1  A    between atoms: C_1  and  C_2
REMARK    2  A    between atoms: C_2  and  C_3
REMARK    3  A    between atoms: C_5  and  C_6
REMARK    4  A    between atoms: C_8  and  C_9
REMARK    5  A    between atoms: C_13  and  N_14
REMARK                            x       y       z     vdW  Elec       q    Type
REMARK                         _______ _______ _______ _____ _____    ______ ____
ROOT
ATOM      1  C   UNL     1       2.268   7.678  19.097  0.00  0.00    +0.000 A 
ATOM      2  N   UNL     1       1.606   8.380  18.209  0.00  0.00    +0.000 NA
ATOM      3  C   UNL     1       0.849   9.231  19.004  0.00  0.00    +0.000 A 
ATOM      4  N   UNL     1       1.061   9.065  20.323  0.00  0.00    +0.000 NA
ATOM      5  O   UNL     1       2.009   8.051  20.382  0.00  0.00    +0.000 OA
ENDROOT
BRANCH   1  10
ATOM      6  C   UNL     1       5.264   5.729  15.717  0.00  0.00    +0.000 C 
ATOM      7  C   UNL     1       4.704   5.485  17.127  0.00  0.00    +0.000 C 
ATOM      8  C   UNL     1       5.868   5.117  18.059  0.00  0.00    +0.000 C 
ATOM      9  C   UNL     1       3.964   6.746  17.574  0.00  0.00    +0.000 C 
ATOM     10  C   UNL     1       3.207   6.533  18.889  0.00  0.00    +0.000 C 
ATOM     11  C   UNL     1       2.524   5.186  18.909  0.00  0.00    +0.000 A 
ATOM     12  C   UNL     1       1.564   4.876  19.891  0.00  0.00    +0.000 A 
ATOM     13  C   UNL     1       0.898   3.651  19.877  0.00  0.00    +0.000 A 
ATOM     14  C   UNL     1       1.197   2.712  18.894  0.00  0.00    +0.000 A 
ATOM     15  C   UNL     1       2.180   2.990  17.945  0.00  0.00    +0.000 A 
ATOM     16  C   UNL     1       2.855   4.213  17.964  0.00  0.00    +0.000 A 
ATOM     17  O   UNL     1       3.814   4.366  17.002  0.00  0.00    +0.000 OA
ENDBRANCH   1  10
BRANCH   3  18
ATOM     18  C   UNL     1      -0.119  10.181  18.443  0.00  0.00    +0.000 A 
ATOM     19  N   UNL     1      -1.055   9.686  17.605  0.00  0.00    +0.000 NA
ATOM     20  C   UNL     1      -1.976  10.561  17.174  0.00  0.00    +0.000 A 
ATOM     21  C   UNL     1      -1.996  11.882  17.551  0.00  0.00    +0.000 A 
ATOM     22  C   UNL     1      -0.991  12.290  18.400  0.00  0.00    +0.000 A 
ATOM     23  N   UNL     1      -0.045  11.465  18.853  0.00  0.00    +0.000 NA
BRANCH  22  24
ATOM     24  N   UNL     1      -0.971  13.593  18.894  0.00  0.00    +0.000 N 
ATOM     25  H   UNL     1      -1.819  13.842  19.389  0.00  0.00    +0.000 HD
ATOM     26  H   UNL     1      -0.781  14.218  18.115  0.00  0.00    +0.000 HD
ENDBRANCH  22  24
ENDBRANCH   3  18
TORSDOF 3
ENDMDL
MODEL 7
REMARK VINA RESULT:      -8.1      1.518      3.567
REMARK  Name = 
REMARK  5 active torsions:
REMARK  status: ('A' for Active; 'I' for Inactive)
REMARK    1  A    between atoms: C_1  and  C_2
REMARK    2  A    between atoms: C_2  and  C_3
REMARK    3  A    between atoms: C_5  and  C_6
REMARK    4  A    between atoms: C_8  and  C_9
REMARK    5  A    between atoms: C_13  and  N_14
REMARK                            x       y       z     vdW  Elec       q    Type
REMARK                         _______ _______ _______ _____ _____    ______ ____
ROOT
ATOM      1  C   UNL     1       2.765   7.192  18.129  0.00  0.00    +0.000 A 
ATOM      2  N   UNL     1       2.157   7.623  19.208  0.00  0.00    +0.000 NA
ATOM      3  C   UNL     1       1.724   8.885  18.824  0.00  0.00    +0.000 A 
ATOM      4  N   UNL     1       2.040   9.199  17.553  0.00  0.00    +0.000 NA
ATOM      5  O   UNL     1       2.712   8.074  17.091  0.00  0.00    +0.000 OA
ENDROOT
BRANCH   1  10
ATOM      6  C   UNL     1       3.508   2.772  20.156  0.00  0.00    +0.000 C 
ATOM      7  C   UNL     1       3.956   3.660  18.985  0.00  0.00    +0.000 C 
ATOM      8  C   UNL     1       3.925   2.825  17.697  0.00  0.00    +0.000 C 
ATOM      9  C   UNL     1       3.032   4.878  18.926  0.00  0.00    +0.000 C 
ATOM     10  C   UNL     1       3.516   5.918  17.911  0.00  0.00    +0.000 C 
ATOM     11  C   UNL     1       5.016   6.087  17.983  0.00  0.00    +0.000 A 
ATOM     12  C   UNL     1       5.654   7.164  17.337  0.00  0.00    +0.000 A 
ATOM     13  C   UNL     1       7.033   7.346  17.448  0.00  0.00    +0.000 A 
ATOM     14  C   UNL     1       7.793   6.444  18.186  0.00  0.00    +0.000 A 
ATOM     15  C   UNL     1       7.177   5.348  18.789  0.00  0.00    +0.000 A 
ATOM     16  C   UNL     1       5.799   5.159  18.672  0.00  0.00    +0.000 A 
ATOM     17  O   UNL     1       5.308   4.038  19.283  0.00  0.00    +0.000 OA
ENDBRANCH   1  10
BRANCH   3  18
ATOM     18  C   UNL     1       1.034   9.796  19.744  0.00  0.00    +0.000 A 
ATOM     19  N   UNL     1       0.488   9.256  20.855  0.00  0.00    +0.000 NA
ATOM     20  C   UNL     1      -0.063  10.122  21.717  0.00  0.00    +0.000 A 
ATOM     21  C   UNL     1      -0.080  11.482  21.514  0.00  0.00    +0.000 A 
ATOM     22  C   UNL     1       0.492  11.932  20.345  0.00  0.00    +0.000 A 
ATOM     23  N   UNL     1       1.048  11.114  19.448  0.00  0.00    +0.000 NA
BRANCH  22  24
ATOM     24  N   UNL     1       0.587  13.297  20.086  0.00  0.00    +0.000 N 
ATOM     25  H   UNL     1      -0.110  13.843  20.578  0.00  0.00    +0.000 HD
ATOM     26  H   UNL     1       0.538  13.427  19.078  0.00  0.00    +0.000 HD
ENDBRANCH  22  24
ENDBRANCH   3  18
TORSDOF 3
ENDMDL
MODEL 8
REMARK VINA RESULT:      -8.1      1.895      3.715
REMARK  Name = 
REMARK  5 active torsions:
REMARK  status: ('A' for Active; 'I' for Inactive)
REMARK    1  A    between atoms: C_1  and  C_2
REMARK    2  A    between atoms: C_2  and  C_3
REMARK    3  A    between atoms: C_5  and  C_6
REMARK    4  A    between atoms: C_8  and  C_9
REMARK    5  A    between atoms: C_13  and  N_14
REMARK                            x       y       z     vdW  Elec       q    Type
REMARK                         _______ _______ _______ _____ _____    ______ ____
ROOT
ATOM      1  C   UNL     1       2.155   7.401  18.648  0.00  0.00    +0.000 A 
ATOM      2  N   UNL     1       1.786   8.491  18.018  0.00  0.00    +0.000 NA
ATOM      3  C   UNL     1       1.371   9.312  19.058  0.00  0.00    +0.000 A 
ATOM      4  N   UNL     1       1.503   8.750  20.274  0.00  0.00    +0.000 NA
ATOM      5  O   UNL     1       2.036   7.495  20.003  0.00  0.00    +0.000 OA
ENDROOT
BRANCH   1  10
ATOM      6  C   UNL     1       2.424   2.612  19.738  0.00  0.00    +0.000 C 
ATOM      7  C   UNL     1       2.838   3.639  18.672  0.00  0.00    +0.000 C 
ATOM      8  C   UNL     1       2.471   3.083  17.289  0.00  0.00    +0.000 C 
ATOM      9  C   UNL     1       2.138   4.962  18.984  0.00  0.00    +0.000 C 
ATOM     10  C   UNL     1       2.636   6.101  18.089  0.00  0.00    +0.000 C 
ATOM     11  C   UNL     1       4.135   6.039  17.919  0.00  0.00    +0.000 A 
ATOM     12  C   UNL     1       4.845   7.120  17.361  0.00  0.00    +0.000 A 
ATOM     13  C   UNL     1       6.235   7.082  17.252  0.00  0.00    +0.000 A 
ATOM     14  C   UNL     1       6.932   5.956  17.681  0.00  0.00    +0.000 A 
ATOM     15  C   UNL     1       6.234   4.861  18.190  0.00  0.00    +0.000 A 
ATOM     16  C   UNL     1       4.842   4.894  18.292  0.00  0.00    +0.000 A 
ATOM     17  O   UNL     1       4.264   3.757  18.783  0.00  0.00    +0.000 OA
ENDBRANCH   1  10
BRANCH   3  18
ATOM     18  C   UNL     1       0.800  10.645  18.830  0.00  0.00    +0.000 A 
ATOM     19  N   UNL     1       1.635  11.701  18.935  0.00  0.00    +0.000 NA
ATOM     20  C   UNL     1       1.105  12.897  18.641  0.00  0.00    +0.000 A 
ATOM     21  C   UNL     1      -0.201  13.068  18.247  0.00  0.00    +0.000 A 
ATOM     22  C   UNL     1      -0.973  11.929  18.183  0.00  0.00    +0.000 A 
ATOM     23  N   UNL     1      -0.500  10.715  18.472  0.00  0.00    +0.000 NA
BRANCH  22  24
ATOM     24  N   UNL     1      -2.287  11.993  17.724  0.00  0.00    +0.000 N 
ATOM     25  H   UNL     1      -2.376  12.487  16.844  0.00  0.00    +0.000 HD
ATOM     26  H   UNL     1      -2.853  12.410  18.460  0.00  0.00    +0.000 HD
ENDBRANCH  22  24
ENDBRANCH   3  18
TORSDOF 3
ENDMDL
MODEL 9
REMARK VINA RESULT:      -8.0      1.910      3.886
REMARK  Name = 
REMARK  5 active torsions:
REMARK  status: ('A' for Active; 'I' for Inactive)
REMARK    1  A    between atoms: C_1  and  C_2
REMARK    2  A    between atoms: C_2  and  C_3
REMARK    3  A    between atoms: C_5  and  C_6
REMARK    4  A    between atoms: C_8  and  C_9
REMARK    5  A    between atoms: C_13  and  N_14
REMARK                            x       y       z     vdW  Elec       q    Type
REMARK                         _______ _______ _______ _____ _____    ______ ____
ROOT
ATOM      1  C   UNL     1       2.599   6.815  19.005  0.00  0.00    +0.000 A 
ATOM      2  N   UNL     1       2.364   7.954  18.400  0.00  0.00    +0.000 NA
ATOM      3  C   UNL     1       1.656   8.663  19.361  0.00  0.00    +0.000 A 
ATOM      4  N   UNL     1       1.487   7.987  20.513  0.00  0.00    +0.000 NA
ATOM      5  O   UNL     1       2.124   6.774  20.283  0.00  0.00    +0.000 OA
ENDROOT
BRANCH   1  10
ATOM      6  C   UNL     1       3.899   2.269  20.364  0.00  0.00    +0.000 C 
ATOM      7  C   UNL     1       3.997   3.260  19.194  0.00  0.00    +0.000 C 
ATOM      8  C   UNL     1       3.608   2.530  17.900  0.00  0.00    +0.000 C 
ATOM      9  C   UNL     1       3.088   4.452  19.498  0.00  0.00    +0.000 C 
ATOM     10  C   UNL     1       3.264   5.583  18.479  0.00  0.00    +0.000 C 
ATOM     11  C   UNL     1       4.722   5.787  18.143  0.00  0.00    +0.000 A 
ATOM     12  C   UNL     1       5.149   6.929  17.438  0.00  0.00    +0.000 A 
ATOM     13  C   UNL     1       6.503   7.140  17.174  0.00  0.00    +0.000 A 
ATOM     14  C   UNL     1       7.444   6.203  17.591  0.00  0.00    +0.000 A 
ATOM     15  C   UNL     1       7.026   5.046  18.247  0.00  0.00    +0.000 A 
ATOM     16  C   UNL     1       5.671   4.829  18.505  0.00  0.00    +0.000 A 
ATOM     17  O   UNL     1       5.377   3.650  19.132  0.00  0.00    +0.000 OA
ENDBRANCH   1  10
BRANCH   3  18
ATOM     18  C   UNL     1       1.110  10.002  19.110  0.00  0.00    +0.000 A 
ATOM     19  N   UNL     1      -0.095  10.288  19.648  0.00  0.00    +0.000 NA
ATOM     20  C   UNL     1      -0.531  11.544  19.472  0.00  0.00    +0.000 A 
ATOM     21  C   UNL     1       0.186  12.504  18.798  0.00  0.00    +0.000 A 
ATOM     22  C   UNL     1       1.397  12.109  18.277  0.00  0.00    +0.000 A 
ATOM     23  N   UNL     1       1.876  10.870  18.415  0.00  0.00    +0.000 NA
BRANCH  22  24
ATOM     24  N   UNL     1       2.226  13.030  17.642  0.00  0.00    +0.000 N 
ATOM     25  H   UNL     1       1.792  13.937  17.521  0.00  0.00    +0.000 HD
ATOM     26  H   UNL     1       2.522  12.624  16.757  0.00  0.00    +0.000 HD
ENDBRANCH  22  24
ENDBRANCH   3  18
TORSDOF 3
ENDMDL
