MODEL 1
REMARK VINA RESULT:      -8.2      0.000      0.000
REMARK  Name = 
REMARK  3 active torsions:
REMARK  status: ('A' for Active; 'I' for Inactive)
REMARK    1  A    between atoms: C_2  and  C_3
REMARK    2  A    between atoms: C_16  and  C_17
REMARK    3  A    between atoms: C_23  and  C_24
REMARK                            x       y       z     vdW  Elec       q    Type
REMARK                         _______ _______ _______ _____ _____    ______ ____
ROOT
ATOM      1  O   UNL     1       2.474  10.715  17.586  0.00  0.00    +0.000 OA
ATOM      2  C   UNL     1       1.728  11.025  18.515  0.00  0.00    +0.000 C 
ATOM      3  N   UNL     1       1.143  10.023  19.312  0.00  0.00    +0.000 N 
ATOM      4  C   UNL     1       0.385  10.231  20.545  0.00  0.00    +0.000 C 
ATOM      5  C   UNL     1       1.063   9.561  21.728  0.00  0.00    +0.000 C 
ATOM      6  C   UNL     1       1.290   8.086  21.458  0.00  0.00    +0.000 C 
ATOM      7  C   UNL     1       2.038   7.856  20.129  0.00  0.00    +0.000 C 
ATOM      8  C   UNL     1       1.360   8.614  18.972  0.00  0.00    +0.000 C 
ENDROOT
BRANCH   2   9
ATOM      9  C   UNL     1       1.441  12.420  18.846  0.00  0.00    +0.000 A 
ATOM     10  C   UNL     1       2.203  13.346  19.540  0.00  0.00    +0.000 A 
ATOM     11  C   UNL     1       1.670  14.659  19.466  0.00  0.00    +0.000 A 
ATOM     12  C   UNL     1       0.402  14.654  18.924  0.00  0.00    +0.000 A 
ATOM     13  S   UNL     1      -0.063  13.109  18.381  0.00  0.00    +0.000 S 
ATOM     14  C   UNL     1      -0.506  15.844  18.861  0.00  0.00    +0.000 C 
ATOM     15  C   UNL     1       0.271  17.145  19.141  0.00  0.00    +0.000 C 
ATOM     16  C   UNL     1       1.305  16.987  20.268  0.00  0.00    +0.000 C 
ATOM     17  C   UNL     1       2.342  15.914  19.921  0.00  0.00    +0.000 C 
ENDBRANCH   2   9
BRANCH   7  18
ATOM     18  C   UNL     1       2.105   6.390  19.838  0.00  0.00    +0.000 A 
ATOM     19  N   UNL     1       1.441   5.444  20.474  0.00  0.00    +0.000 NA
ATOM     20  N   UNL     1       1.771   4.231  19.925  0.00  0.00    +0.000 NA
ATOM     21  C   UNL     1       2.623   4.455  18.950  0.00  0.00    +0.000 A 
ATOM     22  C   UNL     1       3.278   3.595  18.035  0.00  0.00    +0.000 A 
ATOM     23  C   UNL     1       4.108   4.111  17.109  0.00  0.00    +0.000 A 
ATOM     24  C   UNL     1       4.365   5.560  17.022  0.00  0.00    +0.000 A 
ATOM     25  C   UNL     1       3.735   6.366  17.905  0.00  0.00    +0.000 A 
ATOM     26  N   UNL     1       2.876   5.813  18.851  0.00  0.00    +0.000 N 
BRANCH  24  27
ATOM     27  C   UNL     1       5.290   6.078  15.959  0.00  0.00    +0.000 C 
ATOM     28  F   UNL     1       4.760   7.102  15.241  0.00  0.00    +0.000 F 
ATOM     29  F   UNL     1       6.451   6.533  16.493  0.00  0.00    +0.000 F 
ATOM     30  F   UNL     1       5.616   5.104  15.072  0.00  0.00    +0.000 F 
ENDBRANCH  24  27
ENDBRANCH   7  18
TORSDOF 3
ENDMDL
MODEL 2
REMARK VINA RESULT:      -8.1      0.705      1.337
REMARK  Name = 
REMARK  3 active torsions:
REMARK  status: ('A' for Active; 'I' for Inactive)
REMARK    1  A    between atoms: C_2  and  C_3
REMARK    2  A    between atoms: C_16  and  C_17
REMARK    3  A    between atoms: C_23  and  C_24
REMARK                            x       y       z     vdW  Elec       q    Type
REMARK                         _______ _______ _______ _____ _____    ______ ____
ROOT
ATOM      1  O   UNL     1       2.575  10.464  17.436  0.00  0.00    +0.000 OA
ATOM      2  C   UNL     1       1.759  10.774  18.305  0.00  0.00    +0.000 C 
ATOM      3  N   UNL     1       1.159   9.775  19.094  0.00  0.00    +0.000 N 
ATOM      4  C   UNL     1       0.316   9.991  20.269  0.00  0.00    +0.000 C 
ATOM      5  C   UNL     1       0.939   9.383  21.514  0.00  0.00    +0.000 C 
ATOM      6  C   UNL     1       1.236   7.910  21.307  0.00  0.00    +0.000 C 
ATOM      7  C   UNL     1       2.076   7.668  20.037  0.00  0.00    +0.000 C 
ATOM      8  C   UNL     1       1.448   8.365  18.815  0.00  0.00    +0.000 C 
ENDROOT
BRANCH   2   9
ATOM      9  C   UNL     1       1.402  12.166  18.572  0.00  0.00    +0.000 A 
ATOM     10  C   UNL     1       0.160  12.743  18.783  0.00  0.00    +0.000 A 
ATOM     11  C   UNL     1       0.249  14.089  19.223  0.00  0.00    +0.000 A 
ATOM     12  C   UNL     1       1.537  14.569  19.106  0.00  0.00    +0.000 A 
ATOM     13  S   UNL     1       2.635  13.364  18.617  0.00  0.00    +0.000 S 
ATOM     14  C   UNL     1       1.941  15.995  19.322  0.00  0.00    +0.000 C 
ATOM     15  C   UNL     1       0.824  16.782  20.035  0.00  0.00    +0.000 C 
ATOM     16  C   UNL     1      -0.579  16.418  19.521  0.00  0.00    +0.000 C 
ATOM     17  C   UNL     1      -0.876  14.929  19.733  0.00  0.00    +0.000 C 
ENDBRANCH   2   9
BRANCH   7  18
ATOM     18  C   UNL     1       2.214   6.198  19.799  0.00  0.00    +0.000 A 
ATOM     19  N   UNL     1       1.618   5.244  20.487  0.00  0.00    +0.000 NA
ATOM     20  N   UNL     1       1.999   4.030  19.974  0.00  0.00    +0.000 NA
ATOM     21  C   UNL     1       2.811   4.261  18.969  0.00  0.00    +0.000 A 
ATOM     22  C   UNL     1       3.488   3.401  18.068  0.00  0.00    +0.000 A 
ATOM     23  C   UNL     1       4.264   3.925  17.100  0.00  0.00    +0.000 A 
ATOM     24  C   UNL     1       4.441   5.381  16.953  0.00  0.00    +0.000 A 
ATOM     25  C   UNL     1       3.792   6.186  17.823  0.00  0.00    +0.000 A 
ATOM     26  N   UNL     1       2.989   5.626  18.812  0.00  0.00    +0.000 N 
BRANCH  24  27
ATOM     27  C   UNL     1       5.309   5.906  15.846  0.00  0.00    +0.000 C 
ATOM     28  F   UNL     1       5.429   5.042  14.805  0.00  0.00    +0.000 F 
ATOM     29  F   UNL     1       4.818   7.064  15.339  0.00  0.00    +0.000 F 
ATOM     30  F   UNL     1       6.566   6.167  16.286  0.00  0.00    +0.000 F 
ENDBRANCH  24  27
ENDBRANCH   7  18
TORSDOF 3
ENDMDL
MODEL 3
REMARK VINA RESULT:      -8.0      3.984      4.874
REMARK  Name = 
REMARK  3 active torsions:
REMARK  status: ('A' for Active; 'I' for Inactive)
REMARK    1  A    between atoms: C_2  and  C_3
REMARK    2  A    between atoms: C_16  and  C_17
REMARK    3  A    between atoms: C_23  and  C_24
REMARK                            x       y       z     vdW  Elec       q    Type
REMARK                         _______ _______ _______ _____ _____    ______ ____
ROOT
ATOM      1  O   UNL     1       0.794  10.018  22.759  0.00  0.00    +0.000 OA
ATOM      2  C   UNL     1       0.211  10.773  21.980  0.00  0.00    +0.000 C 
ATOM      3  N   UNL     1       0.516  10.740  20.607  0.00  0.00    +0.000 N 
ATOM      4  C   UNL     1      -0.204  11.440  19.544  0.00  0.00    +0.000 C 
ATOM      5  C   UNL     1      -0.805  10.463  18.549  0.00  0.00    +0.000 C 
ATOM      6  C   UNL     1       0.261   9.541  17.984  0.00  0.00    +0.000 C 
ATOM      7  C   UNL     1       1.063   8.843  19.100  0.00  0.00    +0.000 C 
ATOM      8  C   UNL     1       1.589   9.864  20.128  0.00  0.00    +0.000 C 
ENDROOT
BRANCH   2   9
ATOM      9  C   UNL     1      -0.823  11.703  22.431  0.00  0.00    +0.000 A 
ATOM     10  C   UNL     1      -2.097  11.453  22.914  0.00  0.00    +0.000 A 
ATOM     11  C   UNL     1      -2.716  12.612  23.451  0.00  0.00    +0.000 A 
ATOM     12  C   UNL     1      -1.998  13.749  23.148  0.00  0.00    +0.000 A 
ATOM     13  S   UNL     1      -0.529  13.396  22.362  0.00  0.00    +0.000 S 
ATOM     14  C   UNL     1      -2.459  15.149  23.416  0.00  0.00    +0.000 C 
ATOM     15  C   UNL     1      -3.655  15.158  24.386  0.00  0.00    +0.000 C 
ATOM     16  C   UNL     1      -4.658  14.027  24.103  0.00  0.00    +0.000 C 
ATOM     17  C   UNL     1      -3.991  12.653  24.229  0.00  0.00    +0.000 C 
ENDBRANCH   2   9
BRANCH   7  18
ATOM     18  C   UNL     1       2.190   8.066  18.498  0.00  0.00    +0.000 A 
ATOM     19  N   UNL     1       3.010   8.496  17.558  0.00  0.00    +0.000 NA
ATOM     20  N   UNL     1       3.902   7.496  17.263  0.00  0.00    +0.000 NA
ATOM     21  C   UNL     1       3.623   6.474  18.039  0.00  0.00    +0.000 A 
ATOM     22  C   UNL     1       4.215   5.195  18.187  0.00  0.00    +0.000 A 
ATOM     23  C   UNL     1       3.720   4.330  19.092  0.00  0.00    +0.000 A 
ATOM     24  C   UNL     1       2.563   4.673  19.939  0.00  0.00    +0.000 A 
ATOM     25  C   UNL     1       2.008   5.895  19.782  0.00  0.00    +0.000 A 
ATOM     26  N   UNL     1       2.538   6.778  18.845  0.00  0.00    +0.000 N 
BRANCH  24  27
ATOM     27  C   UNL     1       2.064   3.672  20.940  0.00  0.00    +0.000 C 
ATOM     28  F   UNL     1       2.399   3.982  22.219  0.00  0.00    +0.000 F 
ATOM     29  F   UNL     1       0.712   3.567  20.903  0.00  0.00    +0.000 F 
ATOM     30  F   UNL     1       2.565   2.435  20.692  0.00  0.00    +0.000 F 
ENDBRANCH  24  27
ENDBRANCH   7  18
TORSDOF 3
ENDMDL
MODEL 4
REMARK VINA RESULT:      -8.0      3.699      4.639
REMARK  Name = 
REMARK  3 active torsions:
REMARK  status: ('A' for Active; 'I' for Inactive)
REMARK    1  A    between atoms: C_2  and  C_3
REMARK    2  A    between atoms: C_16  and  C_17
REMARK    3  A    between atoms: C_23  and  C_24
REMARK                            x       y       z     vdW  Elec       q    Type
REMARK                         _______ _______ _______ _____ _____    ______ ____
ROOT
ATOM      1  O   UNL     1      -0.175   8.166  21.498  0.00  0.00    +0.000 OA
ATOM      2  C   UNL     1       0.058   9.298  21.072  0.00  0.00    +0.000 C 
ATOM      3  N   UNL     1       1.133   9.511  20.190  0.00  0.00    +0.000 N 
ATOM      4  C   UNL     1       1.428  10.748  19.468  0.00  0.00    +0.000 C 
ATOM      5  C   UNL     1       1.368  10.536  17.965  0.00  0.00    +0.000 C 
ATOM      6  C   UNL     1       2.292   9.410  17.539  0.00  0.00    +0.000 C 
ATOM      7  C   UNL     1       2.026   8.118  18.337  0.00  0.00    +0.000 C 
ATOM      8  C   UNL     1       2.021   8.394  19.854  0.00  0.00    +0.000 C 
ENDROOT
BRANCH   2   9
ATOM      9  C   UNL     1      -0.770  10.447  21.434  0.00  0.00    +0.000 A 
ATOM     10  C   UNL     1      -1.374  11.400  20.629  0.00  0.00    +0.000 A 
ATOM     11  C   UNL     1      -2.274  12.231  21.346  0.00  0.00    +0.000 A 
ATOM     12  C   UNL     1      -2.152  12.044  22.706  0.00  0.00    +0.000 A 
ATOM     13  S   UNL     1      -1.078  10.781  23.093  0.00  0.00    +0.000 S 
ATOM     14  C   UNL     1      -2.830  12.880  23.749  0.00  0.00    +0.000 C 
ATOM     15  C   UNL     1      -3.951  13.734  23.126  0.00  0.00    +0.000 C 
ATOM     16  C   UNL     1      -3.560  14.322  21.760  0.00  0.00    +0.000 C 
ATOM     17  C   UNL     1      -3.232  13.213  20.754  0.00  0.00    +0.000 C 
ENDBRANCH   2   9
BRANCH   7  18
ATOM     18  C   UNL     1       3.054   7.091  17.986  0.00  0.00    +0.000 A 
ATOM     19  N   UNL     1       4.221   7.327  17.418  0.00  0.00    +0.000 NA
ATOM     20  N   UNL     1       4.877   6.134  17.251  0.00  0.00    +0.000 NA
ATOM     21  C   UNL     1       4.107   5.186  17.733  0.00  0.00    +0.000 A 
ATOM     22  C   UNL     1       4.272   3.783  17.848  0.00  0.00    +0.000 A 
ATOM     23  C   UNL     1       3.302   3.040  18.412  0.00  0.00    +0.000 A 
ATOM     24  C   UNL     1       2.056   3.646  18.914  0.00  0.00    +0.000 A 
ATOM     25  C   UNL     1       1.912   4.984  18.794  0.00  0.00    +0.000 A 
ATOM     26  N   UNL     1       2.929   5.736  18.213  0.00  0.00    +0.000 N 
BRANCH  24  27
ATOM     27  C   UNL     1       1.015   2.766  19.546  0.00  0.00    +0.000 C 
ATOM     28  F   UNL     1       0.182   3.439  20.381  0.00  0.00    +0.000 F 
ATOM     29  F   UNL     1       0.235   2.171  18.609  0.00  0.00    +0.000 F 
ATOM     30  F   UNL     1       1.586   1.775  20.276  0.00  0.00    +0.000 F 
ENDBRANCH  24  27
ENDBRANCH   7  18
TORSDOF 3
ENDMDL
MODEL 5
REMARK VINA RESULT:      -8.0      4.580      9.084
REMARK  Name = 
REMARK  3 active torsions:
REMARK  status: ('A' for Active; 'I' for Inactive)
REMARK    1  A    between atoms: C_2  and  C_3
REMARK    2  A    between atoms: C_16  and  C_17
REMARK    3  A    between atoms: C_23  and  C_24
REMARK                            x       y       z     vdW  Elec       q    Type
REMARK                         _______ _______ _______ _____ _____    ______ ____
ROOT
ATOM      1  O   UNL     1       1.694   7.406  20.729  0.00  0.00    +0.000 OA
ATOM      2  C   UNL     1       1.864   7.764  19.562  0.00  0.00    +0.000 C 
ATOM      3  N   UNL     1       1.268   8.950  19.096  0.00  0.00    +0.000 N 
ATOM      4  C   UNL     1       1.514   9.593  17.806  0.00  0.00    +0.000 C 
ATOM      5  C   UNL     1       2.099  10.983  17.987  0.00  0.00    +0.000 C 
ATOM      6  C   UNL     1       1.207  11.835  18.871  0.00  0.00    +0.000 C 
ATOM      7  C   UNL     1       0.895  11.138  20.210  0.00  0.00    +0.000 C 
ATOM      8  C   UNL     1       0.377   9.705  19.982  0.00  0.00    +0.000 C 
ENDROOT
BRANCH   2   9
ATOM      9  C   UNL     1       2.699   7.004  18.633  0.00  0.00    +0.000 A 
ATOM     10  C   UNL     1       3.673   7.439  17.750  0.00  0.00    +0.000 A 
ATOM     11  C   UNL     1       4.409   6.370  17.176  0.00  0.00    +0.000 A 
ATOM     12  C   UNL     1       3.821   5.153  17.453  0.00  0.00    +0.000 A 
ATOM     13  S   UNL     1       2.496   5.301  18.511  0.00  0.00    +0.000 S 
ATOM     14  C   UNL     1       4.244   3.844  16.859  0.00  0.00    +0.000 C 
ATOM     15  C   UNL     1       5.626   3.964  16.189  0.00  0.00    +0.000 C 
ATOM     16  C   UNL     1       5.800   5.284  15.420  0.00  0.00    +0.000 C 
ATOM     17  C   UNL     1       5.650   6.491  16.352  0.00  0.00    +0.000 C 
ENDBRANCH   2   9
BRANCH   7  18
ATOM     18  C   UNL     1      -0.101  11.948  20.978  0.00  0.00    +0.000 A 
ATOM     19  N   UNL     1       0.125  12.574  22.116  0.00  0.00    +0.000 NA
ATOM     20  N   UNL     1      -1.031  13.199  22.510  0.00  0.00    +0.000 NA
ATOM     21  C   UNL     1      -1.944  12.957  21.598  0.00  0.00    +0.000 A 
ATOM     22  C   UNL     1      -3.297  13.356  21.468  0.00  0.00    +0.000 A 
ATOM     23  C   UNL     1      -4.010  12.963  20.396  0.00  0.00    +0.000 A 
ATOM     24  C   UNL     1      -3.422  12.114  19.344  0.00  0.00    +0.000 A 
ATOM     25  C   UNL     1      -2.132  11.739  19.486  0.00  0.00    +0.000 A 
ATOM     26  N   UNL     1      -1.410  12.161  20.598  0.00  0.00    +0.000 N 
BRANCH  24  27
ATOM     27  C   UNL     1      -4.263  11.719  18.164  0.00  0.00    +0.000 C 
ATOM     28  F   UNL     1      -3.577  11.723  16.993  0.00  0.00    +0.000 F 
ATOM     29  F   UNL     1      -4.772  10.471  18.316  0.00  0.00    +0.000 F 
ATOM     30  F   UNL     1      -5.316  12.560  18.006  0.00  0.00    +0.000 F 
ENDBRANCH  24  27
ENDBRANCH   7  18
TORSDOF 3
ENDMDL
MODEL 6
REMARK VINA RESULT:      -7.8      3.563      4.419
REMARK  Name = 
REMARK  3 active torsions:
REMARK  status: ('A' for Active; 'I' for Inactive)
REMARK    1  A    between atoms: C_2  and  C_3
REMARK    2  A    between atoms: C_16  and  C_17
REMARK    3  A    between atoms: C_23  and  C_24
REMARK                            x       y       z     vdW  Elec       q    Type
REMARK                         _______ _______ _______ _____ _____    ______ ____
ROOT
ATOM      1  O   UNL     1      -0.151   8.183  21.490  0.00  0.00    +0.000 OA
ATOM      2  C   UNL     1       0.085   9.315  21.065  0.00  0.00    +0.000 C 
ATOM      3  N   UNL     1       1.154   9.524  20.174  0.00  0.00    +0.000 N 
ATOM      4  C   UNL     1       1.450  10.760  19.452  0.00  0.00    +0.000 C 
ATOM      5  C   UNL     1       1.375  10.552  17.949  0.00  0.00    +0.000 C 
ATOM      6  C   UNL     1       2.289   9.422  17.513  0.00  0.00    +0.000 C 
ATOM      7  C   UNL     1       2.022   8.130  18.311  0.00  0.00    +0.000 C 
ATOM      8  C   UNL     1       2.032   8.402  19.828  0.00  0.00    +0.000 C 
ENDROOT
BRANCH   2   9
ATOM      9  C   UNL     1      -0.734  10.468  21.436  0.00  0.00    +0.000 A 
ATOM     10  C   UNL     1      -0.921  11.068  22.671  0.00  0.00    +0.000 A 
ATOM     11  C   UNL     1      -1.624  12.298  22.582  0.00  0.00    +0.000 A 
ATOM     12  C   UNL     1      -2.156  12.479  21.323  0.00  0.00    +0.000 A 
ATOM     13  S   UNL     1      -1.682  11.256  20.237  0.00  0.00    +0.000 S 
ATOM     14  C   UNL     1      -3.093  13.584  20.941  0.00  0.00    +0.000 C 
ATOM     15  C   UNL     1      -3.107  14.689  22.014  0.00  0.00    +0.000 C 
ATOM     16  C   UNL     1      -3.075  14.127  23.445  0.00  0.00    +0.000 C 
ATOM     17  C   UNL     1      -1.812  13.291  23.682  0.00  0.00    +0.000 C 
ENDBRANCH   2   9
BRANCH   7  18
ATOM     18  C   UNL     1       3.042   7.098  17.949  0.00  0.00    +0.000 A 
ATOM     19  N   UNL     1       4.205   7.329  17.371  0.00  0.00    +0.000 NA
ATOM     20  N   UNL     1       4.853   6.132  17.196  0.00  0.00    +0.000 NA
ATOM     21  C   UNL     1       4.082   5.188  17.683  0.00  0.00    +0.000 A 
ATOM     22  C   UNL     1       4.241   3.784  17.793  0.00  0.00    +0.000 A 
ATOM     23  C   UNL     1       3.271   3.044  18.365  0.00  0.00    +0.000 A 
ATOM     24  C   UNL     1       2.033   3.656  18.879  0.00  0.00    +0.000 A 
ATOM     25  C   UNL     1       1.896   4.995  18.762  0.00  0.00    +0.000 A 
ATOM     26  N   UNL     1       2.912   5.743  18.174  0.00  0.00    +0.000 N 
BRANCH  24  27
ATOM     27  C   UNL     1       0.993   2.781  19.518  0.00  0.00    +0.000 C 
ATOM     28  F   UNL     1       0.174   2.179  18.618  0.00  0.00    +0.000 F 
ATOM     29  F   UNL     1       1.562   1.793  20.253  0.00  0.00    +0.000 F 
ATOM     30  F   UNL     1       0.199   3.492  20.357  0.00  0.00    +0.000 F 
ENDBRANCH  24  27
ENDBRANCH   7  18
TORSDOF 3
ENDMDL
MODEL 7
REMARK VINA RESULT:      -7.8      1.316      1.492
REMARK  Name = 
REMARK  3 active torsions:
REMARK  status: ('A' for Active; 'I' for Inactive)
REMARK    1  A    between atoms: C_2  and  C_3
REMARK    2  A    between atoms: C_16  and  C_17
REMARK    3  A    between atoms: C_23  and  C_24
REMARK                            x       y       z     vdW  Elec       q    Type
REMARK                         _______ _______ _______ _____ _____    ______ ____
ROOT
ATOM      1  O   UNL     1       2.463  10.882  17.602  0.00  0.00    +0.000 OA
ATOM      2  C   UNL     1       1.706  10.888  18.573  0.00  0.00    +0.000 C 
ATOM      3  N   UNL     1       1.205   9.675  19.082  0.00  0.00    +0.000 N 
ATOM      4  C   UNL     1       0.447   9.505  20.321  0.00  0.00    +0.000 C 
ATOM      5  C   UNL     1       1.186   8.609  21.300  0.00  0.00    +0.000 C 
ATOM      6  C   UNL     1       1.521   7.272  20.665  0.00  0.00    +0.000 C 
ATOM      7  C   UNL     1       2.270   7.445  19.329  0.00  0.00    +0.000 C 
ATOM      8  C   UNL     1       1.524   8.420  18.396  0.00  0.00    +0.000 C 
ENDROOT
BRANCH   2   9
ATOM      9  C   UNL     1       1.318  12.127  19.246  0.00  0.00    +0.000 A 
ATOM     10  C   UNL     1       1.880  12.758  20.344  0.00  0.00    +0.000 A 
ATOM     11  C   UNL     1       1.347  14.055  20.561  0.00  0.00    +0.000 A 
ATOM     12  C   UNL     1       0.237  14.278  19.775  0.00  0.00    +0.000 A 
ATOM     13  S   UNL     1      -0.056  12.999  18.691  0.00  0.00    +0.000 S 
ATOM     14  C   UNL     1      -0.660  15.474  19.880  0.00  0.00    +0.000 C 
ATOM     15  C   UNL     1       0.002  16.587  20.716  0.00  0.00    +0.000 C 
ATOM     16  C   UNL     1       0.754  16.041  21.941  0.00  0.00    +0.000 C 
ATOM     17  C   UNL     1       1.868  15.076  21.521  0.00  0.00    +0.000 C 
ENDBRANCH   2   9
BRANCH   7  18
ATOM     18  C   UNL     1       2.444   6.111  18.675  0.00  0.00    +0.000 A 
ATOM     19  N   UNL     1       1.515   5.182  18.556  0.00  0.00    +0.000 NA
ATOM     20  N   UNL     1       2.057   4.102  17.906  0.00  0.00    +0.000 NA
ATOM     21  C   UNL     1       3.306   4.393  17.624  0.00  0.00    +0.000 A 
ATOM     22  C   UNL     1       4.329   3.677  16.954  0.00  0.00    +0.000 A 
ATOM     23  C   UNL     1       5.542   4.239  16.791  0.00  0.00    +0.000 A 
ATOM     24  C   UNL     1       5.844   5.588  17.301  0.00  0.00    +0.000 A 
ATOM     25  C   UNL     1       4.859   6.256  17.941  0.00  0.00    +0.000 A 
ATOM     26  N   UNL     1       3.610   5.661  18.094  0.00  0.00    +0.000 N 
BRANCH  24  27
ATOM     27  C   UNL     1       7.212   6.167  17.076  0.00  0.00    +0.000 C 
ATOM     28  F   UNL     1       7.228   7.525  17.104  0.00  0.00    +0.000 F 
ATOM     29  F   UNL     1       8.088   5.745  18.021  0.00  0.00    +0.000 F 
ATOM     30  F   UNL     1       7.714   5.793  15.873  0.00  0.00    +0.000 F 
ENDBRANCH  24  27
ENDBRANCH   7  18
TORSDOF 3
ENDMDL
MODEL 8
REMARK VINA RESULT:      -7.7      3.041      3.782
REMARK  Name = 
REMARK  3 active torsions:
REMARK  status: ('A' for Active; 'I' for Inactive)
REMARK    1  A    between atoms: C_2  and  C_3
REMARK    2  A    between atoms: C_16  and  C_17
REMARK    3  A    between atoms: C_23  and  C_24
REMARK                            x       y       z     vdW  Elec       q    Type
REMARK                         _______ _______ _______ _____ _____    ______ ____
ROOT
ATOM      1  O   UNL     1       2.272  11.550  17.727  0.00  0.00    +0.000 OA
ATOM      2  C   UNL     1       1.474  11.162  18.582  0.00  0.00    +0.000 C 
ATOM      3  N   UNL     1       1.306   9.785  18.815  0.00  0.00    +0.000 N 
ATOM      4  C   UNL     1       0.538   9.178  19.901  0.00  0.00    +0.000 C 
ATOM      5  C   UNL     1       1.427   8.340  20.803  0.00  0.00    +0.000 C 
ATOM      6  C   UNL     1       2.178   7.292  20.002  0.00  0.00    +0.000 C 
ATOM      7  C   UNL     1       2.943   7.918  18.819  0.00  0.00    +0.000 C 
ATOM      8  C   UNL     1       2.022   8.820  17.975  0.00  0.00    +0.000 C 
ENDROOT
BRANCH   2   9
ATOM      9  C   UNL     1       0.699  12.096  19.398  0.00  0.00    +0.000 A 
ATOM     10  C   UNL     1      -0.621  12.502  19.276  0.00  0.00    +0.000 A 
ATOM     11  C   UNL     1      -1.066  13.256  20.393  0.00  0.00    +0.000 A 
ATOM     12  C   UNL     1      -0.014  13.603  21.214  0.00  0.00    +0.000 A 
ATOM     13  S   UNL     1       1.454  12.898  20.717  0.00  0.00    +0.000 S 
ATOM     14  C   UNL     1      -0.111  14.537  22.381  0.00  0.00    +0.000 C 
ATOM     15  C   UNL     1      -1.582  14.779  22.771  0.00  0.00    +0.000 C 
ATOM     16  C   UNL     1      -2.503  14.928  21.549  0.00  0.00    +0.000 C 
ATOM     17  C   UNL     1      -2.474  13.668  20.677  0.00  0.00    +0.000 C 
ENDBRANCH   2   9
BRANCH   7  18
ATOM     18  C   UNL     1       3.541   6.834  17.979  0.00  0.00    +0.000 A 
ATOM     19  N   UNL     1       4.527   6.980  17.115  0.00  0.00    +0.000 NA
ATOM     20  N   UNL     1       4.788   5.763  16.537  0.00  0.00    +0.000 NA
ATOM     21  C   UNL     1       3.966   4.887  17.068  0.00  0.00    +0.000 A 
ATOM     22  C   UNL     1       3.796   3.494  16.873  0.00  0.00    +0.000 A 
ATOM     23  C   UNL     1       2.862   2.829  17.581  0.00  0.00    +0.000 A 
ATOM     24  C   UNL     1       1.997   3.516  18.557  0.00  0.00    +0.000 A 
ATOM     25  C   UNL     1       2.170   4.845  18.727  0.00  0.00    +0.000 A 
ATOM     26  N   UNL     1       3.145   5.513  17.991  0.00  0.00    +0.000 N 
BRANCH  24  27
ATOM     27  C   UNL     1       0.983   2.719  19.326  0.00  0.00    +0.000 C 
ATOM     28  F   UNL     1       0.137   2.018  18.528  0.00  0.00    +0.000 F 
ATOM     29  F   UNL     1       1.581   1.820  20.148  0.00  0.00    +0.000 F 
ATOM     30  F   UNL     1       0.215   3.520  20.106  0.00  0.00    +0.000 F 
ENDBRANCH  24  27
ENDBRANCH   7  18
TORSDOF 3
ENDMDL
MODEL 9
REMARK VINA RESULT:      -7.6      3.459      4.225
REMARK  Name = 
REMARK  3 active torsions:
REMARK  status: ('A' for Active; 'I' for Inactive)
REMARK    1  A    between atoms: C_2  and  C_3
REMARK    2  A    between atoms: C_16  and  C_17
REMARK    3  A    between atoms: C_23  and  C_24
REMARK                            x       y       z     vdW  Elec       q    Type
REMARK                         _______ _______ _______ _____ _____    ______ ____
ROOT
ATOM      1  O   UNL     1       0.961  11.618  18.362  0.00  0.00    +0.000 OA
ATOM      2  C   UNL     1       0.330  11.075  19.270  0.00  0.00    +0.000 C 
ATOM      3  N   UNL     1       0.442   9.688  19.474  0.00  0.00    +0.000 N 
ATOM      4  C   UNL     1      -0.097   8.933  20.604  0.00  0.00    +0.000 C 
ATOM      5  C   UNL     1       1.010   8.263  21.398  0.00  0.00    +0.000 C 
ATOM      6  C   UNL     1       1.866   7.386  20.502  0.00  0.00    +0.000 C 
ATOM      7  C   UNL     1       2.391   8.160  19.277  0.00  0.00    +0.000 C 
ATOM      8  C   UNL     1       1.245   8.886  18.545  0.00  0.00    +0.000 C 
ENDROOT
BRANCH   2   9
ATOM      9  C   UNL     1      -0.527  11.836  20.179  0.00  0.00    +0.000 A 
ATOM     10  C   UNL     1      -1.882  12.114  20.102  0.00  0.00    +0.000 A 
ATOM     11  C   UNL     1      -2.388  12.700  21.291  0.00  0.00    +0.000 A 
ATOM     12  C   UNL     1      -1.367  13.067  22.142  0.00  0.00    +0.000 A 
ATOM     13  S   UNL     1       0.159  12.572  21.573  0.00  0.00    +0.000 S 
ATOM     14  C   UNL     1      -1.546  13.862  23.399  0.00  0.00    +0.000 C 
ATOM     15  C   UNL     1      -3.029  13.909  23.815  0.00  0.00    +0.000 C 
ATOM     16  C   UNL     1      -3.975  14.087  22.616  0.00  0.00    +0.000 C 
ATOM     17  C   UNL     1      -3.827  12.933  21.619  0.00  0.00    +0.000 C 
ENDBRANCH   2   9
BRANCH   7  18
ATOM     18  C   UNL     1       3.099   7.220  18.355  0.00  0.00    +0.000 A 
ATOM     19  N   UNL     1       4.052   7.543  17.502  0.00  0.00    +0.000 NA
ATOM     20  N   UNL     1       4.444   6.412  16.832  0.00  0.00    +0.000 NA
ATOM     21  C   UNL     1       3.734   5.410  17.296  0.00  0.00    +0.000 A 
ATOM     22  C   UNL     1       3.723   4.025  16.996  0.00  0.00    +0.000 A 
ATOM     23  C   UNL     1       2.880   3.205  17.652  0.00  0.00    +0.000 A 
ATOM     24  C   UNL     1       1.953   3.711  18.681  0.00  0.00    +0.000 A 
ATOM     25  C   UNL     1       1.974   5.035  18.952  0.00  0.00    +0.000 A 
ATOM     26  N   UNL     1       2.857   5.864  18.267  0.00  0.00    +0.000 N 
BRANCH  24  27
ATOM     27  C   UNL     1       1.046   2.746  19.389  0.00  0.00    +0.000 C 
ATOM     28  F   UNL     1       0.275   3.336  20.338  0.00  0.00    +0.000 F 
ATOM     29  F   UNL     1       0.200   2.136  18.522  0.00  0.00    +0.000 F 
ATOM     30  F   UNL     1       1.753   1.769  20.008  0.00  0.00    +0.000 F 
ENDBRANCH  24  27
ENDBRANCH   7  18
TORSDOF 3
ENDMDL
