MODEL 1
REMARK VINA RESULT:      -8.2      0.000      0.000
REMARK  Name = 
REMARK  3 active torsions:
REMARK  status: ('A' for Active; 'I' for Inactive)
REMARK    1  A    between atoms: C_2  and  C_16
REMARK    2  A    between atoms: N_3  and  C_4
REMARK    3  A    between atoms: C_10  and  N_11
REMARK                            x       y       z     vdW  Elec       q    Type
REMARK                         _______ _______ _______ _____ _____    ______ ____
ROOT
ATOM      1  O   UNL     1       5.855   5.373  18.565  0.00  0.00    +0.000 OA
ATOM      2  C   UNL     1       5.137   5.379  17.566  0.00  0.00    +0.000 C 
ATOM      3  N   UNL     1       3.764   5.569  17.563  0.00  0.00    +0.000 N 
ATOM      4  H   UNL     1       3.269   5.346  16.693  0.00  0.00    +0.000 HD
ENDROOT
BRANCH   2   5
ATOM      5  C   UNL     1       5.801   5.118  16.263  0.00  0.00    +0.000 A 
ATOM      6  C   UNL     1       7.023   5.732  16.030  0.00  0.00    +0.000 A 
ATOM      7  N   UNL     1       7.700   5.597  14.870  0.00  0.00    +0.000 NA
ATOM      8  C   UNL     1       7.109   4.845  13.930  0.00  0.00    +0.000 A 
ATOM      9  C   UNL     1       7.748   4.703  12.709  0.00  0.00    +0.000 A 
ATOM     10  C   UNL     1       7.178   3.962  11.680  0.00  0.00    +0.000 A 
ATOM     11  C   UNL     1       5.948   3.348  11.882  0.00  0.00    +0.000 A 
ATOM     12  C   UNL     1       5.299   3.472  13.117  0.00  0.00    +0.000 A 
ATOM     13  C   UNL     1       5.851   4.216  14.156  0.00  0.00    +0.000 A 
ATOM     14  N   UNL     1       5.190   4.336  15.334  0.00  0.00    +0.000 NA
ENDBRANCH   2   5
BRANCH   3  15
ATOM     15  C   UNL     1       2.965   5.858  18.706  0.00  0.00    +0.000 A 
ATOM     16  C   UNL     1       2.531   7.177  18.949  0.00  0.00    +0.000 A 
ATOM     17  C   UNL     1       1.773   7.505  20.069  0.00  0.00    +0.000 A 
ATOM     18 CL   UNL     1       1.306   9.139  20.342  0.00  0.00    +0.000 Cl
ATOM     19  C   UNL     1       1.392   6.522  20.965  0.00  0.00    +0.000 A 
ATOM     20  C   UNL     1       1.781   5.200  20.741  0.00  0.00    +0.000 A 
ATOM     21  C   UNL     1       2.576   4.852  19.624  0.00  0.00    +0.000 A 
BRANCH  21  22
ATOM     22  N   UNL     1       3.015   3.500  19.504  0.00  0.00    +0.000 N 
ATOM     23  C   UNL     1       3.880   2.801  20.319  0.00  0.00    +0.000 A 
ATOM     24  N   UNL     1       4.123   1.608  19.829  0.00  0.00    +0.000 NA
ATOM     25  C   UNL     1       3.363   1.590  18.703  0.00  0.00    +0.000 A 
ATOM     26  N   UNL     1       2.647   2.693  18.474  0.00  0.00    +0.000 NA
ENDBRANCH  21  22
ENDBRANCH   3  15
TORSDOF 3
ENDMDL
MODEL 2
REMARK VINA RESULT:      -7.9      3.459      7.771
REMARK  Name = 
REMARK  3 active torsions:
REMARK  status: ('A' for Active; 'I' for Inactive)
REMARK    1  A    between atoms: C_2  and  C_16
REMARK    2  A    between atoms: N_3  and  C_4
REMARK    3  A    between atoms: C_10  and  N_11
REMARK                            x       y       z     vdW  Elec       q    Type
REMARK                         _______ _______ _______ _____ _____    ______ ____
ROOT
ATOM      1  O   UNL     1       2.654   8.373  17.191  0.00  0.00    +0.000 OA
ATOM      2  C   UNL     1       2.351   7.950  18.306  0.00  0.00    +0.000 C 
ATOM      3  N   UNL     1       2.662   6.692  18.800  0.00  0.00    +0.000 N 
ATOM      4  H   UNL     1       2.175   6.399  19.654  0.00  0.00    +0.000 HD
ENDROOT
BRANCH   2   5
ATOM      5  C   UNL     1       1.551   8.853  19.171  0.00  0.00    +0.000 A 
ATOM      6  C   UNL     1       1.246  10.114  18.676  0.00  0.00    +0.000 A 
ATOM      7  N   UNL     1       0.556  11.031  19.386  0.00  0.00    +0.000 NA
ATOM      8  C   UNL     1       0.195  10.664  20.624  0.00  0.00    +0.000 A 
ATOM      9  C   UNL     1      -0.487  11.583  21.405  0.00  0.00    +0.000 A 
ATOM     10  C   UNL     1      -0.866  11.279  22.708  0.00  0.00    +0.000 A 
ATOM     11  C   UNL     1      -0.562  10.028  23.233  0.00  0.00    +0.000 A 
ATOM     12  C   UNL     1       0.113   9.086  22.447  0.00  0.00    +0.000 A 
ATOM     13  C   UNL     1       0.507   9.375  21.144  0.00  0.00    +0.000 A 
ATOM     14  N   UNL     1       1.178   8.451  20.414  0.00  0.00    +0.000 NA
ENDBRANCH   2   5
BRANCH   3  15
ATOM     15  C   UNL     1       3.441   5.707  18.129  0.00  0.00    +0.000 A 
ATOM     16  C   UNL     1       4.274   6.077  17.055  0.00  0.00    +0.000 A 
ATOM     17  C   UNL     1       5.030   5.140  16.355  0.00  0.00    +0.000 A 
ATOM     18 CL   UNL     1       5.997   5.639  15.022  0.00  0.00    +0.000 Cl
ATOM     19  C   UNL     1       5.006   3.808  16.728  0.00  0.00    +0.000 A 
ATOM     20  C   UNL     1       4.212   3.410  17.805  0.00  0.00    +0.000 A 
ATOM     21  C   UNL     1       3.415   4.342  18.509  0.00  0.00    +0.000 A 
BRANCH  21  22
ATOM     22  N   UNL     1       2.559   3.854  19.540  0.00  0.00    +0.000 N 
ATOM     23  C   UNL     1       2.897   3.163  20.684  0.00  0.00    +0.000 A 
ATOM     24  N   UNL     1       1.823   2.793  21.342  0.00  0.00    +0.000 NA
ATOM     25  C   UNL     1       0.820   3.298  20.578  0.00  0.00    +0.000 A 
ATOM     26  N   UNL     1       1.205   3.976  19.495  0.00  0.00    +0.000 NA
ENDBRANCH  21  22
ENDBRANCH   3  15
TORSDOF 3
ENDMDL
MODEL 3
REMARK VINA RESULT:      -7.9      3.604      7.972
REMARK  Name = 
REMARK  3 active torsions:
REMARK  status: ('A' for Active; 'I' for Inactive)
REMARK    1  A    between atoms: C_2  and  C_16
REMARK    2  A    between atoms: N_3  and  C_4
REMARK    3  A    between atoms: C_10  and  N_11
REMARK                            x       y       z     vdW  Elec       q    Type
REMARK                         _______ _______ _______ _____ _____    ______ ____
ROOT
ATOM      1  O   UNL     1       2.189   8.236  17.830  0.00  0.00    +0.000 OA
ATOM      2  C   UNL     1       2.111   7.789  18.974  0.00  0.00    +0.000 C 
ATOM      3  N   UNL     1       2.604   6.563  19.394  0.00  0.00    +0.000 N 
ATOM      4  H   UNL     1       2.291   6.231  20.312  0.00  0.00    +0.000 HD
ENDROOT
BRANCH   2   5
ATOM      5  C   UNL     1       1.390   8.622  19.970  0.00  0.00    +0.000 A 
ATOM      6  C   UNL     1       1.436   8.220  21.298  0.00  0.00    +0.000 A 
ATOM      7  N   UNL     1       0.790   8.877  22.284  0.00  0.00    +0.000 NA
ATOM      8  C   UNL     1       0.069   9.943  21.903  0.00  0.00    +0.000 A 
ATOM      9  C   UNL     1      -0.639  10.632  22.875  0.00  0.00    +0.000 A 
ATOM     10  C   UNL     1      -1.430  11.727  22.546  0.00  0.00    +0.000 A 
ATOM     11  C   UNL     1      -1.505  12.142  21.222  0.00  0.00    +0.000 A 
ATOM     12  C   UNL     1      -0.782  11.463  20.235  0.00  0.00    +0.000 A 
ATOM     13  C   UNL     1       0.009  10.360  20.543  0.00  0.00    +0.000 A 
ATOM     14  N   UNL     1       0.682   9.708  19.563  0.00  0.00    +0.000 NA
ENDBRANCH   2   5
BRANCH   3  15
ATOM     15  C   UNL     1       3.343   5.647  18.592  0.00  0.00    +0.000 A 
ATOM     16  C   UNL     1       4.030   6.105  17.451  0.00  0.00    +0.000 A 
ATOM     17  C   UNL     1       4.741   5.237  16.625  0.00  0.00    +0.000 A 
ATOM     18 CL   UNL     1       5.527   5.841  15.218  0.00  0.00    +0.000 Cl
ATOM     19  C   UNL     1       4.817   3.890  16.931  0.00  0.00    +0.000 A 
ATOM     20  C   UNL     1       4.169   3.407  18.070  0.00  0.00    +0.000 A 
ATOM     21  C   UNL     1       3.419   4.268  18.905  0.00  0.00    +0.000 A 
BRANCH  21  22
ATOM     22  N   UNL     1       2.708   3.694  19.999  0.00  0.00    +0.000 N 
ATOM     23  C   UNL     1       3.191   2.900  21.018  0.00  0.00    +0.000 A 
ATOM     24  N   UNL     1       2.215   2.478  21.786  0.00  0.00    +0.000 NA
ATOM     25  C   UNL     1       1.123   3.057  21.221  0.00  0.00    +0.000 A 
ATOM     26  N   UNL     1       1.364   3.828  20.159  0.00  0.00    +0.000 NA
ENDBRANCH  21  22
ENDBRANCH   3  15
TORSDOF 3
ENDMDL
MODEL 4
REMARK VINA RESULT:      -7.6      3.533      7.946
REMARK  Name = 
REMARK  3 active torsions:
REMARK  status: ('A' for Active; 'I' for Inactive)
REMARK    1  A    between atoms: C_2  and  C_16
REMARK    2  A    between atoms: N_3  and  C_4
REMARK    3  A    between atoms: C_10  and  N_11
REMARK                            x       y       z     vdW  Elec       q    Type
REMARK                         _______ _______ _______ _____ _____    ______ ____
ROOT
ATOM      1  O   UNL     1       2.065   7.976  17.682  0.00  0.00    +0.000 OA
ATOM      2  C   UNL     1       2.224   7.667  18.862  0.00  0.00    +0.000 C 
ATOM      3  N   UNL     1       2.987   6.603  19.319  0.00  0.00    +0.000 N 
ATOM      4  H   UNL     1       2.867   6.338  20.302  0.00  0.00    +0.000 HD
ENDROOT
BRANCH   2   5
ATOM      5  C   UNL     1       1.502   8.482  19.872  0.00  0.00    +0.000 A 
ATOM      6  C   UNL     1       1.523   8.042  21.188  0.00  0.00    +0.000 A 
ATOM      7  N   UNL     1       0.873   8.681  22.183  0.00  0.00    +0.000 NA
ATOM      8  C   UNL     1       0.174   9.768  21.824  0.00  0.00    +0.000 A 
ATOM      9  C   UNL     1      -0.538  10.440  22.804  0.00  0.00    +0.000 A 
ATOM     10  C   UNL     1      -1.308  11.556  22.497  0.00  0.00    +0.000 A 
ATOM     11  C   UNL     1      -1.358  12.010  21.184  0.00  0.00    +0.000 A 
ATOM     12  C   UNL     1      -0.631  11.347  20.188  0.00  0.00    +0.000 A 
ATOM     13  C   UNL     1       0.139  10.224  20.475  0.00  0.00    +0.000 A 
ATOM     14  N   UNL     1       0.817   9.591  19.486  0.00  0.00    +0.000 NA
ENDBRANCH   2   5
BRANCH   3  15
ATOM     15  C   UNL     1       3.769   5.733  18.506  0.00  0.00    +0.000 A 
ATOM     16  C   UNL     1       4.904   6.227  17.833  0.00  0.00    +0.000 A 
ATOM     17  C   UNL     1       5.677   5.416  17.007  0.00  0.00    +0.000 A 
ATOM     18 CL   UNL     1       7.029   6.080  16.173  0.00  0.00    +0.000 Cl
ATOM     19  C   UNL     1       5.364   4.078  16.853  0.00  0.00    +0.000 A 
ATOM     20  C   UNL     1       4.261   3.549  17.526  0.00  0.00    +0.000 A 
ATOM     21  C   UNL     1       3.446   4.363  18.347  0.00  0.00    +0.000 A 
BRANCH  21  22
ATOM     22  N   UNL     1       2.284   3.781  18.932  0.00  0.00    +0.000 N 
ATOM     23  C   UNL     1       1.369   2.922  18.359  0.00  0.00    +0.000 A 
ATOM     24  N   UNL     1       0.375   2.681  19.180  0.00  0.00    +0.000 NA
ATOM     25  C   UNL     1       0.719   3.399  20.280  0.00  0.00    +0.000 A 
ATOM     26  N   UNL     1       1.878   4.057  20.201  0.00  0.00    +0.000 NA
ENDBRANCH  21  22
ENDBRANCH   3  15
TORSDOF 3
ENDMDL
MODEL 5
REMARK VINA RESULT:      -7.5      1.978      3.358
REMARK  Name = 
REMARK  3 active torsions:
REMARK  status: ('A' for Active; 'I' for Inactive)
REMARK    1  A    between atoms: C_2  and  C_16
REMARK    2  A    between atoms: N_3  and  C_4
REMARK    3  A    between atoms: C_10  and  N_11
REMARK                            x       y       z     vdW  Elec       q    Type
REMARK                         _______ _______ _______ _____ _____    ______ ____
ROOT
ATOM      1  O   UNL     1       6.090   4.305  18.776  0.00  0.00    +0.000 OA
ATOM      2  C   UNL     1       5.346   4.504  17.817  0.00  0.00    +0.000 C 
ATOM      3  N   UNL     1       3.965   4.618  17.881  0.00  0.00    +0.000 N 
ATOM      4  H   UNL     1       3.458   4.577  16.991  0.00  0.00    +0.000 HD
ENDROOT
BRANCH   2   5
ATOM      5  C   UNL     1       5.984   4.587  16.479  0.00  0.00    +0.000 A 
ATOM      6  C   UNL     1       7.030   5.487  16.320  0.00  0.00    +0.000 A 
ATOM      7  N   UNL     1       7.661   5.674  15.143  0.00  0.00    +0.000 NA
ATOM      8  C   UNL     1       7.202   4.951  14.110  0.00  0.00    +0.000 A 
ATOM      9  C   UNL     1       7.796   5.131  12.871  0.00  0.00    +0.000 A 
ATOM     10  C   UNL     1       7.351   4.437  11.752  0.00  0.00    +0.000 A 
ATOM     11  C   UNL     1       6.297   3.539  11.881  0.00  0.00    +0.000 A 
ATOM     12  C   UNL     1       5.699   3.338  13.130  0.00  0.00    +0.000 A 
ATOM     13  C   UNL     1       6.126   4.030  14.260  0.00  0.00    +0.000 A 
ATOM     14  N   UNL     1       5.515   3.830  15.454  0.00  0.00    +0.000 NA
ENDBRANCH   2   5
BRANCH   3  15
ATOM     15  C   UNL     1       3.185   4.592  19.073  0.00  0.00    +0.000 A 
ATOM     16  C   UNL     1       3.038   3.391  19.793  0.00  0.00    +0.000 A 
ATOM     17  C   UNL     1       2.261   3.317  20.947  0.00  0.00    +0.000 A 
ATOM     18 CL   UNL     1       2.078   1.815  21.765  0.00  0.00    +0.000 Cl
ATOM     19  C   UNL     1       1.636   4.449  21.438  0.00  0.00    +0.000 A 
ATOM     20  C   UNL     1       1.783   5.663  20.764  0.00  0.00    +0.000 A 
ATOM     21  C   UNL     1       2.543   5.751  19.575  0.00  0.00    +0.000 A 
BRANCH  21  22
ATOM     22  N   UNL     1       2.577   7.000  18.887  0.00  0.00    +0.000 N 
ATOM     23  C   UNL     1       1.846   8.141  19.140  0.00  0.00    +0.000 A 
ATOM     24  N   UNL     1       2.078   9.057  18.228  0.00  0.00    +0.000 NA
ATOM     25  C   UNL     1       2.989   8.449  17.424  0.00  0.00    +0.000 A 
ATOM     26  N   UNL     1       3.353   7.219  17.792  0.00  0.00    +0.000 NA
ENDBRANCH  21  22
ENDBRANCH   3  15
TORSDOF 3
ENDMDL
MODEL 6
REMARK VINA RESULT:      -7.4      3.153      7.502
REMARK  Name = 
REMARK  3 active torsions:
REMARK  status: ('A' for Active; 'I' for Inactive)
REMARK    1  A    between atoms: C_2  and  C_16
REMARK    2  A    between atoms: N_3  and  C_4
REMARK    3  A    between atoms: C_10  and  N_11
REMARK                            x       y       z     vdW  Elec       q    Type
REMARK                         _______ _______ _______ _____ _____    ______ ____
ROOT
ATOM      1  O   UNL     1       3.611   6.024  19.995  0.00  0.00    +0.000 OA
ATOM      2  C   UNL     1       3.008   6.626  19.108  0.00  0.00    +0.000 C 
ATOM      3  N   UNL     1       3.154   6.409  17.746  0.00  0.00    +0.000 N 
ATOM      4  H   UNL     1       2.750   7.114  17.121  0.00  0.00    +0.000 HD
ENDROOT
BRANCH   2   5
ATOM      5  C   UNL     1       2.081   7.703  19.539  0.00  0.00    +0.000 A 
ATOM      6  C   UNL     1       1.754   8.681  18.610  0.00  0.00    +0.000 A 
ATOM      7  N   UNL     1       0.950   9.726  18.899  0.00  0.00    +0.000 NA
ATOM      8  C   UNL     1       0.497   9.784  20.160  0.00  0.00    +0.000 A 
ATOM      9  C   UNL     1      -0.305  10.857  20.517  0.00  0.00    +0.000 A 
ATOM     10  C   UNL     1      -0.786  10.996  21.814  0.00  0.00    +0.000 A 
ATOM     11  C   UNL     1      -0.462  10.038  22.768  0.00  0.00    +0.000 A 
ATOM     12  C   UNL     1       0.335   8.943  22.416  0.00  0.00    +0.000 A 
ATOM     13  C   UNL     1       0.832   8.790  21.124  0.00  0.00    +0.000 A 
ATOM     14  N   UNL     1       1.619   7.730  20.817  0.00  0.00    +0.000 NA
ENDBRANCH   2   5
BRANCH   3  15
ATOM     15  C   UNL     1       3.971   5.406  17.149  0.00  0.00    +0.000 A 
ATOM     16  C   UNL     1       5.052   5.776  16.325  0.00  0.00    +0.000 A 
ATOM     17  C   UNL     1       5.858   4.827  15.701  0.00  0.00    +0.000 A 
ATOM     18 CL   UNL     1       7.139   5.332  14.669  0.00  0.00    +0.000 Cl
ATOM     19  C   UNL     1       5.632   3.478  15.908  0.00  0.00    +0.000 A 
ATOM     20  C   UNL     1       4.585   3.076  16.740  0.00  0.00    +0.000 A 
ATOM     21  C   UNL     1       3.738   4.025  17.360  0.00  0.00    +0.000 A 
BRANCH  21  22
ATOM     22  N   UNL     1       2.634   3.545  18.123  0.00  0.00    +0.000 N 
ATOM     23  C   UNL     1       2.648   2.807  19.287  0.00  0.00    +0.000 A 
ATOM     24  N   UNL     1       1.431   2.466  19.640  0.00  0.00    +0.000 NA
ATOM     25  C   UNL     1       0.671   3.036  18.670  0.00  0.00    +0.000 A 
ATOM     26  N   UNL     1       1.340   3.729  17.746  0.00  0.00    +0.000 NA
ENDBRANCH  21  22
ENDBRANCH   3  15
TORSDOF 3
ENDMDL
MODEL 7
REMARK VINA RESULT:      -7.3      3.550      7.520
REMARK  Name = 
REMARK  3 active torsions:
REMARK  status: ('A' for Active; 'I' for Inactive)
REMARK    1  A    between atoms: C_2  and  C_16
REMARK    2  A    between atoms: N_3  and  C_4
REMARK    3  A    between atoms: C_10  and  N_11
REMARK                            x       y       z     vdW  Elec       q    Type
REMARK                         _______ _______ _______ _____ _____    ______ ____
ROOT
ATOM      1  O   UNL     1       2.135   6.767  20.307  0.00  0.00    +0.000 OA
ATOM      2  C   UNL     1       2.093   7.230  19.168  0.00  0.00    +0.000 C 
ATOM      3  N   UNL     1       2.324   6.519  18.001  0.00  0.00    +0.000 N 
ATOM      4  H   UNL     1       2.459   7.067  17.146  0.00  0.00    +0.000 HD
ENDROOT
BRANCH   2   5
ATOM      5  C   UNL     1       1.810   8.683  19.046  0.00  0.00    +0.000 A 
ATOM      6  C   UNL     1       2.286   9.338  17.919  0.00  0.00    +0.000 A 
ATOM      7  N   UNL     1       2.121  10.662  17.718  0.00  0.00    +0.000 NA
ATOM      8  C   UNL     1       1.484  11.328  18.693  0.00  0.00    +0.000 A 
ATOM      9  C   UNL     1       1.318  12.696  18.549  0.00  0.00    +0.000 A 
ATOM     10  C   UNL     1       0.693  13.453  19.534  0.00  0.00    +0.000 A 
ATOM     11  C   UNL     1       0.219  12.824  20.679  0.00  0.00    +0.000 A 
ATOM     12  C   UNL     1       0.368  11.440  20.828  0.00  0.00    +0.000 A 
ATOM     13  C   UNL     1       0.997  10.667  19.857  0.00  0.00    +0.000 A 
ATOM     14  N   UNL     1       1.145   9.332  20.038  0.00  0.00    +0.000 NA
ENDBRANCH   2   5
BRANCH   3  15
ATOM     15  C   UNL     1       2.581   5.120  17.920  0.00  0.00    +0.000 A 
ATOM     16  C   UNL     1       1.592   4.197  18.312  0.00  0.00    +0.000 A 
ATOM     17  C   UNL     1       1.814   2.823  18.274  0.00  0.00    +0.000 A 
ATOM     18 CL   UNL     1       0.587   1.739  18.805  0.00  0.00    +0.000 Cl
ATOM     19  C   UNL     1       3.018   2.324  17.811  0.00  0.00    +0.000 A 
ATOM     20  C   UNL     1       4.011   3.211  17.389  0.00  0.00    +0.000 A 
ATOM     21  C   UNL     1       3.816   4.610  17.447  0.00  0.00    +0.000 A 
BRANCH  21  22
ATOM     22  N   UNL     1       4.904   5.458  17.088  0.00  0.00    +0.000 N 
ATOM     23  C   UNL     1       5.596   5.512  15.897  0.00  0.00    +0.000 A 
ATOM     24  N   UNL     1       6.601   6.352  15.977  0.00  0.00    +0.000 NA
ATOM     25  C   UNL     1       6.489   6.827  17.244  0.00  0.00    +0.000 A 
ATOM     26  N   UNL     1       5.463   6.348  17.951  0.00  0.00    +0.000 NA
ENDBRANCH  21  22
ENDBRANCH   3  15
TORSDOF 3
ENDMDL
MODEL 8
REMARK VINA RESULT:      -7.3      3.046      7.544
REMARK  Name = 
REMARK  3 active torsions:
REMARK  status: ('A' for Active; 'I' for Inactive)
REMARK    1  A    between atoms: C_2  and  C_16
REMARK    2  A    between atoms: N_3  and  C_4
REMARK    3  A    between atoms: C_10  and  N_11
REMARK                            x       y       z     vdW  Elec       q    Type
REMARK                         _______ _______ _______ _____ _____    ______ ____
ROOT
ATOM      1  O   UNL     1       4.218   4.409  18.375  0.00  0.00    +0.000 OA
ATOM      2  C   UNL     1       3.938   5.534  17.963  0.00  0.00    +0.000 C 
ATOM      3  N   UNL     1       4.424   6.107  16.798  0.00  0.00    +0.000 N 
ATOM      4  H   UNL     1       4.274   7.115  16.682  0.00  0.00    +0.000 HD
ENDROOT
BRANCH   2   5
ATOM      5  C   UNL     1       3.038   6.354  18.812  0.00  0.00    +0.000 A 
ATOM      6  C   UNL     1       2.557   5.779  19.981  0.00  0.00    +0.000 A 
ATOM      7  N   UNL     1       1.705   6.415  20.812  0.00  0.00    +0.000 NA
ATOM      8  C   UNL     1       1.321   7.642  20.431  0.00  0.00    +0.000 A 
ATOM      9  C   UNL     1       0.421   8.324  21.234  0.00  0.00    +0.000 A 
ATOM     10  C   UNL     1      -0.042   9.587  20.884  0.00  0.00    +0.000 A 
ATOM     11  C   UNL     1       0.413  10.180  19.712  0.00  0.00    +0.000 A 
ATOM     12  C   UNL     1       1.334   9.507  18.901  0.00  0.00    +0.000 A 
ATOM     13  C   UNL     1       1.803   8.239  19.231  0.00  0.00    +0.000 A 
ATOM     14  N   UNL     1       2.679   7.603  18.415  0.00  0.00    +0.000 NA
ENDBRANCH   2   5
BRANCH   3  15
ATOM     15  C   UNL     1       5.271   5.466  15.849  0.00  0.00    +0.000 A 
ATOM     16  C   UNL     1       4.715   4.841  14.716  0.00  0.00    +0.000 A 
ATOM     17  C   UNL     1       5.506   4.179  13.780  0.00  0.00    +0.000 A 
ATOM     18 CL   UNL     1       4.772   3.393  12.436  0.00  0.00    +0.000 Cl
ATOM     19  C   UNL     1       6.882   4.152  13.926  0.00  0.00    +0.000 A 
ATOM     20  C   UNL     1       7.468   4.785  15.024  0.00  0.00    +0.000 A 
ATOM     21  C   UNL     1       6.680   5.436  16.000  0.00  0.00    +0.000 A 
BRANCH  21  22
ATOM     22  N   UNL     1       7.335   5.983  17.142  0.00  0.00    +0.000 N 
ATOM     23  C   UNL     1       7.693   5.351  18.314  0.00  0.00    +0.000 A 
ATOM     24  N   UNL     1       8.188   6.207  19.176  0.00  0.00    +0.000 NA
ATOM     25  C   UNL     1       8.143   7.378  18.488  0.00  0.00    +0.000 A 
ATOM     26  N   UNL     1       7.669   7.298  17.243  0.00  0.00    +0.000 NA
ENDBRANCH  21  22
ENDBRANCH   3  15
TORSDOF 3
ENDMDL
MODEL 9
REMARK VINA RESULT:      -7.2      3.293      7.659
REMARK  Name = 
REMARK  3 active torsions:
REMARK  status: ('A' for Active; 'I' for Inactive)
REMARK    1  A    between atoms: C_2  and  C_16
REMARK    2  A    between atoms: N_3  and  C_4
REMARK    3  A    between atoms: C_10  and  N_11
REMARK                            x       y       z     vdW  Elec       q    Type
REMARK                         _______ _______ _______ _____ _____    ______ ____
ROOT
ATOM      1  O   UNL     1       3.863   5.075  18.120  0.00  0.00    +0.000 OA
ATOM      2  C   UNL     1       3.789   6.182  17.588  0.00  0.00    +0.000 C 
ATOM      3  N   UNL     1       4.475   6.575  16.449  0.00  0.00    +0.000 N 
ATOM      4  H   UNL     1       4.480   7.578  16.236  0.00  0.00    +0.000 HD
ENDROOT
BRANCH   2   5
ATOM      5  C   UNL     1       2.920   7.187  18.251  0.00  0.00    +0.000 A 
ATOM      6  C   UNL     1       2.644   8.357  17.557  0.00  0.00    +0.000 A 
ATOM      7  N   UNL     1       1.897   9.355  18.073  0.00  0.00    +0.000 NA
ATOM      8  C   UNL     1       1.448   9.165  19.323  0.00  0.00    +0.000 A 
ATOM      9  C   UNL     1       0.704  10.176  19.911  0.00  0.00    +0.000 A 
ATOM     10  C   UNL     1       0.233  10.058  21.214  0.00  0.00    +0.000 A 
ATOM     11  C   UNL     1       0.507   8.902  21.936  0.00  0.00    +0.000 A 
ATOM     12  C   UNL     1       1.245   7.869  21.348  0.00  0.00    +0.000 A 
ATOM     13  C   UNL     1       1.731   7.972  20.047  0.00  0.00    +0.000 A 
ATOM     14  N   UNL     1       2.461   6.963  19.511  0.00  0.00    +0.000 NA
ENDBRANCH   2   5
BRANCH   3  15
ATOM     15  C   UNL     1       5.327   5.744  15.666  0.00  0.00    +0.000 A 
ATOM     16  C   UNL     1       4.808   5.049  14.556  0.00  0.00    +0.000 A 
ATOM     17  C   UNL     1       5.601   4.205  13.782  0.00  0.00    +0.000 A 
ATOM     18 CL   UNL     1       4.907   3.345  12.463  0.00  0.00    +0.000 Cl
ATOM     19  C   UNL     1       6.946   4.056  14.070  0.00  0.00    +0.000 A 
ATOM     20  C   UNL     1       7.499   4.751  15.148  0.00  0.00    +0.000 A 
ATOM     21  C   UNL     1       6.704   5.589  15.963  0.00  0.00    +0.000 A 
BRANCH  21  22
ATOM     22  N   UNL     1       7.311   6.197  17.100  0.00  0.00    +0.000 N 
ATOM     23  C   UNL     1       7.622   5.628  18.317  0.00  0.00    +0.000 A 
ATOM     24  N   UNL     1       8.080   6.530  19.153  0.00  0.00    +0.000 NA
ATOM     25  C   UNL     1       8.061   7.663  18.404  0.00  0.00    +0.000 A 
ATOM     26  N   UNL     1       7.638   7.517  17.147  0.00  0.00    +0.000 NA
ENDBRANCH  21  22
ENDBRANCH   3  15
TORSDOF 3
ENDMDL
