MODEL 1
REMARK VINA RESULT:      -9.1      0.000      0.000
REMARK  Name = 
REMARK  5 active torsions:
REMARK  status: ('A' for Active; 'I' for Inactive)
REMARK    1  A    between atoms: C_1  and  C_2
REMARK    2  A    between atoms: C_7  and  N_8
REMARK    3  A    between atoms: C_9  and  C_11
REMARK    4  A    between atoms: C_16  and  C_17
REMARK    5  A    between atoms: C_20  and  C_21
REMARK                            x       y       z     vdW  Elec       q    Type
REMARK                         _______ _______ _______ _____ _____    ______ ____
ROOT
ATOM      1  C   UNL     1       4.999   5.645  16.254  0.00  0.00    +0.000 A 
ATOM      2  C   UNL     1       5.661   5.999  15.062  0.00  0.00    +0.000 A 
ATOM      3  C   UNL     1       6.311   5.035  14.289  0.00  0.00    +0.000 A 
ATOM      4  C   UNL     1       6.316   3.714  14.704  0.00  0.00    +0.000 A 
ATOM      5  C   UNL     1       5.645   3.346  15.870  0.00  0.00    +0.000 A 
ATOM      6  C   UNL     1       4.957   4.285  16.675  0.00  0.00    +0.000 A 
ENDROOT
BRANCH   6   7
ATOM      7  C   UNL     1       4.212   3.778  17.866  0.00  0.00    +0.000 A 
ATOM      8  C   UNL     1       2.858   3.402  17.771  0.00  0.00    +0.000 A 
ATOM      9  C   UNL     1       2.114   3.053  18.903  0.00  0.00    +0.000 A 
ATOM     10  C   UNL     1       2.711   3.027  20.167  0.00  0.00    +0.000 A 
ATOM     11  C   UNL     1       4.077   3.306  20.267  0.00  0.00    +0.000 A 
ATOM     12  C   UNL     1       4.800   3.710  19.141  0.00  0.00    +0.000 A 
BRANCH  10  13
ATOM     13  C   UNL     1       1.903   2.761  21.408  0.00  0.00    +0.000 C 
ATOM     14  F   UNL     1       0.559   2.858  21.211  0.00  0.00    +0.000 F 
ATOM     15  F   UNL     1       2.120   1.525  21.933  0.00  0.00    +0.000 F 
ATOM     16  F   UNL     1       2.193   3.647  22.403  0.00  0.00    +0.000 F 
ENDBRANCH  10  13
ENDBRANCH   6   7
BRANCH   1  18
ATOM     17  N   UNL     1       3.122   6.763  17.413  0.00  0.00    +0.000 N 
ATOM     18  C   UNL     1       4.487   6.747  17.125  0.00  0.00    +0.000 C 
ATOM     19  O   UNL     1       5.296   7.588  17.503  0.00  0.00    +0.000 OA
ATOM     20  H   UNL     1       2.544   6.061  16.969  0.00  0.00    +0.000 HD
BRANCH  17  27
ATOM     21  C   UNL     1      -0.095   9.774  23.113  0.00  0.00    +0.000 C 
ATOM     22  C   UNL     1       0.503   9.389  21.820  0.00  0.00    +0.000 A 
ATOM     23  N   UNL     1       0.470  10.240  20.756  0.00  0.00    +0.000 NA
ATOM     24  C   UNL     1       1.087   9.563  19.821  0.00  0.00    +0.000 A 
ATOM     25  C   UNL     1       1.399   9.881  18.483  0.00  0.00    +0.000 A 
ATOM     26  C   UNL     1       2.052   8.989  17.724  0.00  0.00    +0.000 A 
ATOM     27  C   UNL     1       2.459   7.676  18.223  0.00  0.00    +0.000 A 
ATOM     28  C   UNL     1       2.174   7.385  19.504  0.00  0.00    +0.000 A 
ATOM     29  N   UNL     1       1.489   8.316  20.305  0.00  0.00    +0.000 N 
ATOM     30  N   UNL     1       1.105   8.213  21.603  0.00  0.00    +0.000 NA
ENDBRANCH  17  27
ENDBRANCH   1  18
TORSDOF 4
ENDMDL
MODEL 2
REMARK VINA RESULT:      -8.6      0.975      1.665
REMARK  Name = 
REMARK  5 active torsions:
REMARK  status: ('A' for Active; 'I' for Inactive)
REMARK    1  A    between atoms: C_1  and  C_2
REMARK    2  A    between atoms: C_7  and  N_8
REMARK    3  A    between atoms: C_9  and  C_11
REMARK    4  A    between atoms: C_16  and  C_17
REMARK    5  A    between atoms: C_20  and  C_21
REMARK                            x       y       z     vdW  Elec       q    Type
REMARK                         _______ _______ _______ _____ _____    ______ ____
ROOT
ATOM      1  C   UNL     1       4.924   5.675  16.319  0.00  0.00    +0.000 A 
ATOM      2  C   UNL     1       5.582   6.051  15.131  0.00  0.00    +0.000 A 
ATOM      3  C   UNL     1       6.219   5.099  14.333  0.00  0.00    +0.000 A 
ATOM      4  C   UNL     1       6.215   3.769  14.717  0.00  0.00    +0.000 A 
ATOM      5  C   UNL     1       5.547   3.380  15.878  0.00  0.00    +0.000 A 
ATOM      6  C   UNL     1       4.872   4.307  16.709  0.00  0.00    +0.000 A 
ENDROOT
BRANCH   6   7
ATOM      7  C   UNL     1       4.130   3.779  17.892  0.00  0.00    +0.000 A 
ATOM      8  C   UNL     1       2.749   3.513  17.826  0.00  0.00    +0.000 A 
ATOM      9  C   UNL     1       2.017   3.146  18.960  0.00  0.00    +0.000 A 
ATOM     10  C   UNL     1       2.652   2.991  20.196  0.00  0.00    +0.000 A 
ATOM     11  C   UNL     1       4.038   3.160  20.262  0.00  0.00    +0.000 A 
ATOM     12  C   UNL     1       4.752   3.583  19.138  0.00  0.00    +0.000 A 
BRANCH  10  13
ATOM     13  C   UNL     1       1.867   2.705  21.448  0.00  0.00    +0.000 C 
ATOM     14  F   UNL     1       2.109   3.592  22.453  0.00  0.00    +0.000 F 
ATOM     15  F   UNL     1       0.522   2.716  21.250  0.00  0.00    +0.000 F 
ATOM     16  F   UNL     1       2.160   1.477  21.963  0.00  0.00    +0.000 F 
ENDBRANCH  10  13
ENDBRANCH   6   7
BRANCH   1  18
ATOM     17  N   UNL     1       3.076   6.745  17.567  0.00  0.00    +0.000 N 
ATOM     18  C   UNL     1       4.427   6.762  17.218  0.00  0.00    +0.000 C 
ATOM     19  O   UNL     1       5.233   7.619  17.564  0.00  0.00    +0.000 OA
ATOM     20  H   UNL     1       2.495   6.032  17.147  0.00  0.00    +0.000 HD
BRANCH  17  27
ATOM     21  C   UNL     1      -0.222  12.655  20.038  0.00  0.00    +0.000 C 
ATOM     22  C   UNL     1       0.420  11.351  19.784  0.00  0.00    +0.000 A 
ATOM     23  N   UNL     1       0.536  10.425  20.777  0.00  0.00    +0.000 NA
ATOM     24  C   UNL     1       1.139   9.428  20.180  0.00  0.00    +0.000 A 
ATOM     25  C   UNL     1       1.541   8.160  20.646  0.00  0.00    +0.000 A 
ATOM     26  C   UNL     1       2.151   7.308  19.809  0.00  0.00    +0.000 A 
ATOM     27  C   UNL     1       2.430   7.639  18.412  0.00  0.00    +0.000 A 
ATOM     28  C   UNL     1       2.027   8.842  17.968  0.00  0.00    +0.000 A 
ATOM     29  N   UNL     1       1.388   9.740  18.841  0.00  0.00    +0.000 N 
ATOM     30  N   UNL     1       0.918  10.990  18.594  0.00  0.00    +0.000 NA
ENDBRANCH  17  27
ENDBRANCH   1  18
TORSDOF 4
ENDMDL
MODEL 3
REMARK VINA RESULT:      -8.3      3.590      4.952
REMARK  Name = 
REMARK  5 active torsions:
REMARK  status: ('A' for Active; 'I' for Inactive)
REMARK    1  A    between atoms: C_1  and  C_2
REMARK    2  A    between atoms: C_7  and  N_8
REMARK    3  A    between atoms: C_9  and  C_11
REMARK    4  A    between atoms: C_16  and  C_17
REMARK    5  A    between atoms: C_20  and  C_21
REMARK                            x       y       z     vdW  Elec       q    Type
REMARK                         _______ _______ _______ _____ _____    ______ ____
ROOT
ATOM      1  C   UNL     1       2.331   4.377  19.141  0.00  0.00    +0.000 A 
ATOM      2  C   UNL     1       1.323   3.418  19.366  0.00  0.00    +0.000 A 
ATOM      3  C   UNL     1       1.415   2.139  18.815  0.00  0.00    +0.000 A 
ATOM      4  C   UNL     1       2.505   1.809  18.026  0.00  0.00    +0.000 A 
ATOM      5  C   UNL     1       3.520   2.741  17.815  0.00  0.00    +0.000 A 
ATOM      6  C   UNL     1       3.480   4.043  18.369  0.00  0.00    +0.000 A 
ENDROOT
BRANCH   6   7
ATOM      7  C   UNL     1       4.650   4.942  18.140  0.00  0.00    +0.000 A 
ATOM      8  C   UNL     1       5.731   4.973  19.042  0.00  0.00    +0.000 A 
ATOM      9  C   UNL     1       6.768   5.902  18.912  0.00  0.00    +0.000 A 
ATOM     10  C   UNL     1       6.782   6.808  17.847  0.00  0.00    +0.000 A 
ATOM     11  C   UNL     1       5.766   6.731  16.890  0.00  0.00    +0.000 A 
ATOM     12  C   UNL     1       4.703   5.839  17.058  0.00  0.00    +0.000 A 
BRANCH  10  13
ATOM     13  C   UNL     1       7.828   7.886  17.750  0.00  0.00    +0.000 C 
ATOM     14  F   UNL     1       8.546   7.841  16.593  0.00  0.00    +0.000 F 
ATOM     15  F   UNL     1       7.311   9.141  17.826  0.00  0.00    +0.000 F 
ATOM     16  F   UNL     1       8.745   7.796  18.754  0.00  0.00    +0.000 F 
ENDBRANCH  10  13
ENDBRANCH   6   7
BRANCH   1  18
ATOM     17  N   UNL     1       2.071   6.784  18.638  0.00  0.00    +0.000 N 
ATOM     18  C   UNL     1       2.081   5.777  19.603  0.00  0.00    +0.000 C 
ATOM     19  O   UNL     1       1.933   5.955  20.808  0.00  0.00    +0.000 OA
ATOM     20  H   UNL     1       2.291   6.520  17.687  0.00  0.00    +0.000 HD
BRANCH  17  27
ATOM     21  C   UNL     1      -0.014  12.945  21.737  0.00  0.00    +0.000 C 
ATOM     22  C   UNL     1       0.486  11.841  20.895  0.00  0.00    +0.000 A 
ATOM     23  N   UNL     1       0.996  12.086  19.656  0.00  0.00    +0.000 NA
ATOM     24  C   UNL     1       1.328  10.892  19.235  0.00  0.00    +0.000 A 
ATOM     25  C   UNL     1       1.919  10.451  18.033  0.00  0.00    +0.000 A 
ATOM     26  C   UNL     1       2.160   9.145  17.852  0.00  0.00    +0.000 A 
ATOM     27  C   UNL     1       1.826   8.134  18.855  0.00  0.00    +0.000 A 
ATOM     28  C   UNL     1       1.279   8.562  20.006  0.00  0.00    +0.000 A 
ATOM     29  N   UNL     1       1.024   9.931  20.202  0.00  0.00    +0.000 N 
ATOM     30  N   UNL     1       0.478  10.557  21.276  0.00  0.00    +0.000 NA
ENDBRANCH  17  27
ENDBRANCH   1  18
TORSDOF 4
ENDMDL
MODEL 4
REMARK VINA RESULT:      -8.2      3.588      5.166
REMARK  Name = 
REMARK  5 active torsions:
REMARK  status: ('A' for Active; 'I' for Inactive)
REMARK    1  A    between atoms: C_1  and  C_2
REMARK    2  A    between atoms: C_7  and  N_8
REMARK    3  A    between atoms: C_9  and  C_11
REMARK    4  A    between atoms: C_16  and  C_17
REMARK    5  A    between atoms: C_20  and  C_21
REMARK                            x       y       z     vdW  Elec       q    Type
REMARK                         _______ _______ _______ _____ _____    ______ ____
ROOT
ATOM      1  C   UNL     1       2.284   4.291  19.352  0.00  0.00    +0.000 A 
ATOM      2  C   UNL     1       1.262   3.343  19.555  0.00  0.00    +0.000 A 
ATOM      3  C   UNL     1       1.205   2.176  18.792  0.00  0.00    +0.000 A 
ATOM      4  C   UNL     1       2.158   1.949  17.813  0.00  0.00    +0.000 A 
ATOM      5  C   UNL     1       3.188   2.868  17.617  0.00  0.00    +0.000 A 
ATOM      6  C   UNL     1       3.298   4.056  18.380  0.00  0.00    +0.000 A 
ENDROOT
BRANCH   6   7
ATOM      7  C   UNL     1       4.477   4.939  18.139  0.00  0.00    +0.000 A 
ATOM      8  C   UNL     1       5.654   4.806  18.902  0.00  0.00    +0.000 A 
ATOM      9  C   UNL     1       6.714   5.711  18.779  0.00  0.00    +0.000 A 
ATOM     10  C   UNL     1       6.651   6.758  17.855  0.00  0.00    +0.000 A 
ATOM     11  C   UNL     1       5.531   6.851  17.024  0.00  0.00    +0.000 A 
ATOM     12  C   UNL     1       4.451   5.979  17.194  0.00  0.00    +0.000 A 
BRANCH  10  13
ATOM     13  C   UNL     1       7.731   7.804  17.784  0.00  0.00    +0.000 C 
ATOM     14  F   UNL     1       8.650   7.703  18.784  0.00  0.00    +0.000 F 
ATOM     15  F   UNL     1       8.433   7.769  16.620  0.00  0.00    +0.000 F 
ATOM     16  F   UNL     1       7.224   9.066  17.878  0.00  0.00    +0.000 F 
ENDBRANCH  10  13
ENDBRANCH   6   7
BRANCH   1  18
ATOM     17  N   UNL     1       1.707   6.695  19.352  0.00  0.00    +0.000 N 
ATOM     18  C   UNL     1       2.180   5.598  20.071  0.00  0.00    +0.000 C 
ATOM     19  O   UNL     1       2.550   5.629  21.240  0.00  0.00    +0.000 OA
ATOM     20  H   UNL     1       1.515   6.560  18.368  0.00  0.00    +0.000 HD
BRANCH  17  27
ATOM     21  C   UNL     1       1.089  13.865  19.693  0.00  0.00    +0.000 C 
ATOM     22  C   UNL     1       1.164  12.405  19.888  0.00  0.00    +0.000 A 
ATOM     23  N   UNL     1       0.976  11.856  21.121  0.00  0.00    +0.000 NA
ATOM     24  C   UNL     1       1.112  10.574  20.895  0.00  0.00    +0.000 A 
ATOM     25  C   UNL     1       1.024   9.456  21.749  0.00  0.00    +0.000 A 
ATOM     26  C   UNL     1       1.208   8.224  21.251  0.00  0.00    +0.000 A 
ATOM     27  C   UNL     1       1.506   7.980  19.841  0.00  0.00    +0.000 A 
ATOM     28  C   UNL     1       1.571   9.048  19.028  0.00  0.00    +0.000 A 
ATOM     29  N   UNL     1       1.380  10.342  19.544  0.00  0.00    +0.000 N 
ATOM     30  N   UNL     1       1.412  11.536  18.899  0.00  0.00    +0.000 NA
ENDBRANCH  17  27
ENDBRANCH   1  18
TORSDOF 4
ENDMDL
MODEL 5
REMARK VINA RESULT:      -8.1      3.674      5.308
REMARK  Name = 
REMARK  5 active torsions:
REMARK  status: ('A' for Active; 'I' for Inactive)
REMARK    1  A    between atoms: C_1  and  C_2
REMARK    2  A    between atoms: C_7  and  N_8
REMARK    3  A    between atoms: C_9  and  C_11
REMARK    4  A    between atoms: C_16  and  C_17
REMARK    5  A    between atoms: C_20  and  C_21
REMARK                            x       y       z     vdW  Elec       q    Type
REMARK                         _______ _______ _______ _____ _____    ______ ____
ROOT
ATOM      1  C   UNL     1       2.217   4.664  19.084  0.00  0.00    +0.000 A 
ATOM      2  C   UNL     1       1.164   3.749  19.287  0.00  0.00    +0.000 A 
ATOM      3  C   UNL     1       1.181   2.491  18.683  0.00  0.00    +0.000 A 
ATOM      4  C   UNL     1       2.240   2.138  17.862  0.00  0.00    +0.000 A 
ATOM      5  C   UNL     1       3.299   3.025  17.672  0.00  0.00    +0.000 A 
ATOM      6  C   UNL     1       3.335   4.303  18.279  0.00  0.00    +0.000 A 
ENDROOT
BRANCH   6   7
ATOM      7  C   UNL     1       4.547   5.149  18.066  0.00  0.00    +0.000 A 
ATOM      8  C   UNL     1       5.646   5.081  18.945  0.00  0.00    +0.000 A 
ATOM      9  C   UNL     1       6.728   5.960  18.835  0.00  0.00    +0.000 A 
ATOM     10  C   UNL     1       6.769   6.913  17.813  0.00  0.00    +0.000 A 
ATOM     11  C   UNL     1       5.733   6.934  16.876  0.00  0.00    +0.000 A 
ATOM     12  C   UNL     1       4.627   6.092  17.026  0.00  0.00    +0.000 A 
BRANCH  10  13
ATOM     13  C   UNL     1       7.870   7.937  17.743  0.00  0.00    +0.000 C 
ATOM     14  F   UNL     1       8.605   7.865  16.599  0.00  0.00    +0.000 F 
ATOM     15  F   UNL     1       7.415   9.217  17.820  0.00  0.00    +0.000 F 
ATOM     16  F   UNL     1       8.763   7.796  18.763  0.00  0.00    +0.000 F 
ENDBRANCH  10  13
ENDBRANCH   6   7
BRANCH   1  18
ATOM     17  N   UNL     1       1.899   7.081  18.674  0.00  0.00    +0.000 N 
ATOM     18  C   UNL     1       2.047   6.054  19.606  0.00  0.00    +0.000 C 
ATOM     19  O   UNL     1       2.083   6.207  20.823  0.00  0.00    +0.000 OA
ATOM     20  H   UNL     1       1.972   6.837  17.696  0.00  0.00    +0.000 HD
BRANCH  17  27
ATOM     21  C   UNL     1       2.233  14.268  18.298  0.00  0.00    +0.000 C 
ATOM     22  C   UNL     1       2.008  12.840  18.591  0.00  0.00    +0.000 A 
ATOM     23  N   UNL     1       1.240  12.458  19.651  0.00  0.00    +0.000 NA
ATOM     24  C   UNL     1       1.272  11.152  19.580  0.00  0.00    +0.000 A 
ATOM     25  C   UNL     1       0.672  10.154  20.375  0.00  0.00    +0.000 A 
ATOM     26  C   UNL     1       0.870   8.861  20.078  0.00  0.00    +0.000 A 
ATOM     27  C   UNL     1       1.697   8.427  18.953  0.00  0.00    +0.000 A 
ATOM     28  C   UNL     1       2.252   9.383  18.188  0.00  0.00    +0.000 A 
ATOM     29  N   UNL     1       2.050  10.741  18.495  0.00  0.00    +0.000 N 
ATOM     30  N   UNL     1       2.522  11.843  17.859  0.00  0.00    +0.000 NA
ENDBRANCH  17  27
ENDBRANCH   1  18
TORSDOF 4
ENDMDL
MODEL 6
REMARK VINA RESULT:      -8.0      3.570      4.938
REMARK  Name = 
REMARK  5 active torsions:
REMARK  status: ('A' for Active; 'I' for Inactive)
REMARK    1  A    between atoms: C_1  and  C_2
REMARK    2  A    between atoms: C_7  and  N_8
REMARK    3  A    between atoms: C_9  and  C_11
REMARK    4  A    between atoms: C_16  and  C_17
REMARK    5  A    between atoms: C_20  and  C_21
REMARK                            x       y       z     vdW  Elec       q    Type
REMARK                         _______ _______ _______ _____ _____    ______ ____
ROOT
ATOM      1  C   UNL     1       2.480   4.107  18.642  0.00  0.00    +0.000 A 
ATOM      2  C   UNL     1       1.554   3.090  18.948  0.00  0.00    +0.000 A 
ATOM      3  C   UNL     1       1.946   1.751  18.985  0.00  0.00    +0.000 A 
ATOM      4  C   UNL     1       3.260   1.414  18.707  0.00  0.00    +0.000 A 
ATOM      5  C   UNL     1       4.192   2.412  18.426  0.00  0.00    +0.000 A 
ATOM      6  C   UNL     1       3.845   3.784  18.395  0.00  0.00    +0.000 A 
ENDROOT
BRANCH   6   7
ATOM      7  C   UNL     1       4.931   4.779  18.152  0.00  0.00    +0.000 A 
ATOM      8  C   UNL     1       6.043   4.867  19.012  0.00  0.00    +0.000 A 
ATOM      9  C   UNL     1       6.999   5.879  18.874  0.00  0.00    +0.000 A 
ATOM     10  C   UNL     1       6.898   6.816  17.841  0.00  0.00    +0.000 A 
ATOM     11  C   UNL     1       5.853   6.689  16.922  0.00  0.00    +0.000 A 
ATOM     12  C   UNL     1       4.870   5.711  17.101  0.00  0.00    +0.000 A 
BRANCH  10  13
ATOM     13  C   UNL     1       7.852   7.975  17.741  0.00  0.00    +0.000 C 
ATOM     14  F   UNL     1       8.739   8.038  18.773  0.00  0.00    +0.000 F 
ATOM     15  F   UNL     1       8.597   7.958  16.603  0.00  0.00    +0.000 F 
ATOM     16  F   UNL     1       7.201   9.173  17.744  0.00  0.00    +0.000 F 
ENDBRANCH  10  13
ENDBRANCH   6   7
BRANCH   1  18
ATOM     17  N   UNL     1       2.304   6.462  19.377  0.00  0.00    +0.000 N 
ATOM     18  C   UNL     1       1.956   5.493  18.436  0.00  0.00    +0.000 C 
ATOM     19  O   UNL     1       1.225   5.680  17.470  0.00  0.00    +0.000 OA
ATOM     20  H   UNL     1       2.844   6.161  20.178  0.00  0.00    +0.000 HD
BRANCH  17  27
ATOM     21  C   UNL     1      -0.224  12.910  21.361  0.00  0.00    +0.000 C 
ATOM     22  C   UNL     1       0.348  11.710  20.719  0.00  0.00    +0.000 A 
ATOM     23  N   UNL     1       0.806  11.758  19.436  0.00  0.00    +0.000 NA
ATOM     24  C   UNL     1       1.229  10.536  19.231  0.00  0.00    +0.000 A 
ATOM     25  C   UNL     1       1.827   9.926  18.110  0.00  0.00    +0.000 A 
ATOM     26  C   UNL     1       2.173   8.632  18.164  0.00  0.00    +0.000 A 
ATOM     27  C   UNL     1       1.951   7.805  19.350  0.00  0.00    +0.000 A 
ATOM     28  C   UNL     1       1.397   8.397  20.422  0.00  0.00    +0.000 A 
ATOM     29  N   UNL     1       1.030   9.753  20.371  0.00  0.00    +0.000 N 
ATOM     30  N   UNL     1       0.459  10.524  21.330  0.00  0.00    +0.000 NA
ENDBRANCH  17  27
ENDBRANCH   1  18
TORSDOF 4
ENDMDL
MODEL 7
REMARK VINA RESULT:      -7.9      4.206      5.417
REMARK  Name = 
REMARK  5 active torsions:
REMARK  status: ('A' for Active; 'I' for Inactive)
REMARK    1  A    between atoms: C_1  and  C_2
REMARK    2  A    between atoms: C_7  and  N_8
REMARK    3  A    between atoms: C_9  and  C_11
REMARK    4  A    between atoms: C_16  and  C_17
REMARK    5  A    between atoms: C_20  and  C_21
REMARK                            x       y       z     vdW  Elec       q    Type
REMARK                         _______ _______ _______ _____ _____    ______ ____
ROOT
ATOM      1  C   UNL     1       5.122   5.324  17.280  0.00  0.00    +0.000 A 
ATOM      2  C   UNL     1       4.616   4.152  16.685  0.00  0.00    +0.000 A 
ATOM      3  C   UNL     1       5.320   3.501  15.671  0.00  0.00    +0.000 A 
ATOM      4  C   UNL     1       6.528   4.020  15.233  0.00  0.00    +0.000 A 
ATOM      5  C   UNL     1       7.051   5.167  15.829  0.00  0.00    +0.000 A 
ATOM      6  C   UNL     1       6.382   5.849  16.873  0.00  0.00    +0.000 A 
ENDROOT
BRANCH   6   7
ATOM      7  C   UNL     1       7.061   7.027  17.491  0.00  0.00    +0.000 A 
ATOM      8  C   UNL     1       6.804   8.335  17.035  0.00  0.00    +0.000 A 
ATOM      9  C   UNL     1       7.529   9.433  17.512  0.00  0.00    +0.000 A 
ATOM     10  C   UNL     1       8.509   9.265  18.495  0.00  0.00    +0.000 A 
ATOM     11  C   UNL     1       8.712   7.988  19.026  0.00  0.00    +0.000 A 
ATOM     12  C   UNL     1       8.026   6.888  18.503  0.00  0.00    +0.000 A 
BRANCH  10  13
ATOM     13  C   UNL     1       9.374  10.413  18.941  0.00  0.00    +0.000 C 
ATOM     14  F   UNL     1       8.769  11.627  18.816  0.00  0.00    +0.000 F 
ATOM     15  F   UNL     1       9.762  10.316  20.241  0.00  0.00    +0.000 F 
ATOM     16  F   UNL     1      10.523  10.498  18.212  0.00  0.00    +0.000 F 
ENDBRANCH  10  13
ENDBRANCH   6   7
BRANCH   1  18
ATOM     17  N   UNL     1       3.444   7.092  17.698  0.00  0.00    +0.000 N 
ATOM     18  C   UNL     1       4.234   6.070  18.224  0.00  0.00    +0.000 C 
ATOM     19  O   UNL     1       4.283   5.757  19.409  0.00  0.00    +0.000 OA
ATOM     20  H   UNL     1       3.558   7.311  16.717  0.00  0.00    +0.000 HD
BRANCH  17  27
ATOM     21  C   UNL     1      -0.642   9.740  23.008  0.00  0.00    +0.000 C 
ATOM     22  C   UNL     1       0.078   9.388  21.769  0.00  0.00    +0.000 A 
ATOM     23  N   UNL     1      -0.149  10.073  20.613  0.00  0.00    +0.000 NA
ATOM     24  C   UNL     1       0.656   9.488  19.763  0.00  0.00    +0.000 A 
ATOM     25  C   UNL     1       0.913   9.726  18.398  0.00  0.00    +0.000 A 
ATOM     26  C   UNL     1       1.805   8.965  17.747  0.00  0.00    +0.000 A 
ATOM     27  C   UNL     1       2.535   7.876  18.396  0.00  0.00    +0.000 A 
ATOM     28  C   UNL     1       2.299   7.666  19.703  0.00  0.00    +0.000 A 
ATOM     29  N   UNL     1       1.363   8.459  20.390  0.00  0.00    +0.000 N 
ATOM     30  N   UNL     1       0.982   8.403  21.691  0.00  0.00    +0.000 NA
ENDBRANCH  17  27
ENDBRANCH   1  18
TORSDOF 4
ENDMDL
MODEL 8
REMARK VINA RESULT:      -7.9      3.608      5.180
REMARK  Name = 
REMARK  5 active torsions:
REMARK  status: ('A' for Active; 'I' for Inactive)
REMARK    1  A    between atoms: C_1  and  C_2
REMARK    2  A    between atoms: C_7  and  N_8
REMARK    3  A    between atoms: C_9  and  C_11
REMARK    4  A    between atoms: C_16  and  C_17
REMARK    5  A    between atoms: C_20  and  C_21
REMARK                            x       y       z     vdW  Elec       q    Type
REMARK                         _______ _______ _______ _____ _____    ______ ____
ROOT
ATOM      1  C   UNL     1       2.519   4.266  18.873  0.00  0.00    +0.000 A 
ATOM      2  C   UNL     1       1.586   3.253  19.171  0.00  0.00    +0.000 A 
ATOM      3  C   UNL     1       1.929   1.905  19.052  0.00  0.00    +0.000 A 
ATOM      4  C   UNL     1       3.200   1.556  18.623  0.00  0.00    +0.000 A 
ATOM      5  C   UNL     1       4.139   2.548  18.347  0.00  0.00    +0.000 A 
ATOM      6  C   UNL     1       3.843   3.927  18.472  0.00  0.00    +0.000 A 
ENDROOT
BRANCH   6   7
ATOM      7  C   UNL     1       4.940   4.907  18.219  0.00  0.00    +0.000 A 
ATOM      8  C   UNL     1       6.058   4.985  19.073  0.00  0.00    +0.000 A 
ATOM      9  C   UNL     1       7.025   5.984  18.925  0.00  0.00    +0.000 A 
ATOM     10  C   UNL     1       6.930   6.919  17.890  0.00  0.00    +0.000 A 
ATOM     11  C   UNL     1       5.878   6.801  16.977  0.00  0.00    +0.000 A 
ATOM     12  C   UNL     1       4.884   5.836  17.165  0.00  0.00    +0.000 A 
BRANCH  10  13
ATOM     13  C   UNL     1       7.898   8.066  17.780  0.00  0.00    +0.000 C 
ATOM     14  F   UNL     1       7.292   9.286  17.756  0.00  0.00    +0.000 F 
ATOM     15  F   UNL     1       8.794   8.109  18.801  0.00  0.00    +0.000 F 
ATOM     16  F   UNL     1       8.637   8.001  16.635  0.00  0.00    +0.000 F 
ENDBRANCH  10  13
ENDBRANCH   6   7
BRANCH   1  18
ATOM     17  N   UNL     1       2.085   6.407  20.030  0.00  0.00    +0.000 N 
ATOM     18  C   UNL     1       2.032   5.679  18.842  0.00  0.00    +0.000 C 
ATOM     19  O   UNL     1       1.585   6.097  17.779  0.00  0.00    +0.000 OA
ATOM     20  H   UNL     1       2.396   5.921  20.861  0.00  0.00    +0.000 HD
BRANCH  17  27
ATOM     21  C   UNL     1       0.918  13.403  18.762  0.00  0.00    +0.000 C 
ATOM     22  C   UNL     1       1.061  12.024  19.269  0.00  0.00    +0.000 A 
ATOM     23  N   UNL     1       0.703  11.710  20.546  0.00  0.00    +0.000 NA
ATOM     24  C   UNL     1       0.965  10.430  20.617  0.00  0.00    +0.000 A 
ATOM     25  C   UNL     1       0.811   9.498  21.662  0.00  0.00    +0.000 A 
ATOM     26  C   UNL     1       1.162   8.218  21.468  0.00  0.00    +0.000 A 
ATOM     27  C   UNL     1       1.714   7.735  20.203  0.00  0.00    +0.000 A 
ATOM     28  C   UNL     1       1.842   8.625  19.204  0.00  0.00    +0.000 A 
ATOM     29  N   UNL     1       1.476   9.968  19.401  0.00  0.00    +0.000 N 
ATOM     30  N   UNL     1       1.534  11.010  18.533  0.00  0.00    +0.000 NA
ENDBRANCH  17  27
ENDBRANCH   1  18
TORSDOF 4
ENDMDL
MODEL 9
REMARK VINA RESULT:      -7.9      3.676      5.143
REMARK  Name = 
REMARK  5 active torsions:
REMARK  status: ('A' for Active; 'I' for Inactive)
REMARK    1  A    between atoms: C_1  and  C_2
REMARK    2  A    between atoms: C_7  and  N_8
REMARK    3  A    between atoms: C_9  and  C_11
REMARK    4  A    between atoms: C_16  and  C_17
REMARK    5  A    between atoms: C_20  and  C_21
REMARK                            x       y       z     vdW  Elec       q    Type
REMARK                         _______ _______ _______ _____ _____    ______ ____
ROOT
ATOM      1  C   UNL     1       2.106   4.291  19.436  0.00  0.00    +0.000 A 
ATOM      2  C   UNL     1       1.143   3.267  19.535  0.00  0.00    +0.000 A 
ATOM      3  C   UNL     1       1.203   2.145  18.707  0.00  0.00    +0.000 A 
ATOM      4  C   UNL     1       2.214   2.039  17.767  0.00  0.00    +0.000 A 
ATOM      5  C   UNL     1       3.186   3.034  17.674  0.00  0.00    +0.000 A 
ATOM      6  C   UNL     1       3.178   4.180  18.504  0.00  0.00    +0.000 A 
ENDROOT
BRANCH   6   7
ATOM      7  C   UNL     1       4.303   5.153  18.372  0.00  0.00    +0.000 A 
ATOM      8  C   UNL     1       4.262   6.188  17.417  0.00  0.00    +0.000 A 
ATOM      9  C   UNL     1       5.362   7.022  17.192  0.00  0.00    +0.000 A 
ATOM     10  C   UNL     1       6.530   6.876  17.945  0.00  0.00    +0.000 A 
ATOM     11  C   UNL     1       6.557   5.916  18.960  0.00  0.00    +0.000 A 
ATOM     12  C   UNL     1       5.476   5.049  19.140  0.00  0.00    +0.000 A 
BRANCH  10  13
ATOM     13  C   UNL     1       7.761   7.689  17.644  0.00  0.00    +0.000 C 
ATOM     14  F   UNL     1       7.518   9.027  17.555  0.00  0.00    +0.000 F 
ATOM     15  F   UNL     1       8.739   7.544  18.578  0.00  0.00    +0.000 F 
ATOM     16  F   UNL     1       8.324   7.338  16.453  0.00  0.00    +0.000 F 
ENDBRANCH  10  13
ENDBRANCH   6   7
BRANCH   1  18
ATOM     17  N   UNL     1       1.686   6.728  19.503  0.00  0.00    +0.000 N 
ATOM     18  C   UNL     1       1.878   5.545  20.218  0.00  0.00    +0.000 C 
ATOM     19  O   UNL     1       1.909   5.459  21.441  0.00  0.00    +0.000 OA
ATOM     20  H   UNL     1       1.769   6.682  18.496  0.00  0.00    +0.000 HD
BRANCH  17  27
ATOM     21  C   UNL     1       0.607  13.828  20.070  0.00  0.00    +0.000 C 
ATOM     22  C   UNL     1       0.792  12.372  20.222  0.00  0.00    +0.000 A 
ATOM     23  N   UNL     1       0.714  11.784  21.449  0.00  0.00    +0.000 NA
ATOM     24  C   UNL     1       0.922  10.519  21.181  0.00  0.00    +0.000 A 
ATOM     25  C   UNL     1       0.960   9.379  22.008  0.00  0.00    +0.000 A 
ATOM     26  C   UNL     1       1.197   8.175  21.468  0.00  0.00    +0.000 A 
ATOM     27  C   UNL     1       1.428   7.984  20.037  0.00  0.00    +0.000 A 
ATOM     28  C   UNL     1       1.373   9.072  19.250  0.00  0.00    +0.000 A 
ATOM     29  N   UNL     1       1.126  10.338  19.811  0.00  0.00    +0.000 N 
ATOM     30  N   UNL     1       1.039  11.546  19.198  0.00  0.00    +0.000 NA
ENDBRANCH  17  27
ENDBRANCH   1  18
TORSDOF 4
ENDMDL
