MODEL 1
REMARK VINA RESULT:      -9.3      0.000      0.000
REMARK  Name = 
REMARK  6 active torsions:
REMARK  status: ('A' for Active; 'I' for Inactive)
REMARK    1  A    between atoms: C_1  and  C_2
REMARK    2  A    between atoms: C_7  and  C_8
REMARK    3  A    between atoms: N_10  and  C_11
REMARK    4  A    between atoms: C_14  and  C_15
REMARK    5  A    between atoms: C_20  and  C_21
REMARK    6  A    between atoms: C_21  and  O_23
REMARK                            x       y       z     vdW  Elec       q    Type
REMARK                         _______ _______ _______ _____ _____    ______ ____
ROOT
ATOM      1  C   UNL     1       8.067   7.564  18.313  0.00  0.00    +0.000 A 
ATOM      2  C   UNL     1       7.303   7.649  17.146  0.00  0.00    +0.000 A 
ATOM      3  C   UNL     1       6.422   6.624  16.788  0.00  0.00    +0.000 A 
ATOM      4  C   UNL     1       6.325   5.475  17.574  0.00  0.00    +0.000 A 
ATOM      5  C   UNL     1       7.224   5.311  18.633  0.00  0.00    +0.000 A 
ATOM      6  C   UNL     1       8.049   6.368  19.035  0.00  0.00    +0.000 A 
ENDROOT
BRANCH   4   7
ATOM      7  C   UNL     1       5.262   4.481  17.241  0.00  0.00    +0.000 C 
ATOM      8  O   UNL     1       5.378   3.870  16.178  0.00  0.00    +0.000 OA
ATOM      9  N   UNL     1       4.155   4.307  18.085  0.00  0.00    +0.000 N 
ATOM     10  C   UNL     1       3.267   3.174  17.831  0.00  0.00    +0.000 C 
ATOM     11  C   UNL     1       1.797   3.582  17.911  0.00  0.00    +0.000 C 
ATOM     12  C   UNL     1       1.463   4.291  19.228  0.00  0.00    +0.000 C 
ATOM     13  C   UNL     1       2.423   5.466  19.435  0.00  0.00    +0.000 C 
ATOM     14  C   UNL     1       3.883   5.056  19.311  0.00  0.00    +0.000 C 
BRANCH  12  15
ATOM     15  C   UNL     1       1.484   3.353  20.413  0.00  0.00    +0.000 C 
ATOM     16  O   UNL     1       1.765   3.665  21.561  0.00  0.00    +0.000 OA
BRANCH  15  17
ATOM     17  O   UNL     1       1.124   2.081  20.094  0.00  0.00    +0.000 OA
ATOM     18  H   UNL     1       1.487   1.762  19.246  0.00  0.00    +0.000 HD
ENDBRANCH  15  17
ENDBRANCH  12  15
ENDBRANCH   4   7
BRANCH   1  21
ATOM     19  C   UNL     1       8.774   9.946  18.375  0.00  0.00    +0.000 C 
ATOM     20  O   UNL     1       8.025  10.379  17.505  0.00  0.00    +0.000 OA
ATOM     21  N   UNL     1       8.848   8.633  18.812  0.00  0.00    +0.000 N 
ATOM     22  H   UNL     1       9.381   8.447  19.653  0.00  0.00    +0.000 HD
BRANCH  19  29
ATOM     23  C   UNL     1      12.333  13.538  18.372  0.00  0.00    +0.000 C 
ATOM     24  C   UNL     1      11.320  12.691  19.084  0.00  0.00    +0.000 A 
ATOM     25  C   UNL     1      11.056  12.901  20.445  0.00  0.00    +0.000 A 
ATOM     26  C   UNL     1      10.100  12.132  21.097  0.00  0.00    +0.000 A 
ATOM     27  F   UNL     1       9.849  12.350  22.394  0.00  0.00    +0.000 F 
ATOM     28  C   UNL     1       9.391  11.154  20.421  0.00  0.00    +0.000 A 
ATOM     29  C   UNL     1       9.639  10.933  19.061  0.00  0.00    +0.000 A 
ATOM     30  C   UNL     1      10.606  11.697  18.392  0.00  0.00    +0.000 A 
ENDBRANCH  19  29
ENDBRANCH   1  21
TORSDOF 5
ENDMDL
MODEL 2
REMARK VINA RESULT:      -8.9      1.238      1.689
REMARK  Name = 
REMARK  6 active torsions:
REMARK  status: ('A' for Active; 'I' for Inactive)
REMARK    1  A    between atoms: C_1  and  C_2
REMARK    2  A    between atoms: C_7  and  C_8
REMARK    3  A    between atoms: N_10  and  C_11
REMARK    4  A    between atoms: C_14  and  C_15
REMARK    5  A    between atoms: C_20  and  C_21
REMARK    6  A    between atoms: C_21  and  O_23
REMARK                            x       y       z     vdW  Elec       q    Type
REMARK                         _______ _______ _______ _____ _____    ______ ____
ROOT
ATOM      1  C   UNL     1       8.215   8.549  18.211  0.00  0.00    +0.000 A 
ATOM      2  C   UNL     1       8.518   7.389  18.932  0.00  0.00    +0.000 A 
ATOM      3  C   UNL     1       7.777   6.218  18.753  0.00  0.00    +0.000 A 
ATOM      4  C   UNL     1       6.691   6.201  17.879  0.00  0.00    +0.000 A 
ATOM      5  C   UNL     1       6.276   7.407  17.304  0.00  0.00    +0.000 A 
ATOM      6  C   UNL     1       7.062   8.559  17.423  0.00  0.00    +0.000 A 
ENDROOT
BRANCH   4   7
ATOM      7  C   UNL     1       6.029   4.892  17.602  0.00  0.00    +0.000 C 
ATOM      8  O   UNL     1       6.678   4.058  16.968  0.00  0.00    +0.000 OA
ATOM      9  N   UNL     1       4.704   4.660  18.000  0.00  0.00    +0.000 N 
ATOM     10  C   UNL     1       4.184   3.297  17.904  0.00  0.00    +0.000 C 
ATOM     11  C   UNL     1       2.781   3.271  17.299  0.00  0.00    +0.000 C 
ATOM     12  C   UNL     1       1.816   4.205  18.035  0.00  0.00    +0.000 C 
ATOM     13  C   UNL     1       2.413   5.614  18.100  0.00  0.00    +0.000 C 
ATOM     14  C   UNL     1       3.826   5.623  18.665  0.00  0.00    +0.000 C 
BRANCH  12  15
ATOM     15  C   UNL     1       1.458   3.699  19.414  0.00  0.00    +0.000 C 
ATOM     16  O   UNL     1       1.278   4.397  20.402  0.00  0.00    +0.000 OA
BRANCH  15  17
ATOM     17  O   UNL     1       1.318   2.348  19.468  0.00  0.00    +0.000 OA
ATOM     18  H   UNL     1       0.689   1.984  18.817  0.00  0.00    +0.000 HD
ENDBRANCH  15  17
ENDBRANCH  12  15
ENDBRANCH   4   7
BRANCH   1  21
ATOM     19  C   UNL     1       9.318  10.462  19.351  0.00  0.00    +0.000 C 
ATOM     20  O   UNL     1       8.931  10.238  20.493  0.00  0.00    +0.000 OA
ATOM     21  N   UNL     1       9.024   9.709  18.226  0.00  0.00    +0.000 N 
ATOM     22  H   UNL     1       9.548   9.903  17.381  0.00  0.00    +0.000 HD
BRANCH  19  29
ATOM     23  C   UNL     1      12.333  13.379  16.528  0.00  0.00    +0.000 C 
ATOM     24  C   UNL     1      11.653  13.058  17.827  0.00  0.00    +0.000 A 
ATOM     25  C   UNL     1      11.757  13.938  18.913  0.00  0.00    +0.000 A 
ATOM     26  C   UNL     1      11.107  13.652  20.108  0.00  0.00    +0.000 A 
ATOM     27  F   UNL     1      11.205  14.506  21.134  0.00  0.00    +0.000 F 
ATOM     28  C   UNL     1      10.346  12.503  20.246  0.00  0.00    +0.000 A 
ATOM     29  C   UNL     1      10.229  11.615  19.170  0.00  0.00    +0.000 A 
ATOM     30  C   UNL     1      10.885  11.888  17.961  0.00  0.00    +0.000 A 
ENDBRANCH  19  29
ENDBRANCH   1  21
TORSDOF 5
ENDMDL
MODEL 3
REMARK VINA RESULT:      -8.8      6.340      8.848
REMARK  Name = 
REMARK  6 active torsions:
REMARK  status: ('A' for Active; 'I' for Inactive)
REMARK    1  A    between atoms: C_1  and  C_2
REMARK    2  A    between atoms: C_7  and  C_8
REMARK    3  A    between atoms: N_10  and  C_11
REMARK    4  A    between atoms: C_14  and  C_15
REMARK    5  A    between atoms: C_20  and  C_21
REMARK    6  A    between atoms: C_21  and  O_23
REMARK                            x       y       z     vdW  Elec       q    Type
REMARK                         _______ _______ _______ _____ _____    ______ ____
ROOT
ATOM      1  C   UNL     1       0.462   9.513  19.711  0.00  0.00    +0.000 A 
ATOM      2  C   UNL     1       0.929   9.704  18.407  0.00  0.00    +0.000 A 
ATOM      3  C   UNL     1       1.894   8.855  17.858  0.00  0.00    +0.000 A 
ATOM      4  C   UNL     1       2.440   7.824  18.623  0.00  0.00    +0.000 A 
ATOM      5  C   UNL     1       2.110   7.753  19.980  0.00  0.00    +0.000 A 
ATOM      6  C   UNL     1       1.089   8.552  20.507  0.00  0.00    +0.000 A 
ENDROOT
BRANCH   4   7
ATOM      7  C   UNL     1       3.348   6.850  17.948  0.00  0.00    +0.000 C 
ATOM      8  O   UNL     1       4.232   7.313  17.226  0.00  0.00    +0.000 OA
ATOM      9  N   UNL     1       3.151   5.468  18.094  0.00  0.00    +0.000 N 
ATOM     10  C   UNL     1       4.192   4.569  17.600  0.00  0.00    +0.000 C 
ATOM     11  C   UNL     1       3.599   3.396  16.820  0.00  0.00    +0.000 C 
ATOM     12  C   UNL     1       2.527   2.651  17.622  0.00  0.00    +0.000 C 
ATOM     13  C   UNL     1       1.466   3.644  18.107  0.00  0.00    +0.000 C 
ATOM     14  C   UNL     1       2.072   4.829  18.845  0.00  0.00    +0.000 C 
BRANCH  12  15
ATOM     15  C   UNL     1       3.107   1.864  18.775  0.00  0.00    +0.000 C 
ATOM     16  O   UNL     1       2.791   1.988  19.949  0.00  0.00    +0.000 OA
BRANCH  15  17
ATOM     17  O   UNL     1       4.031   0.945  18.383  0.00  0.00    +0.000 OA
ATOM     18  H   UNL     1       4.954   1.215  18.540  0.00  0.00    +0.000 HD
ENDBRANCH  15  17
ENDBRANCH  12  15
ENDBRANCH   4   7
BRANCH   1  21
ATOM     19  C   UNL     1      -0.518  11.238  21.208  0.00  0.00    +0.000 C 
ATOM     20  O   UNL     1       0.523  11.660  21.701  0.00  0.00    +0.000 OA
ATOM     21  N   UNL     1      -0.625  10.231  20.262  0.00  0.00    +0.000 N 
ATOM     22  H   UNL     1      -1.524  10.103  19.813  0.00  0.00    +0.000 HD
BRANCH  19  29
ATOM     23  C   UNL     1      -4.834  13.671  20.198  0.00  0.00    +0.000 C 
ATOM     24  C   UNL     1      -3.872  13.044  21.164  0.00  0.00    +0.000 A 
ATOM     25  C   UNL     1      -4.198  12.953  22.525  0.00  0.00    +0.000 A 
ATOM     26  C   UNL     1      -3.317  12.351  23.415  0.00  0.00    +0.000 A 
ATOM     27  F   UNL     1      -3.645  12.259  24.710  0.00  0.00    +0.000 F 
ATOM     28  C   UNL     1      -2.112  11.829  22.978  0.00  0.00    +0.000 A 
ATOM     29  C   UNL     1      -1.771  11.908  21.623  0.00  0.00    +0.000 A 
ATOM     30  C   UNL     1      -2.648  12.519  20.715  0.00  0.00    +0.000 A 
ENDBRANCH  19  29
ENDBRANCH   1  21
TORSDOF 5
ENDMDL
MODEL 4
REMARK VINA RESULT:      -8.7      6.442      8.962
REMARK  Name = 
REMARK  6 active torsions:
REMARK  status: ('A' for Active; 'I' for Inactive)
REMARK    1  A    between atoms: C_1  and  C_2
REMARK    2  A    between atoms: C_7  and  C_8
REMARK    3  A    between atoms: N_10  and  C_11
REMARK    4  A    between atoms: C_14  and  C_15
REMARK    5  A    between atoms: C_20  and  C_21
REMARK    6  A    between atoms: C_21  and  O_23
REMARK                            x       y       z     vdW  Elec       q    Type
REMARK                         _______ _______ _______ _____ _____    ______ ____
ROOT
ATOM      1  C   UNL     1       0.417   9.519  19.776  0.00  0.00    +0.000 A 
ATOM      2  C   UNL     1       0.906   9.738  18.484  0.00  0.00    +0.000 A 
ATOM      3  C   UNL     1       1.879   8.900  17.933  0.00  0.00    +0.000 A 
ATOM      4  C   UNL     1       2.413   7.853  18.685  0.00  0.00    +0.000 A 
ATOM      5  C   UNL     1       2.060   7.752  20.036  0.00  0.00    +0.000 A 
ATOM      6  C   UNL     1       1.031   8.541  20.563  0.00  0.00    +0.000 A 
ENDROOT
BRANCH   4   7
ATOM      7  C   UNL     1       3.330   6.892  18.005  0.00  0.00    +0.000 C 
ATOM      8  O   UNL     1       4.221   7.370  17.301  0.00  0.00    +0.000 OA
ATOM      9  N   UNL     1       3.136   5.508  18.126  0.00  0.00    +0.000 N 
ATOM     10  C   UNL     1       4.186   4.620  17.629  0.00  0.00    +0.000 C 
ATOM     11  C   UNL     1       3.605   3.458  16.825  0.00  0.00    +0.000 C 
ATOM     12  C   UNL     1       2.527   2.697  17.602  0.00  0.00    +0.000 C 
ATOM     13  C   UNL     1       1.458   3.678  18.092  0.00  0.00    +0.000 C 
ATOM     14  C   UNL     1       2.052   4.854  18.855  0.00  0.00    +0.000 C 
BRANCH  12  15
ATOM     15  C   UNL     1       3.097   1.893  18.748  0.00  0.00    +0.000 C 
ATOM     16  O   UNL     1       2.896   2.107  19.935  0.00  0.00    +0.000 OA
BRANCH  15  17
ATOM     17  O   UNL     1       3.864   0.847  18.338  0.00  0.00    +0.000 OA
ATOM     18  H   UNL     1       3.831   0.679  17.378  0.00  0.00    +0.000 HD
ENDBRANCH  15  17
ENDBRANCH  12  15
ENDBRANCH   4   7
BRANCH   1  21
ATOM     19  C   UNL     1      -0.584  11.223  21.283  0.00  0.00    +0.000 C 
ATOM     20  O   UNL     1       0.450  11.644  21.791  0.00  0.00    +0.000 OA
ATOM     21  N   UNL     1      -0.678  10.226  20.325  0.00  0.00    +0.000 N 
ATOM     22  H   UNL     1      -1.572  10.099  19.866  0.00  0.00    +0.000 HD
BRANCH  19  29
ATOM     23  C   UNL     1      -3.983  12.603  24.762  0.00  0.00    +0.000 C 
ATOM     24  C   UNL     1      -3.476  12.595  23.351  0.00  0.00    +0.000 A 
ATOM     25  C   UNL     1      -4.129  13.343  22.361  0.00  0.00    +0.000 A 
ATOM     26  C   UNL     1      -3.644  13.353  21.060  0.00  0.00    +0.000 A 
ATOM     27  F   UNL     1      -4.270  14.081  20.126  0.00  0.00    +0.000 F 
ATOM     28  C   UNL     1      -2.512  12.634  20.717  0.00  0.00    +0.000 A 
ATOM     29  C   UNL     1      -1.845  11.883  21.693  0.00  0.00    +0.000 A 
ATOM     30  C   UNL     1      -2.327  11.859  23.009  0.00  0.00    +0.000 A 
ENDBRANCH  19  29
ENDBRANCH   1  21
TORSDOF 5
ENDMDL
MODEL 5
REMARK VINA RESULT:      -8.6      6.422      8.478
REMARK  Name = 
REMARK  6 active torsions:
REMARK  status: ('A' for Active; 'I' for Inactive)
REMARK    1  A    between atoms: C_1  and  C_2
REMARK    2  A    between atoms: C_7  and  C_8
REMARK    3  A    between atoms: N_10  and  C_11
REMARK    4  A    between atoms: C_14  and  C_15
REMARK    5  A    between atoms: C_20  and  C_21
REMARK    6  A    between atoms: C_21  and  O_23
REMARK                            x       y       z     vdW  Elec       q    Type
REMARK                         _______ _______ _______ _____ _____    ______ ____
ROOT
ATOM      1  C   UNL     1       0.561   9.633  20.072  0.00  0.00    +0.000 A 
ATOM      2  C   UNL     1       1.084   8.511  20.722  0.00  0.00    +0.000 A 
ATOM      3  C   UNL     1       1.942   7.630  20.057  0.00  0.00    +0.000 A 
ATOM      4  C   UNL     1       2.257   7.837  18.714  0.00  0.00    +0.000 A 
ATOM      5  C   UNL     1       1.587   8.849  18.018  0.00  0.00    +0.000 A 
ATOM      6  C   UNL     1       0.790   9.774  18.702  0.00  0.00    +0.000 A 
ENDROOT
BRANCH   4   7
ATOM      7  C   UNL     1       3.297   6.965  18.092  0.00  0.00    +0.000 C 
ATOM      8  O   UNL     1       4.209   7.526  17.483  0.00  0.00    +0.000 OA
ATOM      9  N   UNL     1       3.192   5.567  18.156  0.00  0.00    +0.000 N 
ATOM     10  C   UNL     1       4.342   4.771  17.729  0.00  0.00    +0.000 C 
ATOM     11  C   UNL     1       3.917   3.600  16.844  0.00  0.00    +0.000 C 
ATOM     12  C   UNL     1       2.832   2.740  17.501  0.00  0.00    +0.000 C 
ATOM     13  C   UNL     1       1.658   3.629  17.921  0.00  0.00    +0.000 C 
ATOM     14  C   UNL     1       2.098   4.816  18.768  0.00  0.00    +0.000 C 
BRANCH  12  15
ATOM     15  C   UNL     1       3.357   1.939  18.671  0.00  0.00    +0.000 C 
ATOM     16  O   UNL     1       3.243   2.244  19.849  0.00  0.00    +0.000 OA
BRANCH  15  17
ATOM     17  O   UNL     1       3.970   0.784  18.295  0.00  0.00    +0.000 OA
ATOM     18  H   UNL     1       4.581   0.420  18.962  0.00  0.00    +0.000 HD
ENDBRANCH  15  17
ENDBRANCH  12  15
ENDBRANCH   4   7
BRANCH   1  21
ATOM     19  C   UNL     1      -0.191  10.851  22.104  0.00  0.00    +0.000 C 
ATOM     20  O   UNL     1       0.428  10.204  22.941  0.00  0.00    +0.000 OA
ATOM     21  N   UNL     1      -0.175  10.643  20.734  0.00  0.00    +0.000 N 
ATOM     22  H   UNL     1      -0.590  11.356  20.146  0.00  0.00    +0.000 HD
BRANCH  19  29
ATOM     23  C   UNL     1      -1.094  15.806  22.552  0.00  0.00    +0.000 C 
ATOM     24  C   UNL     1      -1.466  14.374  22.799  0.00  0.00    +0.000 A 
ATOM     25  C   UNL     1      -2.684  14.058  23.418  0.00  0.00    +0.000 A 
ATOM     26  C   UNL     1      -3.038  12.730  23.625  0.00  0.00    +0.000 A 
ATOM     27  F   UNL     1      -4.209  12.441  24.206  0.00  0.00    +0.000 F 
ATOM     28  C   UNL     1      -2.204  11.701  23.223  0.00  0.00    +0.000 A 
ATOM     29  C   UNL     1      -0.985  11.998  22.601  0.00  0.00    +0.000 A 
ATOM     30  C   UNL     1      -0.612  13.334  22.392  0.00  0.00    +0.000 A 
ENDBRANCH  19  29
ENDBRANCH   1  21
TORSDOF 5
ENDMDL
MODEL 6
REMARK VINA RESULT:      -8.5      7.070      9.272
REMARK  Name = 
REMARK  6 active torsions:
REMARK  status: ('A' for Active; 'I' for Inactive)
REMARK    1  A    between atoms: C_1  and  C_2
REMARK    2  A    between atoms: C_7  and  C_8
REMARK    3  A    between atoms: N_10  and  C_11
REMARK    4  A    between atoms: C_14  and  C_15
REMARK    5  A    between atoms: C_20  and  C_21
REMARK    6  A    between atoms: C_21  and  O_23
REMARK                            x       y       z     vdW  Elec       q    Type
REMARK                         _______ _______ _______ _____ _____    ______ ____
ROOT
ATOM      1  C   UNL     1       0.079  10.166  21.352  0.00  0.00    +0.000 A 
ATOM      2  C   UNL     1       0.290  10.327  19.979  0.00  0.00    +0.000 A 
ATOM      3  C   UNL     1       1.059   9.410  19.258  0.00  0.00    +0.000 A 
ATOM      4  C   UNL     1       1.667   8.337  19.911  0.00  0.00    +0.000 A 
ATOM      5  C   UNL     1       1.610   8.285  21.308  0.00  0.00    +0.000 A 
ATOM      6  C   UNL     1       0.778   9.157  22.019  0.00  0.00    +0.000 A 
ENDROOT
BRANCH   4   7
ATOM      7  C   UNL     1       2.346   7.300  19.080  0.00  0.00    +0.000 C 
ATOM      8  O   UNL     1       2.822   7.665  18.004  0.00  0.00    +0.000 OA
ATOM      9  N   UNL     1       2.379   5.959  19.493  0.00  0.00    +0.000 N 
ATOM     10  C   UNL     1       3.242   5.034  18.761  0.00  0.00    +0.000 C 
ATOM     11  C   UNL     1       2.530   3.714  18.468  0.00  0.00    +0.000 C 
ATOM     12  C   UNL     1       1.945   3.078  19.733  0.00  0.00    +0.000 C 
ATOM     13  C   UNL     1       1.051   4.092  20.451  0.00  0.00    +0.000 C 
ATOM     14  C   UNL     1       1.757   5.418  20.701  0.00  0.00    +0.000 C 
BRANCH  12  15
ATOM     15  C   UNL     1       3.013   2.538  20.657  0.00  0.00    +0.000 C 
ATOM     16  O   UNL     1       2.919   2.446  21.872  0.00  0.00    +0.000 OA
BRANCH  15  17
ATOM     17  O   UNL     1       4.127   2.118  19.999  0.00  0.00    +0.000 OA
ATOM     18  H   UNL     1       4.885   2.727  20.067  0.00  0.00    +0.000 HD
ENDBRANCH  15  17
ENDBRANCH  12  15
ENDBRANCH   4   7
BRANCH   1  21
ATOM     19  C   UNL     1      -0.643  12.307  22.388  0.00  0.00    +0.000 C 
ATOM     20  O   UNL     1       0.302  13.005  22.036  0.00  0.00    +0.000 OA
ATOM     21  N   UNL     1      -0.819  10.963  22.101  0.00  0.00    +0.000 N 
ATOM     22  H   UNL     1      -1.724  10.554  22.302  0.00  0.00    +0.000 HD
BRANCH  19  29
ATOM     23  C   UNL     1      -5.167  12.345  24.647  0.00  0.00    +0.000 C 
ATOM     24  C   UNL     1      -3.879  13.017  24.272  0.00  0.00    +0.000 A 
ATOM     25  C   UNL     1      -3.588  14.303  24.747  0.00  0.00    +0.000 A 
ATOM     26  C   UNL     1      -2.384  14.913  24.419  0.00  0.00    +0.000 A 
ATOM     27  F   UNL     1      -2.114  16.138  24.889  0.00  0.00    +0.000 F 
ATOM     28  C   UNL     1      -1.453  14.267  23.625  0.00  0.00    +0.000 A 
ATOM     29  C   UNL     1      -1.725  12.981  23.143  0.00  0.00    +0.000 A 
ATOM     30  C   UNL     1      -2.938  12.355  23.462  0.00  0.00    +0.000 A 
ENDBRANCH  19  29
ENDBRANCH   1  21
TORSDOF 5
ENDMDL
MODEL 7
REMARK VINA RESULT:      -8.4      6.305      8.695
REMARK  Name = 
REMARK  6 active torsions:
REMARK  status: ('A' for Active; 'I' for Inactive)
REMARK    1  A    between atoms: C_1  and  C_2
REMARK    2  A    between atoms: C_7  and  C_8
REMARK    3  A    between atoms: N_10  and  C_11
REMARK    4  A    between atoms: C_14  and  C_15
REMARK    5  A    between atoms: C_20  and  C_21
REMARK    6  A    between atoms: C_21  and  O_23
REMARK                            x       y       z     vdW  Elec       q    Type
REMARK                         _______ _______ _______ _____ _____    ______ ____
ROOT
ATOM      1  C   UNL     1       0.412   9.725  20.207  0.00  0.00    +0.000 A 
ATOM      2  C   UNL     1       0.938   8.617  20.878  0.00  0.00    +0.000 A 
ATOM      3  C   UNL     1       1.813   7.737  20.235  0.00  0.00    +0.000 A 
ATOM      4  C   UNL     1       2.143   7.929  18.894  0.00  0.00    +0.000 A 
ATOM      5  C   UNL     1       1.472   8.925  18.176  0.00  0.00    +0.000 A 
ATOM      6  C   UNL     1       0.656   9.851  18.838  0.00  0.00    +0.000 A 
ENDROOT
BRANCH   4   7
ATOM      7  C   UNL     1       3.200   7.061  18.296  0.00  0.00    +0.000 C 
ATOM      8  O   UNL     1       4.189   7.624  17.824  0.00  0.00    +0.000 OA
ATOM      9  N   UNL     1       3.030   5.670  18.228  0.00  0.00    +0.000 N 
ATOM     10  C   UNL     1       4.180   4.855  17.841  0.00  0.00    +0.000 C 
ATOM     11  C   UNL     1       3.792   3.784  16.822  0.00  0.00    +0.000 C 
ATOM     12  C   UNL     1       2.615   2.929  17.300  0.00  0.00    +0.000 C 
ATOM     13  C   UNL     1       1.445   3.837  17.686  0.00  0.00    +0.000 C 
ATOM     14  C   UNL     1       1.852   4.926  18.669  0.00  0.00    +0.000 C 
BRANCH  12  15
ATOM     15  C   UNL     1       2.991   2.008  18.438  0.00  0.00    +0.000 C 
ATOM     16  O   UNL     1       4.122   1.837  18.869  0.00  0.00    +0.000 OA
BRANCH  15  17
ATOM     17  O   UNL     1       1.920   1.375  18.989  0.00  0.00    +0.000 OA
ATOM     18  H   UNL     1       1.787   0.463  18.671  0.00  0.00    +0.000 HD
ENDBRANCH  15  17
ENDBRANCH  12  15
ENDBRANCH   4   7
BRANCH   1  21
ATOM     19  C   UNL     1      -0.416  10.931  22.216  0.00  0.00    +0.000 C 
ATOM     20  O   UNL     1       0.159  10.269  23.073  0.00  0.00    +0.000 OA
ATOM     21  N   UNL     1      -0.343  10.736  20.846  0.00  0.00    +0.000 N 
ATOM     22  H   UNL     1      -0.726  11.459  20.248  0.00  0.00    +0.000 HD
BRANCH  19  29
ATOM     23  C   UNL     1      -4.535  12.922  24.371  0.00  0.00    +0.000 C 
ATOM     24  C   UNL     1      -3.172  13.063  23.759  0.00  0.00    +0.000 A 
ATOM     25  C   UNL     1      -2.537  14.312  23.731  0.00  0.00    +0.000 A 
ATOM     26  C   UNL     1      -1.265  14.437  23.186  0.00  0.00    +0.000 A 
ATOM     27  F   UNL     1      -0.664  15.633  23.176  0.00  0.00    +0.000 F 
ATOM     28  C   UNL     1      -0.602  13.337  22.668  0.00  0.00    +0.000 A 
ATOM     29  C   UNL     1      -1.221  12.081  22.690  0.00  0.00    +0.000 A 
ATOM     30  C   UNL     1      -2.507  11.942  23.231  0.00  0.00    +0.000 A 
ENDBRANCH  19  29
ENDBRANCH   1  21
TORSDOF 5
ENDMDL
MODEL 8
REMARK VINA RESULT:      -8.4      1.306      1.848
REMARK  Name = 
REMARK  6 active torsions:
REMARK  status: ('A' for Active; 'I' for Inactive)
REMARK    1  A    between atoms: C_1  and  C_2
REMARK    2  A    between atoms: C_7  and  C_8
REMARK    3  A    between atoms: N_10  and  C_11
REMARK    4  A    between atoms: C_14  and  C_15
REMARK    5  A    between atoms: C_20  and  C_21
REMARK    6  A    between atoms: C_21  and  O_23
REMARK                            x       y       z     vdW  Elec       q    Type
REMARK                         _______ _______ _______ _____ _____    ______ ____
ROOT
ATOM      1  C   UNL     1       7.661   7.266  18.083  0.00  0.00    +0.000 A 
ATOM      2  C   UNL     1       6.552   7.400  17.242  0.00  0.00    +0.000 A 
ATOM      3  C   UNL     1       5.677   6.331  17.031  0.00  0.00    +0.000 A 
ATOM      4  C   UNL     1       5.923   5.094  17.628  0.00  0.00    +0.000 A 
ATOM      5  C   UNL     1       7.128   4.910  18.313  0.00  0.00    +0.000 A 
ATOM      6  C   UNL     1       7.964   5.999  18.587  0.00  0.00    +0.000 A 
ENDROOT
BRANCH   4   7
ATOM      7  C   UNL     1       4.882   4.032  17.503  0.00  0.00    +0.000 C 
ATOM      8  O   UNL     1       4.903   3.342  16.483  0.00  0.00    +0.000 OA
ATOM      9  N   UNL     1       3.893   3.878  18.487  0.00  0.00    +0.000 N 
ATOM     10  C   UNL     1       3.042   2.691  18.428  0.00  0.00    +0.000 C 
ATOM     11  C   UNL     1       1.572   3.042  18.657  0.00  0.00    +0.000 C 
ATOM     12  C   UNL     1       1.360   3.839  19.947  0.00  0.00    +0.000 C 
ATOM     13  C   UNL     1       2.274   5.068  19.947  0.00  0.00    +0.000 C 
ATOM     14  C   UNL     1       3.730   4.712  19.677  0.00  0.00    +0.000 C 
BRANCH  12  15
ATOM     15  C   UNL     1       1.571   3.001  21.188  0.00  0.00    +0.000 C 
ATOM     16  O   UNL     1       1.272   1.822  21.307  0.00  0.00    +0.000 OA
BRANCH  15  17
ATOM     17  O   UNL     1       2.171   3.686  22.199  0.00  0.00    +0.000 OA
ATOM     18  H   UNL     1       1.552   4.176  22.772  0.00  0.00    +0.000 HD
ENDBRANCH  15  17
ENDBRANCH  12  15
ENDBRANCH   4   7
BRANCH   1  21
ATOM     19  C   UNL     1       8.316   9.663  18.053  0.00  0.00    +0.000 C 
ATOM     20  O   UNL     1       7.433  10.082  17.312  0.00  0.00    +0.000 OA
ATOM     21  N   UNL     1       8.486   8.350  18.463  0.00  0.00    +0.000 N 
ATOM     22  H   UNL     1       9.146   8.174  19.210  0.00  0.00    +0.000 HD
BRANCH  19  29
ATOM     23  C   UNL     1      10.067  12.560  21.810  0.00  0.00    +0.000 C 
ATOM     24  C   UNL     1      10.143  12.041  20.404  0.00  0.00    +0.000 A 
ATOM     25  C   UNL     1      11.216  12.401  19.576  0.00  0.00    +0.000 A 
ATOM     26  C   UNL     1      11.298  11.901  18.283  0.00  0.00    +0.000 A 
ATOM     27  F   UNL     1      12.333  12.243  17.506  0.00  0.00    +0.000 F 
ATOM     28  C   UNL     1      10.332  11.040  17.791  0.00  0.00    +0.000 A 
ATOM     29  C   UNL     1       9.255  10.667  18.605  0.00  0.00    +0.000 A 
ATOM     30  C   UNL     1       9.157  11.169  19.910  0.00  0.00    +0.000 A 
ENDBRANCH  19  29
ENDBRANCH   1  21
TORSDOF 5
ENDMDL
MODEL 9
REMARK VINA RESULT:      -8.4      7.344      9.315
REMARK  Name = 
REMARK  6 active torsions:
REMARK  status: ('A' for Active; 'I' for Inactive)
REMARK    1  A    between atoms: C_1  and  C_2
REMARK    2  A    between atoms: C_7  and  C_8
REMARK    3  A    between atoms: N_10  and  C_11
REMARK    4  A    between atoms: C_14  and  C_15
REMARK    5  A    between atoms: C_20  and  C_21
REMARK    6  A    between atoms: C_21  and  O_23
REMARK                            x       y       z     vdW  Elec       q    Type
REMARK                         _______ _______ _______ _____ _____    ______ ____
ROOT
ATOM      1  C   UNL     1       0.026  10.207  21.362  0.00  0.00    +0.000 A 
ATOM      2  C   UNL     1       0.128  10.299  19.970  0.00  0.00    +0.000 A 
ATOM      3  C   UNL     1       0.907   9.391  19.246  0.00  0.00    +0.000 A 
ATOM      4  C   UNL     1       1.631   8.401  19.909  0.00  0.00    +0.000 A 
ATOM      5  C   UNL     1       1.676   8.429  21.308  0.00  0.00    +0.000 A 
ATOM      6  C   UNL     1       0.838   9.287  22.029  0.00  0.00    +0.000 A 
ENDROOT
BRANCH   4   7
ATOM      7  C   UNL     1       2.319   7.361  19.089  0.00  0.00    +0.000 C 
ATOM      8  O   UNL     1       2.804   7.723  18.016  0.00  0.00    +0.000 OA
ATOM      9  N   UNL     1       2.352   6.023  19.508  0.00  0.00    +0.000 N 
ATOM     10  C   UNL     1       3.222   5.096  18.787  0.00  0.00    +0.000 C 
ATOM     11  C   UNL     1       2.516   3.774  18.494  0.00  0.00    +0.000 C 
ATOM     12  C   UNL     1       1.921   3.141  19.756  0.00  0.00    +0.000 C 
ATOM     13  C   UNL     1       1.019   4.157  20.462  0.00  0.00    +0.000 C 
ATOM     14  C   UNL     1       1.720   5.485  20.712  0.00  0.00    +0.000 C 
BRANCH  12  15
ATOM     15  C   UNL     1       2.982   2.608  20.692  0.00  0.00    +0.000 C 
ATOM     16  O   UNL     1       2.874   2.513  21.906  0.00  0.00    +0.000 OA
BRANCH  15  17
ATOM     17  O   UNL     1       4.107   2.197  20.046  0.00  0.00    +0.000 OA
ATOM     18  H   UNL     1       4.218   1.229  20.014  0.00  0.00    +0.000 HD
ENDBRANCH  15  17
ENDBRANCH  12  15
ENDBRANCH   4   7
BRANCH   1  21
ATOM     19  C   UNL     1      -0.696  12.327  22.439  0.00  0.00    +0.000 C 
ATOM     20  O   UNL     1       0.244  13.034  22.094  0.00  0.00    +0.000 OA
ATOM     21  N   UNL     1      -0.869  10.987  22.130  0.00  0.00    +0.000 N 
ATOM     22  H   UNL     1      -1.771  10.572  22.329  0.00  0.00    +0.000 HD
BRANCH  19  29
ATOM     23  C   UNL     1      -2.941  16.410  24.404  0.00  0.00    +0.000 C 
ATOM     24  C   UNL     1      -2.897  14.934  24.135  0.00  0.00    +0.000 A 
ATOM     25  C   UNL     1      -3.975  14.117  24.505  0.00  0.00    +0.000 A 
ATOM     26  C   UNL     1      -3.943  12.755  24.234  0.00  0.00    +0.000 A 
ATOM     27  F   UNL     1      -4.984  11.987  24.582  0.00  0.00    +0.000 F 
ATOM     28  C   UNL     1      -2.858  12.182  23.593  0.00  0.00    +0.000 A 
ATOM     29  C   UNL     1      -1.775  12.984  23.213  0.00  0.00    +0.000 A 
ATOM     30  C   UNL     1      -1.790  14.359  23.486  0.00  0.00    +0.000 A 
ENDBRANCH  19  29
ENDBRANCH   1  21
TORSDOF 5
ENDMDL
