MODEL 1
REMARK VINA RESULT:      -9.1      0.000      0.000
REMARK  Name = 
REMARK  2 active torsions:
REMARK  status: ('A' for Active; 'I' for Inactive)
REMARK    1  A    between atoms: C_13  and  C_14
REMARK    2  A    between atoms: C_18  and  C_19
REMARK                            x       y       z     vdW  Elec       q    Type
REMARK                         _______ _______ _______ _____ _____    ______ ____
ROOT
ATOM      1  N   UNL     1      -0.853  12.446  22.826  0.00  0.00    +0.000 N 
ATOM      2  C   UNL     1      -1.273  11.960  21.634  0.00  0.00    +0.000 C 
ATOM      3  N   UNL     1      -2.286  12.473  21.021  0.00  0.00    +0.000 NA
ATOM      4  C   UNL     1      -2.618  11.935  19.821  0.00  0.00    +0.000 A 
ATOM      5  N   UNL     1      -3.608  12.269  19.017  0.00  0.00    +0.000 NA
ATOM      6  C   UNL     1      -3.451  11.518  17.878  0.00  0.00    +0.000 A 
ATOM      7  C   UNL     1      -4.188  11.538  16.684  0.00  0.00    +0.000 A 
ATOM      8  C   UNL     1      -3.797  10.697  15.635  0.00  0.00    +0.000 A 
ATOM      9  C   UNL     1      -2.699   9.846  15.772  0.00  0.00    +0.000 A 
ATOM     10  C   UNL     1      -1.960   9.801  16.960  0.00  0.00    +0.000 A 
ATOM     11  C   UNL     1      -2.365  10.657  17.990  0.00  0.00    +0.000 A 
ATOM     12  N   UNL     1      -1.857  10.949  19.231  0.00  0.00    +0.000 N 
ATOM     13  C   UNL     1      -0.620  10.468  19.855  0.00  0.00    +0.000 C 
ATOM     14  N   UNL     1      -0.503  10.915  21.240  0.00  0.00    +0.000 N 
ATOM     15  H   UNL     1      -1.520  13.123  23.186  0.00  0.00    +0.000 HD
ATOM     16  H   UNL     1      -0.663  11.728  23.515  0.00  0.00    +0.000 HD
ATOM     17  H   UNL     1       0.462  10.986  21.547  0.00  0.00    +0.000 HD
ENDROOT
BRANCH  13  18
ATOM     18  C   UNL     1       0.560  10.816  18.986  0.00  0.00    +0.000 A 
ATOM     19  C   UNL     1       0.940  12.092  18.597  0.00  0.00    +0.000 A 
ATOM     20  N   UNL     1       2.037  11.957  17.816  0.00  0.00    +0.000 N 
ATOM     21  N   UNL     1       2.413  10.690  17.664  0.00  0.00    +0.000 NA
ATOM     22  C   UNL     1       1.587   9.972  18.445  0.00  0.00    +0.000 A 
ATOM     23  H   UNL     1       2.594  12.680  17.373  0.00  0.00    +0.000 HD
BRANCH  22  24
ATOM     24  C   UNL     1       1.955   8.582  18.742  0.00  0.00    +0.000 A 
ATOM     25  C   UNL     1       1.642   7.895  19.920  0.00  0.00    +0.000 A 
ATOM     26  C   UNL     1       2.242   6.650  20.189  0.00  0.00    +0.000 A 
ATOM     27  C   UNL     1       3.161   6.104  19.290  0.00  0.00    +0.000 A 
ATOM     28  C   UNL     1       3.370   6.726  18.069  0.00  0.00    +0.000 A 
ATOM     29  C   UNL     1       2.770   7.942  17.792  0.00  0.00    +0.000 A 
ATOM     30  O   UNL     1       4.208   6.219  17.117  0.00  0.00    +0.000 OA
ATOM     31  C   UNL     1       5.347   5.689  17.784  0.00  0.00    +0.000 C 
ATOM     32  C   UNL     1       4.951   4.642  18.820  0.00  0.00    +0.000 C 
ATOM     33  O   UNL     1       3.855   4.996  19.683  0.00  0.00    +0.000 OA
ENDBRANCH  22  24
ENDBRANCH  13  18
TORSDOF 2
ENDMDL
MODEL 2
REMARK VINA RESULT:      -8.2      0.936      1.737
REMARK  Name = 
REMARK  2 active torsions:
REMARK  status: ('A' for Active; 'I' for Inactive)
REMARK    1  A    between atoms: C_13  and  C_14
REMARK    2  A    between atoms: C_18  and  C_19
REMARK                            x       y       z     vdW  Elec       q    Type
REMARK                         _______ _______ _______ _____ _____    ______ ____
ROOT
ATOM      1  N   UNL     1      -0.585  11.781  22.828  0.00  0.00    +0.000 N 
ATOM      2  C   UNL     1      -1.019  11.423  21.597  0.00  0.00    +0.000 C 
ATOM      3  N   UNL     1      -2.071  11.959  21.076  0.00  0.00    +0.000 NA
ATOM      4  C   UNL     1      -2.415  11.555  19.828  0.00  0.00    +0.000 A 
ATOM      5  N   UNL     1      -3.443  11.937  19.095  0.00  0.00    +0.000 NA
ATOM      6  C   UNL     1      -3.288  11.337  17.870  0.00  0.00    +0.000 A 
ATOM      7  C   UNL     1      -4.061  11.467  16.705  0.00  0.00    +0.000 A 
ATOM      8  C   UNL     1      -3.666  10.777  15.553  0.00  0.00    +0.000 A 
ATOM      9  C   UNL     1      -2.529   9.967  15.559  0.00  0.00    +0.000 A 
ATOM     10  C   UNL     1      -1.753   9.814  16.713  0.00  0.00    +0.000 A 
ATOM     11  C   UNL     1      -2.163  10.520  17.850  0.00  0.00    +0.000 A 
ATOM     12  N   UNL     1      -1.631  10.684  19.104  0.00  0.00    +0.000 N 
ATOM     13  C   UNL     1      -0.357  10.189  19.634  0.00  0.00    +0.000 C 
ATOM     14  N   UNL     1      -0.217  10.470  21.059  0.00  0.00    +0.000 N 
ATOM     15  H   UNL     1      -1.269  12.378  23.285  0.00  0.00    +0.000 HD
ATOM     16  H   UNL     1      -0.344  10.995  23.420  0.00  0.00    +0.000 HD
ATOM     17  H   UNL     1       0.753  10.549  21.349  0.00  0.00    +0.000 HD
ENDROOT
BRANCH  13  18
ATOM     18  C   UNL     1       0.781  10.693  18.785  0.00  0.00    +0.000 A 
ATOM     19  C   UNL     1       1.041  12.019  18.472  0.00  0.00    +0.000 A 
ATOM     20  N   UNL     1       2.140  12.030  17.682  0.00  0.00    +0.000 N 
ATOM     21  N   UNL     1       2.628  10.814  17.454  0.00  0.00    +0.000 NA
ATOM     22  C   UNL     1       1.876   9.979  18.193  0.00  0.00    +0.000 A 
ATOM     23  H   UNL     1       2.626  12.826  17.283  0.00  0.00    +0.000 HD
BRANCH  22  24
ATOM     24  C   UNL     1       2.370   8.613  18.406  0.00  0.00    +0.000 A 
ATOM     25  C   UNL     1       3.152   7.884  17.502  0.00  0.00    +0.000 A 
ATOM     26  C   UNL     1       3.372   6.510  17.712  0.00  0.00    +0.000 A 
ATOM     27  C   UNL     1       2.800   5.866  18.811  0.00  0.00    +0.000 A 
ATOM     28  C   UNL     1       2.134   6.617  19.768  0.00  0.00    +0.000 A 
ATOM     29  C   UNL     1       1.929   7.972  19.576  0.00  0.00    +0.000 A 
ATOM     30  O   UNL     1       1.600   6.064  20.898  0.00  0.00    +0.000 OA
ATOM     31  C   UNL     1       1.032   4.812  20.539  0.00  0.00    +0.000 C 
ATOM     32  C   UNL     1       2.063   3.898  19.882  0.00  0.00    +0.000 C 
ATOM     33  O   UNL     1       2.882   4.504  18.866  0.00  0.00    +0.000 OA
ENDBRANCH  22  24
ENDBRANCH  13  18
TORSDOF 2
ENDMDL
MODEL 3
REMARK VINA RESULT:      -8.0      2.195      4.408
REMARK  Name = 
REMARK  2 active torsions:
REMARK  status: ('A' for Active; 'I' for Inactive)
REMARK    1  A    between atoms: C_13  and  C_14
REMARK    2  A    between atoms: C_18  and  C_19
REMARK                            x       y       z     vdW  Elec       q    Type
REMARK                         _______ _______ _______ _____ _____    ______ ____
ROOT
ATOM      1  N   UNL     1      -2.659   9.853  17.195  0.00  0.00    +0.000 N 
ATOM      2  C   UNL     1      -1.670  10.649  17.666  0.00  0.00    +0.000 C 
ATOM      3  N   UNL     1      -1.834  11.924  17.778  0.00  0.00    +0.000 NA
ATOM      4  C   UNL     1      -0.795  12.636  18.283  0.00  0.00    +0.000 A 
ATOM      5  N   UNL     1      -0.710  13.937  18.479  0.00  0.00    +0.000 NA
ATOM      6  C   UNL     1       0.486  14.155  19.118  0.00  0.00    +0.000 A 
ATOM      7  C   UNL     1       1.029  15.348  19.619  0.00  0.00    +0.000 A 
ATOM      8  C   UNL     1       2.262  15.302  20.282  0.00  0.00    +0.000 A 
ATOM      9  C   UNL     1       2.945  14.094  20.438  0.00  0.00    +0.000 A 
ATOM     10  C   UNL     1       2.426  12.897  19.934  0.00  0.00    +0.000 A 
ATOM     11  C   UNL     1       1.190  12.966  19.283  0.00  0.00    +0.000 A 
ATOM     12  N   UNL     1       0.349  12.024  18.746  0.00  0.00    +0.000 N 
ATOM     13  C   UNL     1       0.477  10.564  18.760  0.00  0.00    +0.000 C 
ATOM     14  N   UNL     1      -0.565   9.921  17.966  0.00  0.00    +0.000 N 
ATOM     15  H   UNL     1      -3.423  10.417  16.832  0.00  0.00    +0.000 HD
ATOM     16  H   UNL     1      -2.348   9.183  16.502  0.00  0.00    +0.000 HD
ATOM     17  H   UNL     1      -0.776   8.980  18.286  0.00  0.00    +0.000 HD
ENDROOT
BRANCH  13  18
ATOM     18  C   UNL     1       0.571  10.071  20.180  0.00  0.00    +0.000 A 
ATOM     19  C   UNL     1      -0.055  10.634  21.283  0.00  0.00    +0.000 A 
ATOM     20  N   UNL     1       0.303   9.896  22.360  0.00  0.00    +0.000 N 
ATOM     21  N   UNL     1       1.113   8.887  22.052  0.00  0.00    +0.000 NA
ATOM     22  C   UNL     1       1.221   8.907  20.712  0.00  0.00    +0.000 A 
ATOM     23  H   UNL     1       0.018  10.005  23.327  0.00  0.00    +0.000 HD
BRANCH  22  24
ATOM     24  C   UNL     1       1.785   7.724  20.048  0.00  0.00    +0.000 A 
ATOM     25  C   UNL     1       2.376   7.711  18.780  0.00  0.00    +0.000 A 
ATOM     26  C   UNL     1       2.671   6.486  18.155  0.00  0.00    +0.000 A 
ATOM     27  C   UNL     1       2.362   5.281  18.788  0.00  0.00    +0.000 A 
ATOM     28  C   UNL     1       1.895   5.299  20.094  0.00  0.00    +0.000 A 
ATOM     29  C   UNL     1       1.618   6.501  20.721  0.00  0.00    +0.000 A 
ATOM     30  O   UNL     1       1.627   4.158  20.797  0.00  0.00    +0.000 OA
ATOM     31  C   UNL     1       1.027   3.230  19.902  0.00  0.00    +0.000 C 
ATOM     32  C   UNL     1       1.919   2.966  18.692  0.00  0.00    +0.000 C 
ATOM     33  O   UNL     1       2.489   4.129  18.066  0.00  0.00    +0.000 OA
ENDBRANCH  22  24
ENDBRANCH  13  18
TORSDOF 2
ENDMDL
MODEL 4
REMARK VINA RESULT:      -8.0      2.406      4.645
REMARK  Name = 
REMARK  2 active torsions:
REMARK  status: ('A' for Active; 'I' for Inactive)
REMARK    1  A    between atoms: C_13  and  C_14
REMARK    2  A    between atoms: C_18  and  C_19
REMARK                            x       y       z     vdW  Elec       q    Type
REMARK                         _______ _______ _______ _____ _____    ______ ____
ROOT
ATOM      1  N   UNL     1       3.428  14.855  17.450  0.00  0.00    +0.000 N 
ATOM      2  C   UNL     1       2.665  14.499  18.510  0.00  0.00    +0.000 C 
ATOM      3  N   UNL     1       2.058  15.384  19.226  0.00  0.00    +0.000 NA
ATOM      4  C   UNL     1       1.296  14.930  20.252  0.00  0.00    +0.000 A 
ATOM      5  N   UNL     1       0.598  15.626  21.127  0.00  0.00    +0.000 NA
ATOM      6  C   UNL     1      -0.093  14.713  21.885  0.00  0.00    +0.000 A 
ATOM      7  C   UNL     1      -1.035  14.925  22.904  0.00  0.00    +0.000 A 
ATOM      8  C   UNL     1      -1.644  13.815  23.502  0.00  0.00    +0.000 A 
ATOM      9  C   UNL     1      -1.318  12.518  23.100  0.00  0.00    +0.000 A 
ATOM     10  C   UNL     1      -0.373  12.286  22.095  0.00  0.00    +0.000 A 
ATOM     11  C   UNL     1       0.216  13.411  21.507  0.00  0.00    +0.000 A 
ATOM     12  N   UNL     1       1.096  13.584  20.469  0.00  0.00    +0.000 N 
ATOM     13  C   UNL     1       1.662  12.577  19.566  0.00  0.00    +0.000 C 
ATOM     14  N   UNL     1       2.662  13.151  18.671  0.00  0.00    +0.000 N 
ATOM     15  H   UNL     1       3.550  15.864  17.426  0.00  0.00    +0.000 HD
ATOM     16  H   UNL     1       4.326  14.386  17.417  0.00  0.00    +0.000 HD
ATOM     17  H   UNL     1       2.745  12.640  17.798  0.00  0.00    +0.000 HD
ENDROOT
BRANCH  13  18
ATOM     18  C   UNL     1       0.552  11.836  18.866  0.00  0.00    +0.000 A 
ATOM     19  C   UNL     1      -0.555  12.408  18.257  0.00  0.00    +0.000 A 
ATOM     20  N   UNL     1      -1.304  11.394  17.766  0.00  0.00    +0.000 N 
ATOM     21  N   UNL     1      -0.774  10.196  17.999  0.00  0.00    +0.000 NA
ATOM     22  C   UNL     1       0.412  10.435  18.587  0.00  0.00    +0.000 A 
ATOM     23  H   UNL     1      -2.172  11.441  17.243  0.00  0.00    +0.000 HD
BRANCH  22  24
ATOM     24  C   UNL     1       1.374   9.329  18.671  0.00  0.00    +0.000 A 
ATOM     25  C   UNL     1       2.278   8.963  17.667  0.00  0.00    +0.000 A 
ATOM     26  C   UNL     1       2.986   7.751  17.767  0.00  0.00    +0.000 A 
ATOM     27  C   UNL     1       2.781   6.904  18.858  0.00  0.00    +0.000 A 
ATOM     28  C   UNL     1       1.983   7.330  19.909  0.00  0.00    +0.000 A 
ATOM     29  C   UNL     1       1.296   8.528  19.824  0.00  0.00    +0.000 A 
ATOM     30  O   UNL     1       1.783   6.581  21.034  0.00  0.00    +0.000 OA
ATOM     31  C   UNL     1       1.663   5.222  20.632  0.00  0.00    +0.000 C 
ATOM     32  C   UNL     1       2.887   4.764  19.843  0.00  0.00    +0.000 C 
ATOM     33  O   UNL     1       3.343   5.660  18.815  0.00  0.00    +0.000 OA
ENDBRANCH  22  24
ENDBRANCH  13  18
TORSDOF 2
ENDMDL
MODEL 5
REMARK VINA RESULT:      -7.8      4.164      6.403
REMARK  Name = 
REMARK  2 active torsions:
REMARK  status: ('A' for Active; 'I' for Inactive)
REMARK    1  A    between atoms: C_13  and  C_14
REMARK    2  A    between atoms: C_18  and  C_19
REMARK                            x       y       z     vdW  Elec       q    Type
REMARK                         _______ _______ _______ _____ _____    ______ ____
ROOT
ATOM      1  N   UNL     1      -2.756  10.126  14.654  0.00  0.00    +0.000 N 
ATOM      2  C   UNL     1      -3.140  10.709  15.814  0.00  0.00    +0.000 C 
ATOM      3  N   UNL     1      -4.305  10.486  16.321  0.00  0.00    +0.000 NA
ATOM      4  C   UNL     1      -4.591  11.096  17.499  0.00  0.00    +0.000 A 
ATOM      5  N   UNL     1      -5.705  11.041  18.203  0.00  0.00    +0.000 NA
ATOM      6  C   UNL     1      -5.460  11.724  19.368  0.00  0.00    +0.000 A 
ATOM      7  C   UNL     1      -6.283  11.904  20.491  0.00  0.00    +0.000 A 
ATOM      8  C   UNL     1      -5.781  12.612  21.589  0.00  0.00    +0.000 A 
ATOM      9  C   UNL     1      -4.488  13.138  21.571  0.00  0.00    +0.000 A 
ATOM     10  C   UNL     1      -3.657  12.980  20.457  0.00  0.00    +0.000 A 
ATOM     11  C   UNL     1      -4.178  12.263  19.374  0.00  0.00    +0.000 A 
ATOM     12  N   UNL     1      -3.653  11.843  18.177  0.00  0.00    +0.000 N 
ATOM     13  C   UNL     1      -2.281  11.974  17.679  0.00  0.00    +0.000 C 
ATOM     14  N   UNL     1      -2.159  11.510  16.301  0.00  0.00    +0.000 N 
ATOM     15  H   UNL     1      -3.543   9.652  14.220  0.00  0.00    +0.000 HD
ATOM     16  H   UNL     1      -2.318  10.765  14.002  0.00  0.00    +0.000 HD
ATOM     17  H   UNL     1      -1.223  11.182  16.080  0.00  0.00    +0.000 HD
ENDROOT
BRANCH  13  18
ATOM     18  C   UNL     1      -1.322  11.324  18.642  0.00  0.00    +0.000 A 
ATOM     19  C   UNL     1      -1.212   9.964  18.894  0.00  0.00    +0.000 A 
ATOM     20  N   UNL     1      -0.246   9.812  19.828  0.00  0.00    +0.000 N 
ATOM     21  N   UNL     1       0.295  10.966  20.210  0.00  0.00    +0.000 NA
ATOM     22  C   UNL     1      -0.275  11.905  19.433  0.00  0.00    +0.000 A 
ATOM     23  H   UNL     1       0.114   8.955  20.235  0.00  0.00    +0.000 HD
BRANCH  22  24
ATOM     24  C   UNL     1       0.349  13.234  19.391  0.00  0.00    +0.000 A 
ATOM     25  C   UNL     1      -0.340  14.450  19.317  0.00  0.00    +0.000 A 
ATOM     26  C   UNL     1       0.362  15.640  19.050  0.00  0.00    +0.000 A 
ATOM     27  C   UNL     1       1.742  15.611  18.845  0.00  0.00    +0.000 A 
ATOM     28  C   UNL     1       2.435  14.427  19.045  0.00  0.00    +0.000 A 
ATOM     29  C   UNL     1       1.752  13.256  19.323  0.00  0.00    +0.000 A 
ATOM     30  O   UNL     1       3.793  14.336  18.919  0.00  0.00    +0.000 OA
ATOM     31  C   UNL     1       4.178  15.139  17.810  0.00  0.00    +0.000 C 
ATOM     32  C   UNL     1       3.709  16.582  17.976  0.00  0.00    +0.000 C 
ATOM     33  O   UNL     1       2.346  16.754  18.402  0.00  0.00    +0.000 OA
ENDBRANCH  22  24
ENDBRANCH  13  18
TORSDOF 2
ENDMDL
MODEL 6
REMARK VINA RESULT:      -7.7      3.295      5.001
REMARK  Name = 
REMARK  2 active torsions:
REMARK  status: ('A' for Active; 'I' for Inactive)
REMARK    1  A    between atoms: C_13  and  C_14
REMARK    2  A    between atoms: C_18  and  C_19
REMARK                            x       y       z     vdW  Elec       q    Type
REMARK                         _______ _______ _______ _____ _____    ______ ____
ROOT
ATOM      1  N   UNL     1      -4.542  12.764  25.310  0.00  0.00    +0.000 N 
ATOM      2  C   UNL     1      -4.808  12.617  23.990  0.00  0.00    +0.000 C 
ATOM      3  N   UNL     1      -6.000  12.783  23.525  0.00  0.00    +0.000 NA
ATOM      4  C   UNL     1      -6.165  12.638  22.187  0.00  0.00    +0.000 A 
ATOM      5  N   UNL     1      -7.273  12.740  21.480  0.00  0.00    +0.000 NA
ATOM      6  C   UNL     1      -6.903  12.630  20.162  0.00  0.00    +0.000 A 
ATOM      7  C   UNL     1      -7.683  12.743  19.001  0.00  0.00    +0.000 A 
ATOM      8  C   UNL     1      -7.056  12.635  17.754  0.00  0.00    +0.000 A 
ATOM      9  C   UNL     1      -5.681  12.413  17.661  0.00  0.00    +0.000 A 
ATOM     10  C   UNL     1      -4.889  12.285  18.807  0.00  0.00    +0.000 A 
ATOM     11  C   UNL     1      -5.536  12.404  20.042  0.00  0.00    +0.000 A 
ATOM     12  N   UNL     1      -5.098  12.418  21.343  0.00  0.00    +0.000 N 
ATOM     13  C   UNL     1      -3.723  12.379  21.850  0.00  0.00    +0.000 C 
ATOM     14  N   UNL     1      -3.686  12.281  23.306  0.00  0.00    +0.000 N 
ATOM     15  H   UNL     1      -5.406  12.864  25.835  0.00  0.00    +0.000 HD
ATOM     16  H   UNL     1      -3.971  12.022  25.696  0.00  0.00    +0.000 HD
ATOM     17  H   UNL     1      -2.838  12.677  23.702  0.00  0.00    +0.000 HD
ENDROOT
BRANCH  13  18
ATOM     18  C   UNL     1      -2.935  13.529  21.281  0.00  0.00    +0.000 A 
ATOM     19  C   UNL     1      -3.144  14.874  21.549  0.00  0.00    +0.000 A 
ATOM     20  N   UNL     1      -2.232  15.567  20.829  0.00  0.00    +0.000 N 
ATOM     21  N   UNL     1      -1.433  14.783  20.109  0.00  0.00    +0.000 NA
ATOM     22  C   UNL     1      -1.774  13.524  20.437  0.00  0.00    +0.000 A 
ATOM     23  H   UNL     1      -2.078  16.569  20.795  0.00  0.00    +0.000 HD
BRANCH  22  24
ATOM     24  C   UNL     1      -0.858  12.441  20.056  0.00  0.00    +0.000 A 
ATOM     25  C   UNL     1      -0.779  11.856  18.787  0.00  0.00    +0.000 A 
ATOM     26  C   UNL     1      -0.031  10.679  18.602  0.00  0.00    +0.000 A 
ATOM     27  C   UNL     1       0.621  10.083  19.683  0.00  0.00    +0.000 A 
ATOM     28  C   UNL     1       0.644  10.734  20.907  0.00  0.00    +0.000 A 
ATOM     29  C   UNL     1      -0.076  11.901  21.091  0.00  0.00    +0.000 A 
ATOM     30  O   UNL     1       1.311  10.240  21.992  0.00  0.00    +0.000 OA
ATOM     31  C   UNL     1       1.128   8.830  22.006  0.00  0.00    +0.000 C 
ATOM     32  C   UNL     1       1.599   8.193  20.701  0.00  0.00    +0.000 C 
ATOM     33  O   UNL     1       1.171   8.846  19.494  0.00  0.00    +0.000 OA
ENDBRANCH  22  24
ENDBRANCH  13  18
TORSDOF 2
ENDMDL
MODEL 7
REMARK VINA RESULT:      -7.7      2.415      4.463
REMARK  Name = 
REMARK  2 active torsions:
REMARK  status: ('A' for Active; 'I' for Inactive)
REMARK    1  A    between atoms: C_13  and  C_14
REMARK    2  A    between atoms: C_18  and  C_19
REMARK                            x       y       z     vdW  Elec       q    Type
REMARK                         _______ _______ _______ _____ _____    ______ ____
ROOT
ATOM      1  N   UNL     1       3.470  14.943  19.499  0.00  0.00    +0.000 N 
ATOM      2  C   UNL     1       2.457  14.448  20.249  0.00  0.00    +0.000 C 
ATOM      3  N   UNL     1       1.710  15.223  20.960  0.00  0.00    +0.000 NA
ATOM      4  C   UNL     1       0.704  14.639  21.659  0.00  0.00    +0.000 A 
ATOM      5  N   UNL     1      -0.175  15.205  22.461  0.00  0.00    +0.000 NA
ATOM      6  C   UNL     1      -1.055  14.218  22.830  0.00  0.00    +0.000 A 
ATOM      7  C   UNL     1      -2.217  14.300  23.612  0.00  0.00    +0.000 A 
ATOM      8  C   UNL     1      -2.981  13.143  23.810  0.00  0.00    +0.000 A 
ATOM      9  C   UNL     1      -2.594  11.926  23.247  0.00  0.00    +0.000 A 
ATOM     10  C   UNL     1      -1.432  11.820  22.475  0.00  0.00    +0.000 A 
ATOM     11  C   UNL     1      -0.689  12.991  22.285  0.00  0.00    +0.000 A 
ATOM     12  N   UNL     1       0.427  13.294  21.546  0.00  0.00    +0.000 N 
ATOM     13  C   UNL     1       1.178  12.438  20.623  0.00  0.00    +0.000 C 
ATOM     14  N   UNL     1       2.383  13.098  20.131  0.00  0.00    +0.000 N 
ATOM     15  H   UNL     1       3.615  15.927  19.708  0.00  0.00    +0.000 HD
ATOM     16  H   UNL     1       4.336  14.425  19.591  0.00  0.00    +0.000 HD
ATOM     17  H   UNL     1       2.672  12.756  19.219  0.00  0.00    +0.000 HD
ENDROOT
BRANCH  13  18
ATOM     18  C   UNL     1       0.264  11.924  19.543  0.00  0.00    +0.000 A 
ATOM     19  C   UNL     1      -0.724  12.650  18.894  0.00  0.00    +0.000 A 
ATOM     20  N   UNL     1      -1.315  11.813  18.011  0.00  0.00    +0.000 N 
ATOM     21  N   UNL     1      -0.790  10.590  18.022  0.00  0.00    +0.000 NA
ATOM     22  C   UNL     1       0.243  10.650  18.881  0.00  0.00    +0.000 A 
ATOM     23  H   UNL     1      -2.062  12.008  17.353  0.00  0.00    +0.000 HD
BRANCH  22  24
ATOM     24  C   UNL     1       1.217   9.551  18.864  0.00  0.00    +0.000 A 
ATOM     25  C   UNL     1       2.072   9.242  17.801  0.00  0.00    +0.000 A 
ATOM     26  C   UNL     1       2.794   8.035  17.807  0.00  0.00    +0.000 A 
ATOM     27  C   UNL     1       2.649   7.134  18.864  0.00  0.00    +0.000 A 
ATOM     28  C   UNL     1       1.901   7.501  19.973  0.00  0.00    +0.000 A 
ATOM     29  C   UNL     1       1.201   8.695  19.979  0.00  0.00    +0.000 A 
ATOM     30  O   UNL     1       1.763   6.697  21.069  0.00  0.00    +0.000 OA
ATOM     31  C   UNL     1       1.634   5.358  20.607  0.00  0.00    +0.000 C 
ATOM     32  C   UNL     1       2.820   4.950  19.738  0.00  0.00    +0.000 C 
ATOM     33  O   UNL     1       3.219   5.900  18.734  0.00  0.00    +0.000 OA
ENDBRANCH  22  24
ENDBRANCH  13  18
TORSDOF 2
ENDMDL
MODEL 8
REMARK VINA RESULT:      -7.6      4.224      8.065
REMARK  Name = 
REMARK  2 active torsions:
REMARK  status: ('A' for Active; 'I' for Inactive)
REMARK    1  A    between atoms: C_13  and  C_14
REMARK    2  A    between atoms: C_18  and  C_19
REMARK                            x       y       z     vdW  Elec       q    Type
REMARK                         _______ _______ _______ _____ _____    ______ ____
ROOT
ATOM      1  N   UNL     1       0.448   3.743  20.437  0.00  0.00    +0.000 N 
ATOM      2  C   UNL     1       1.638   4.191  19.970  0.00  0.00    +0.000 C 
ATOM      3  N   UNL     1       2.376   3.459  19.207  0.00  0.00    +0.000 NA
ATOM      4  C   UNL     1       3.540   4.002  18.769  0.00  0.00    +0.000 A 
ATOM      5  N   UNL     1       4.463   3.458  18.001  0.00  0.00    +0.000 NA
ATOM      6  C   UNL     1       5.383   4.444  17.744  0.00  0.00    +0.000 A 
ATOM      7  C   UNL     1       6.520   4.415  16.922  0.00  0.00    +0.000 A 
ATOM      8  C   UNL     1       7.284   5.581  16.785  0.00  0.00    +0.000 A 
ATOM      9  C   UNL     1       6.929   6.752  17.457  0.00  0.00    +0.000 A 
ATOM     10  C   UNL     1       5.806   6.797  18.292  0.00  0.00    +0.000 A 
ATOM     11  C   UNL     1       5.054   5.622  18.406  0.00  0.00    +0.000 A 
ATOM     12  N   UNL     1       3.880   5.309  19.044  0.00  0.00    +0.000 N 
ATOM     13  C   UNL     1       2.973   6.191  19.784  0.00  0.00    +0.000 C 
ATOM     14  N   UNL     1       1.893   5.445  20.423  0.00  0.00    +0.000 N 
ATOM     15  H   UNL     1       0.334   2.756  20.222  0.00  0.00    +0.000 HD
ATOM     16  H   UNL     1       0.308   3.913  21.426  0.00  0.00    +0.000 HD
ATOM     17  H   UNL     1       1.056   6.004  20.555  0.00  0.00    +0.000 HD
ENDROOT
BRANCH  13  18
ATOM     18  C   UNL     1       2.512   7.315  18.894  0.00  0.00    +0.000 A 
ATOM     19  C   UNL     1       2.600   7.350  17.510  0.00  0.00    +0.000 A 
ATOM     20  N   UNL     1       2.087   8.536  17.110  0.00  0.00    +0.000 N 
ATOM     21  N   UNL     1       1.662   9.286  18.124  0.00  0.00    +0.000 NA
ATOM     22  C   UNL     1       1.819   8.528  19.223  0.00  0.00    +0.000 A 
ATOM     23  H   UNL     1       1.973   8.893  16.168  0.00  0.00    +0.000 HD
BRANCH  22  24
ATOM     24  C   UNL     1       1.141   8.953  20.455  0.00  0.00    +0.000 A 
ATOM     25  C   UNL     1       0.432   8.112  21.320  0.00  0.00    +0.000 A 
ATOM     26  C   UNL     1      -0.366   8.665  22.340  0.00  0.00    +0.000 A 
ATOM     27  C   UNL     1      -0.465  10.050  22.482  0.00  0.00    +0.000 A 
ATOM     28  C   UNL     1       0.337  10.873  21.706  0.00  0.00    +0.000 A 
ATOM     29  C   UNL     1       1.136  10.334  20.712  0.00  0.00    +0.000 A 
ATOM     30  O   UNL     1       0.337  12.233  21.831  0.00  0.00    +0.000 OA
ATOM     31  C   UNL     1      -1.006  12.646  22.048  0.00  0.00    +0.000 C 
ATOM     32  C   UNL     1      -1.613  11.956  23.266  0.00  0.00    +0.000 C 
ATOM     33  O   UNL     1      -1.394  10.537  23.356  0.00  0.00    +0.000 OA
ENDBRANCH  22  24
ENDBRANCH  13  18
TORSDOF 2
ENDMDL
MODEL 9
REMARK VINA RESULT:      -7.5      4.124      6.098
REMARK  Name = 
REMARK  2 active torsions:
REMARK  status: ('A' for Active; 'I' for Inactive)
REMARK    1  A    between atoms: C_13  and  C_14
REMARK    2  A    between atoms: C_18  and  C_19
REMARK                            x       y       z     vdW  Elec       q    Type
REMARK                         _______ _______ _______ _____ _____    ______ ____
ROOT
ATOM      1  N   UNL     1      -2.909  10.578  15.192  0.00  0.00    +0.000 N 
ATOM      2  C   UNL     1      -3.000  11.152  16.415  0.00  0.00    +0.000 C 
ATOM      3  N   UNL     1      -4.112  11.165  17.068  0.00  0.00    +0.000 NA
ATOM      4  C   UNL     1      -4.099  11.741  18.296  0.00  0.00    +0.000 A 
ATOM      5  N   UNL     1      -5.098  11.892  19.143  0.00  0.00    +0.000 NA
ATOM      6  C   UNL     1      -4.558  12.420  20.289  0.00  0.00    +0.000 A 
ATOM      7  C   UNL     1      -5.170  12.705  21.519  0.00  0.00    +0.000 A 
ATOM      8  C   UNL     1      -4.383  13.204  22.565  0.00  0.00    +0.000 A 
ATOM      9  C   UNL     1      -3.016  13.423  22.390  0.00  0.00    +0.000 A 
ATOM     10  C   UNL     1      -2.390  13.158  21.167  0.00  0.00    +0.000 A 
ATOM     11  C   UNL     1      -3.194  12.653  20.139  0.00  0.00    +0.000 A 
ATOM     12  N   UNL     1      -2.936  12.208  18.867  0.00  0.00    +0.000 N 
ATOM     13  C   UNL     1      -1.644  12.059  18.191  0.00  0.00    +0.000 C 
ATOM     14  N   UNL     1      -1.806  11.675  16.792  0.00  0.00    +0.000 N 
ATOM     15  H   UNL     1      -3.833  10.325  14.851  0.00  0.00    +0.000 HD
ATOM     16  H   UNL     1      -2.419  11.145  14.510  0.00  0.00    +0.000 HD
ATOM     17  H   UNL     1      -1.008  11.159  16.433  0.00  0.00    +0.000 HD
ENDROOT
BRANCH  13  18
ATOM     18  C   UNL     1      -0.751  11.145  18.989  0.00  0.00    +0.000 A 
ATOM     19  C   UNL     1      -0.918   9.777  19.150  0.00  0.00    +0.000 A 
ATOM     20  N   UNL     1       0.089   9.347  19.945  0.00  0.00    +0.000 N 
ATOM     21  N   UNL     1       0.912  10.325  20.317  0.00  0.00    +0.000 NA
ATOM     22  C   UNL     1       0.481  11.423  19.670  0.00  0.00    +0.000 A 
ATOM     23  H   UNL     1       0.294   8.404  20.256  0.00  0.00    +0.000 HD
BRANCH  22  24
ATOM     24  C   UNL     1       1.374  12.588  19.621  0.00  0.00    +0.000 A 
ATOM     25  C   UNL     1       1.930  13.133  18.459  0.00  0.00    +0.000 A 
ATOM     26  C   UNL     1       2.949  14.100  18.553  0.00  0.00    +0.000 A 
ATOM     27  C   UNL     1       3.417  14.507  19.804  0.00  0.00    +0.000 A 
ATOM     28  C   UNL     1       2.777  14.059  20.949  0.00  0.00    +0.000 A 
ATOM     29  C   UNL     1       1.763  13.121  20.862  0.00  0.00    +0.000 A 
ATOM     30  O   UNL     1       3.142  14.460  22.203  0.00  0.00    +0.000 OA
ATOM     31  C   UNL     1       4.561  14.535  22.236  0.00  0.00    +0.000 C 
ATOM     32  C   UNL     1       5.096  15.468  21.153  0.00  0.00    +0.000 C 
ATOM     33  O   UNL     1       4.530  15.298  19.842  0.00  0.00    +0.000 OA
ENDBRANCH  22  24
ENDBRANCH  13  18
TORSDOF 2
ENDMDL
