MODEL 1
REMARK VINA RESULT:      -8.4      0.000      0.000
REMARK  Name = 
REMARK  6 active torsions:
REMARK  status: ('A' for Active; 'I' for Inactive)
REMARK    1  A    between atoms: C_1  and  N_2
REMARK    2  A    between atoms: C_3  and  C_5
REMARK    3  A    between atoms: C_8  and  C_10
REMARK    4  A    between atoms: C_13  and  C_14
REMARK    5  A    between atoms: C_14  and  O_15
REMARK    6  A    between atoms: O_15  and  C_16
REMARK                            x       y       z     vdW  Elec       q    Type
REMARK                         _______ _______ _______ _____ _____    ______ ____
ROOT
ATOM      1  C   UNL     1       2.427   6.227  19.970  0.00  0.00    +0.000 C 
ATOM      2  C   UNL     1       3.847   5.700  19.999  0.00  0.00    +0.000 C 
ATOM      3  N   UNL     1       4.082   4.696  18.945  0.00  0.00    +0.000 N 
ATOM      4  C   UNL     1       5.147   4.714  18.015  0.00  0.00    +0.000 C 
ATOM      5  O   UNL     1       5.302   3.872  17.128  0.00  0.00    +0.000 OA
ATOM      6  C   UNL     1       3.011   3.729  18.884  0.00  0.00    +0.000 A 
ATOM      7  C   UNL     1       3.100   2.512  18.192  0.00  0.00    +0.000 A 
ATOM      8  C   UNL     1       2.019   1.617  18.143  0.00  0.00    +0.000 A 
ATOM      9  C   UNL     1       0.825   1.912  18.810  0.00  0.00    +0.000 A 
ATOM     10  C   UNL     1       0.719   3.102  19.513  0.00  0.00    +0.000 A 
ATOM     11  C   UNL     1       1.787   4.009  19.530  0.00  0.00    +0.000 A 
ATOM     12  O   UNL     1       1.484   5.189  20.166  0.00  0.00    +0.000 OA
ENDROOT
BRANCH   4  13
ATOM     13  C   UNL     1       6.126   5.850  17.965  0.00  0.00    +0.000 A 
ATOM     14  C   UNL     1       7.355   5.866  18.629  0.00  0.00    +0.000 A 
ATOM     15  C   UNL     1       8.148   7.015  18.644  0.00  0.00    +0.000 A 
ATOM     16  C   UNL     1       7.805   8.122  17.864  0.00  0.00    +0.000 A 
ATOM     17  C   UNL     1       6.642   8.067  17.089  0.00  0.00    +0.000 A 
ATOM     18  C   UNL     1       5.798   6.954  17.162  0.00  0.00    +0.000 A 
BRANCH  16  19
ATOM     19  C   UNL     1       8.719   9.318  17.808  0.00  0.00    +0.000 C 
BRANCH  19  20
ATOM     20  O   UNL     1       8.956   9.757  19.143  0.00  0.00    +0.000 OA
BRANCH  20  21
ATOM     21  C   UNL     1       9.781  10.837  19.295  0.00  0.00    +0.000 A 
ATOM     22  C   UNL     1      10.558  11.419  18.291  0.00  0.00    +0.000 A 
ATOM     23  C   UNL     1      11.358  12.531  18.573  0.00  0.00    +0.000 A 
ATOM     24  C   UNL     1      11.385  13.065  19.860  0.00  0.00    +0.000 A 
ATOM     25  C   UNL     1      10.616  12.486  20.868  0.00  0.00    +0.000 A 
ATOM     26  C   UNL     1       9.820  11.375  20.585  0.00  0.00    +0.000 A 
ENDBRANCH  20  21
ENDBRANCH  19  20
ENDBRANCH  16  19
ENDBRANCH   4  13
BRANCH   1  29
ATOM     27  C   UNL     1       1.788   9.373  17.912  0.00  0.00    +0.000 C 
ATOM     28  N   UNL     1       2.079   8.449  18.973  0.00  0.00    +0.000 N 
ATOM     29  C   UNL     1       2.279   7.117  18.723  0.00  0.00    +0.000 C 
ATOM     30  O   UNL     1       2.308   6.646  17.582  0.00  0.00    +0.000 OA
ATOM     31  H   UNL     1       1.928   8.737  19.934  0.00  0.00    +0.000 HD
ENDBRANCH   1  29
TORSDOF 5
ENDMDL
MODEL 2
REMARK VINA RESULT:      -8.3      5.193      8.957
REMARK  Name = 
REMARK  6 active torsions:
REMARK  status: ('A' for Active; 'I' for Inactive)
REMARK    1  A    between atoms: C_1  and  N_2
REMARK    2  A    between atoms: C_3  and  C_5
REMARK    3  A    between atoms: C_8  and  C_10
REMARK    4  A    between atoms: C_13  and  C_14
REMARK    5  A    between atoms: C_14  and  O_15
REMARK    6  A    between atoms: O_15  and  C_16
REMARK                            x       y       z     vdW  Elec       q    Type
REMARK                         _______ _______ _______ _____ _____    ______ ____
ROOT
ATOM      1  C   UNL     1      -0.910  12.633  18.775  0.00  0.00    +0.000 C 
ATOM      2  C   UNL     1       0.227  12.004  19.553  0.00  0.00    +0.000 C 
ATOM      3  N   UNL     1      -0.262  11.211  20.696  0.00  0.00    +0.000 N 
ATOM      4  C   UNL     1       0.099   9.874  20.983  0.00  0.00    +0.000 C 
ATOM      5  O   UNL     1      -0.348   9.228  21.933  0.00  0.00    +0.000 OA
ATOM      6  C   UNL     1      -1.271  11.924  21.444  0.00  0.00    +0.000 A 
ATOM      7  C   UNL     1      -1.699  11.548  22.726  0.00  0.00    +0.000 A 
ATOM      8  C   UNL     1      -2.702  12.261  23.402  0.00  0.00    +0.000 A 
ATOM      9  C   UNL     1      -3.286  13.388  22.814  0.00  0.00    +0.000 A 
ATOM     10  C   UNL     1      -2.869  13.787  21.554  0.00  0.00    +0.000 A 
ATOM     11  C   UNL     1      -1.894  13.052  20.868  0.00  0.00    +0.000 A 
ATOM     12  O   UNL     1      -1.677  13.503  19.588  0.00  0.00    +0.000 OA
ENDROOT
BRANCH   4  13
ATOM     13  C   UNL     1       0.985   9.086  20.064  0.00  0.00    +0.000 A 
ATOM     14  C   UNL     1       1.286   9.450  18.749  0.00  0.00    +0.000 A 
ATOM     15  C   UNL     1       2.008   8.594  17.914  0.00  0.00    +0.000 A 
ATOM     16  C   UNL     1       2.580   7.425  18.423  0.00  0.00    +0.000 A 
ATOM     17  C   UNL     1       2.396   7.116  19.775  0.00  0.00    +0.000 A 
ATOM     18  C   UNL     1       1.583   7.924  20.578  0.00  0.00    +0.000 A 
BRANCH  16  19
ATOM     19  C   UNL     1       3.441   6.560  17.541  0.00  0.00    +0.000 C 
BRANCH  19  20
ATOM     20  O   UNL     1       4.180   5.672  18.376  0.00  0.00    +0.000 OA
BRANCH  20  21
ATOM     21  C   UNL     1       3.800   4.358  18.360  0.00  0.00    +0.000 A 
ATOM     22  C   UNL     1       2.897   3.780  17.466  0.00  0.00    +0.000 A 
ATOM     23  C   UNL     1       2.596   2.417  17.549  0.00  0.00    +0.000 A 
ATOM     24  C   UNL     1       3.195   1.627  18.529  0.00  0.00    +0.000 A 
ATOM     25  C   UNL     1       4.092   2.199  19.428  0.00  0.00    +0.000 A 
ATOM     26  C   UNL     1       4.391   3.560  19.344  0.00  0.00    +0.000 A 
ENDBRANCH  20  21
ENDBRANCH  19  20
ENDBRANCH  16  19
ENDBRANCH   4  13
BRANCH   1  29
ATOM     27  C   UNL     1      -2.679  10.860  15.899  0.00  0.00    +0.000 C 
ATOM     28  N   UNL     1      -1.884  11.757  16.693  0.00  0.00    +0.000 N 
ATOM     29  C   UNL     1      -1.644  11.511  18.019  0.00  0.00    +0.000 C 
ATOM     30  O   UNL     1      -2.012  10.479  18.588  0.00  0.00    +0.000 OA
ATOM     31  H   UNL     1      -1.677  12.682  16.333  0.00  0.00    +0.000 HD
ENDBRANCH   1  29
TORSDOF 5
ENDMDL
MODEL 3
REMARK VINA RESULT:      -8.2      3.752      7.384
REMARK  Name = 
REMARK  6 active torsions:
REMARK  status: ('A' for Active; 'I' for Inactive)
REMARK    1  A    between atoms: C_1  and  N_2
REMARK    2  A    between atoms: C_3  and  C_5
REMARK    3  A    between atoms: C_8  and  C_10
REMARK    4  A    between atoms: C_13  and  C_14
REMARK    5  A    between atoms: C_14  and  O_15
REMARK    6  A    between atoms: O_15  and  C_16
REMARK                            x       y       z     vdW  Elec       q    Type
REMARK                         _______ _______ _______ _____ _____    ______ ____
ROOT
ATOM      1  C   UNL     1      -0.284  11.745  18.559  0.00  0.00    +0.000 C 
ATOM      2  C   UNL     1       0.864  11.108  19.315  0.00  0.00    +0.000 C 
ATOM      3  N   UNL     1       0.409  10.453  20.555  0.00  0.00    +0.000 N 
ATOM      4  C   UNL     1       0.704   9.124  20.939  0.00  0.00    +0.000 C 
ATOM      5  O   UNL     1       0.287   8.596  21.971  0.00  0.00    +0.000 OA
ATOM      6  C   UNL     1      -0.496  11.296  21.300  0.00  0.00    +0.000 A 
ATOM      7  C   UNL     1      -0.854  11.064  22.636  0.00  0.00    +0.000 A 
ATOM      8  C   UNL     1      -1.759  11.901  23.309  0.00  0.00    +0.000 A 
ATOM      9  C   UNL     1      -2.311  13.010  22.660  0.00  0.00    +0.000 A 
ATOM     10  C   UNL     1      -1.961  13.269  21.344  0.00  0.00    +0.000 A 
ATOM     11  C   UNL     1      -1.086  12.411  20.665  0.00  0.00    +0.000 A 
ATOM     12  O   UNL     1      -0.933  12.733  19.338  0.00  0.00    +0.000 OA
ENDROOT
BRANCH   4  13
ATOM     13  C   UNL     1       1.470   8.199  20.039  0.00  0.00    +0.000 A 
ATOM     14  C   UNL     1       2.005   8.563  18.801  0.00  0.00    +0.000 A 
ATOM     15  C   UNL     1       2.586   7.609  17.962  0.00  0.00    +0.000 A 
ATOM     16  C   UNL     1       2.788   6.301  18.410  0.00  0.00    +0.000 A 
ATOM     17  C   UNL     1       2.375   5.959  19.702  0.00  0.00    +0.000 A 
ATOM     18  C   UNL     1       1.699   6.892  20.496  0.00  0.00    +0.000 A 
BRANCH  16  19
ATOM     19  C   UNL     1       3.507   5.306  17.537  0.00  0.00    +0.000 C 
BRANCH  19  20
ATOM     20  O   UNL     1       4.622   4.800  18.267  0.00  0.00    +0.000 OA
BRANCH  20  21
ATOM     21  C   UNL     1       5.755   5.565  18.262  0.00  0.00    +0.000 A 
ATOM     22  C   UNL     1       6.079   6.539  17.315  0.00  0.00    +0.000 A 
ATOM     23  C   UNL     1       7.271   7.262  17.425  0.00  0.00    +0.000 A 
ATOM     24  C   UNL     1       8.144   7.014  18.483  0.00  0.00    +0.000 A 
ATOM     25  C   UNL     1       7.830   6.040  19.428  0.00  0.00    +0.000 A 
ATOM     26  C   UNL     1       6.640   5.318  19.315  0.00  0.00    +0.000 A 
ENDBRANCH  20  21
ENDBRANCH  19  20
ENDBRANCH  16  19
ENDBRANCH   4  13
BRANCH   1  29
ATOM     27  C   UNL     1      -3.411   9.750  17.673  0.00  0.00    +0.000 C 
ATOM     28  N   UNL     1      -2.494  10.786  18.064  0.00  0.00    +0.000 N 
ATOM     29  C   UNL     1      -1.139  10.615  17.959  0.00  0.00    +0.000 C 
ATOM     30  O   UNL     1      -0.627   9.614  17.449  0.00  0.00    +0.000 OA
ATOM     31  H   UNL     1      -2.836  11.563  18.619  0.00  0.00    +0.000 HD
ENDBRANCH   1  29
TORSDOF 5
ENDMDL
MODEL 4
REMARK VINA RESULT:      -8.1      5.226      9.204
REMARK  Name = 
REMARK  6 active torsions:
REMARK  status: ('A' for Active; 'I' for Inactive)
REMARK    1  A    between atoms: C_1  and  N_2
REMARK    2  A    between atoms: C_3  and  C_5
REMARK    3  A    between atoms: C_8  and  C_10
REMARK    4  A    between atoms: C_13  and  C_14
REMARK    5  A    between atoms: C_14  and  O_15
REMARK    6  A    between atoms: O_15  and  C_16
REMARK                            x       y       z     vdW  Elec       q    Type
REMARK                         _______ _______ _______ _____ _____    ______ ____
ROOT
ATOM      1  C   UNL     1      -0.907  12.534  18.862  0.00  0.00    +0.000 C 
ATOM      2  C   UNL     1       0.193  11.923  19.705  0.00  0.00    +0.000 C 
ATOM      3  N   UNL     1      -0.348  11.161  20.846  0.00  0.00    +0.000 N 
ATOM      4  C   UNL     1      -0.004   9.831  21.183  0.00  0.00    +0.000 C 
ATOM      5  O   UNL     1      -0.493   9.212  22.129  0.00  0.00    +0.000 OA
ATOM      6  C   UNL     1      -1.386  11.895  21.531  0.00  0.00    +0.000 A 
ATOM      7  C   UNL     1      -1.871  11.553  22.802  0.00  0.00    +0.000 A 
ATOM      8  C   UNL     1      -2.901  12.285  23.414  0.00  0.00    +0.000 A 
ATOM      9  C   UNL     1      -3.456  13.397  22.773  0.00  0.00    +0.000 A 
ATOM     10  C   UNL     1      -2.983  13.762  21.522  0.00  0.00    +0.000 A 
ATOM     11  C   UNL     1      -1.980  13.008  20.899  0.00  0.00    +0.000 A 
ATOM     12  O   UNL     1      -1.706  13.426  19.619  0.00  0.00    +0.000 OA
ENDROOT
BRANCH   4  13
ATOM     13  C   UNL     1       0.920   9.018  20.325  0.00  0.00    +0.000 A 
ATOM     14  C   UNL     1       1.353   9.394  19.051  0.00  0.00    +0.000 A 
ATOM     15  C   UNL     1       2.102   8.521  18.260  0.00  0.00    +0.000 A 
ATOM     16  C   UNL     1       2.569   7.313  18.786  0.00  0.00    +0.000 A 
ATOM     17  C   UNL     1       2.251   6.985  20.108  0.00  0.00    +0.000 A 
ATOM     18  C   UNL     1       1.412   7.817  20.858  0.00  0.00    +0.000 A 
BRANCH  16  19
ATOM     19  C   UNL     1       3.460   6.423  17.959  0.00  0.00    +0.000 C 
BRANCH  19  20
ATOM     20  O   UNL     1       2.660   5.374  17.420  0.00  0.00    +0.000 OA
BRANCH  20  21
ATOM     21  C   UNL     1       2.525   4.250  18.187  0.00  0.00    +0.000 A 
ATOM     22  C   UNL     1       3.541   3.639  18.924  0.00  0.00    +0.000 A 
ATOM     23  C   UNL     1       3.273   2.492  19.678  0.00  0.00    +0.000 A 
ATOM     24  C   UNL     1       1.989   1.951  19.697  0.00  0.00    +0.000 A 
ATOM     25  C   UNL     1       0.972   2.553  18.959  0.00  0.00    +0.000 A 
ATOM     26  C   UNL     1       1.242   3.697  18.206  0.00  0.00    +0.000 A 
ENDBRANCH  20  21
ENDBRANCH  19  20
ENDBRANCH  16  19
ENDBRANCH   4  13
BRANCH   1  29
ATOM     27  C   UNL     1      -2.661  10.731  15.996  0.00  0.00    +0.000 C 
ATOM     28  N   UNL     1      -1.887  11.648  16.787  0.00  0.00    +0.000 N 
ATOM     29  C   UNL     1      -1.610  11.394  18.104  0.00  0.00    +0.000 C 
ATOM     30  O   UNL     1      -1.926  10.340  18.665  0.00  0.00    +0.000 OA
ATOM     31  H   UNL     1      -1.724  12.586  16.437  0.00  0.00    +0.000 HD
ENDBRANCH   1  29
TORSDOF 5
ENDMDL
MODEL 5
REMARK VINA RESULT:      -8.1      4.580      7.631
REMARK  Name = 
REMARK  6 active torsions:
REMARK  status: ('A' for Active; 'I' for Inactive)
REMARK    1  A    between atoms: C_1  and  N_2
REMARK    2  A    between atoms: C_3  and  C_5
REMARK    3  A    between atoms: C_8  and  C_10
REMARK    4  A    between atoms: C_13  and  C_14
REMARK    5  A    between atoms: C_14  and  O_15
REMARK    6  A    between atoms: O_15  and  C_16
REMARK                            x       y       z     vdW  Elec       q    Type
REMARK                         _______ _______ _______ _____ _____    ______ ____
ROOT
ATOM      1  C   UNL     1       4.278   4.133  19.232  0.00  0.00    +0.000 C 
ATOM      2  C   UNL     1       4.379   5.639  19.366  0.00  0.00    +0.000 C 
ATOM      3  N   UNL     1       4.119   6.323  18.085  0.00  0.00    +0.000 N 
ATOM      4  C   UNL     1       3.202   7.382  17.891  0.00  0.00    +0.000 C 
ATOM      5  O   UNL     1       2.988   7.917  16.801  0.00  0.00    +0.000 OA
ATOM      6  C   UNL     1       4.832   5.699  16.995  0.00  0.00    +0.000 A 
ATOM      7  C   UNL     1       5.006   6.295  15.738  0.00  0.00    +0.000 A 
ATOM      8  C   UNL     1       5.686   5.635  14.702  0.00  0.00    +0.000 A 
ATOM      9  C   UNL     1       6.231   4.364  14.911  0.00  0.00    +0.000 A 
ATOM     10  C   UNL     1       6.083   3.760  16.150  0.00  0.00    +0.000 A 
ATOM     11  C   UNL     1       5.373   4.407  17.170  0.00  0.00    +0.000 A 
ATOM     12  O   UNL     1       5.212   3.632  18.293  0.00  0.00    +0.000 OA
ENDROOT
BRANCH   4  13
ATOM     13  C   UNL     1       2.317   7.867  19.001  0.00  0.00    +0.000 A 
ATOM     14  C   UNL     1       2.129   7.199  20.213  0.00  0.00    +0.000 A 
ATOM     15  C   UNL     1       1.184   7.644  21.140  0.00  0.00    +0.000 A 
ATOM     16  C   UNL     1       0.518   8.857  20.944  0.00  0.00    +0.000 A 
ATOM     17  C   UNL     1       0.796   9.602  19.794  0.00  0.00    +0.000 A 
ATOM     18  C   UNL     1       1.666   9.097  18.820  0.00  0.00    +0.000 A 
BRANCH  16  19
ATOM     19  C   UNL     1      -0.424   9.379  21.997  0.00  0.00    +0.000 C 
BRANCH  19  20
ATOM     20  O   UNL     1       0.121  10.588  22.519  0.00  0.00    +0.000 OA
BRANCH  20  21
ATOM     21  C   UNL     1      -0.724  11.663  22.583  0.00  0.00    +0.000 A 
ATOM     22  C   UNL     1      -0.467  12.934  22.068  0.00  0.00    +0.000 A 
ATOM     23  C   UNL     1      -1.419  13.951  22.192  0.00  0.00    +0.000 A 
ATOM     24  C   UNL     1      -2.631  13.700  22.833  0.00  0.00    +0.000 A 
ATOM     25  C   UNL     1      -2.891  12.434  23.354  0.00  0.00    +0.000 A 
ATOM     26  C   UNL     1      -1.939  11.421  23.231  0.00  0.00    +0.000 A 
ENDBRANCH  20  21
ENDBRANCH  19  20
ENDBRANCH  16  19
ENDBRANCH   4  13
BRANCH   1  29
ATOM     27  C   UNL     1       0.692   3.248  20.179  0.00  0.00    +0.000 C 
ATOM     28  N   UNL     1       2.054   3.706  20.192  0.00  0.00    +0.000 N 
ATOM     29  C   UNL     1       2.793   3.775  19.041  0.00  0.00    +0.000 C 
ATOM     30  O   UNL     1       2.322   3.537  17.925  0.00  0.00    +0.000 OA
ATOM     31  H   UNL     1       2.542   3.776  21.078  0.00  0.00    +0.000 HD
ENDBRANCH   1  29
TORSDOF 5
ENDMDL
MODEL 6
REMARK VINA RESULT:      -8.0      0.236      1.263
REMARK  Name = 
REMARK  6 active torsions:
REMARK  status: ('A' for Active; 'I' for Inactive)
REMARK    1  A    between atoms: C_1  and  N_2
REMARK    2  A    between atoms: C_3  and  C_5
REMARK    3  A    between atoms: C_8  and  C_10
REMARK    4  A    between atoms: C_13  and  C_14
REMARK    5  A    between atoms: C_14  and  O_15
REMARK    6  A    between atoms: O_15  and  C_16
REMARK                            x       y       z     vdW  Elec       q    Type
REMARK                         _______ _______ _______ _____ _____    ______ ____
ROOT
ATOM      1  C   UNL     1       2.315   6.199  20.006  0.00  0.00    +0.000 C 
ATOM      2  C   UNL     1       3.752   5.723  20.019  0.00  0.00    +0.000 C 
ATOM      3  N   UNL     1       4.011   4.728  18.962  0.00  0.00    +0.000 N 
ATOM      4  C   UNL     1       5.065   4.784  18.021  0.00  0.00    +0.000 C 
ATOM      5  O   UNL     1       5.241   3.949  17.132  0.00  0.00    +0.000 OA
ATOM      6  C   UNL     1       2.975   3.723  18.912  0.00  0.00    +0.000 A 
ATOM      7  C   UNL     1       3.099   2.511  18.218  0.00  0.00    +0.000 A 
ATOM      8  C   UNL     1       2.051   1.578  18.179  0.00  0.00    +0.000 A 
ATOM      9  C   UNL     1       0.855   1.830  18.859  0.00  0.00    +0.000 A 
ATOM     10  C   UNL     1       0.714   3.015  19.564  0.00  0.00    +0.000 A 
ATOM     11  C   UNL     1       1.748   3.960  19.570  0.00  0.00    +0.000 A 
ATOM     12  O   UNL     1       1.411   5.128  20.210  0.00  0.00    +0.000 OA
ENDROOT
BRANCH   4  13
ATOM     13  C   UNL     1       6.002   5.954  17.961  0.00  0.00    +0.000 A 
ATOM     14  C   UNL     1       5.756   7.131  17.248  0.00  0.00    +0.000 A 
ATOM     15  C   UNL     1       6.736   8.118  17.130  0.00  0.00    +0.000 A 
ATOM     16  C   UNL     1       7.928   8.021  17.854  0.00  0.00    +0.000 A 
ATOM     17  C   UNL     1       8.131   6.908  18.676  0.00  0.00    +0.000 A 
ATOM     18  C   UNL     1       7.189   5.874  18.706  0.00  0.00    +0.000 A 
BRANCH  16  19
ATOM     19  C   UNL     1       8.937   9.139  17.799  0.00  0.00    +0.000 C 
BRANCH  19  20
ATOM     20  O   UNL     1       8.663  10.035  18.873  0.00  0.00    +0.000 OA
BRANCH  20  21
ATOM     21  C   UNL     1       9.676  10.879  19.239  0.00  0.00    +0.000 A 
ATOM     22  C   UNL     1       9.905  11.368  20.526  0.00  0.00    +0.000 A 
ATOM     23  C   UNL     1      10.984  12.222  20.775  0.00  0.00    +0.000 A 
ATOM     24  C   UNL     1      11.838  12.591  19.736  0.00  0.00    +0.000 A 
ATOM     25  C   UNL     1      11.611  12.111  18.448  0.00  0.00    +0.000 A 
ATOM     26  C   UNL     1      10.532  11.260  18.202  0.00  0.00    +0.000 A 
ENDBRANCH  20  21
ENDBRANCH  19  20
ENDBRANCH  16  19
ENDBRANCH   4  13
BRANCH   1  29
ATOM     27  C   UNL     1       1.607   9.338  17.958  0.00  0.00    +0.000 C 
ATOM     28  N   UNL     1       1.936   8.418  19.012  0.00  0.00    +0.000 N 
ATOM     29  C   UNL     1       2.122   7.084  18.761  0.00  0.00    +0.000 C 
ATOM     30  O   UNL     1       2.105   6.607  17.622  0.00  0.00    +0.000 OA
ATOM     31  H   UNL     1       1.822   8.711  19.976  0.00  0.00    +0.000 HD
ENDBRANCH   1  29
TORSDOF 5
ENDMDL
MODEL 7
REMARK VINA RESULT:      -7.9      4.976      9.793
REMARK  Name = 
REMARK  6 active torsions:
REMARK  status: ('A' for Active; 'I' for Inactive)
REMARK    1  A    between atoms: C_1  and  N_2
REMARK    2  A    between atoms: C_3  and  C_5
REMARK    3  A    between atoms: C_8  and  C_10
REMARK    4  A    between atoms: C_13  and  C_14
REMARK    5  A    between atoms: C_14  and  O_15
REMARK    6  A    between atoms: O_15  and  C_16
REMARK                            x       y       z     vdW  Elec       q    Type
REMARK                         _______ _______ _______ _____ _____    ______ ____
ROOT
ATOM      1  C   UNL     1       0.648  13.771  21.352  0.00  0.00    +0.000 C 
ATOM      2  C   UNL     1       0.192  12.330  21.448  0.00  0.00    +0.000 C 
ATOM      3  N   UNL     1      -1.020  12.082  20.647  0.00  0.00    +0.000 N 
ATOM      4  C   UNL     1      -1.180  11.046  19.698  0.00  0.00    +0.000 C 
ATOM      5  O   UNL     1      -2.199  10.880  19.024  0.00  0.00    +0.000 OA
ATOM      6  C   UNL     1      -2.012  13.112  20.851  0.00  0.00    +0.000 A 
ATOM      7  C   UNL     1      -3.353  12.990  20.456  0.00  0.00    +0.000 A 
ATOM      8  C   UNL     1      -4.273  14.032  20.656  0.00  0.00    +0.000 A 
ATOM      9  C   UNL     1      -3.873  15.217  21.281  0.00  0.00    +0.000 A 
ATOM     10  C   UNL     1      -2.557  15.355  21.694  0.00  0.00    +0.000 A 
ATOM     11  C   UNL     1      -1.634  14.328  21.460  0.00  0.00    +0.000 A 
ATOM     12  O   UNL     1      -0.350  14.663  21.818  0.00  0.00    +0.000 OA
ENDROOT
BRANCH   4  13
ATOM     13  C   UNL     1      -0.053  10.119  19.349  0.00  0.00    +0.000 A 
ATOM     14  C   UNL     1       0.540  10.034  18.087  0.00  0.00    +0.000 A 
ATOM     15  C   UNL     1       1.492   9.051  17.806  0.00  0.00    +0.000 A 
ATOM     16  C   UNL     1       1.986   8.232  18.825  0.00  0.00    +0.000 A 
ATOM     17  C   UNL     1       1.493   8.399  20.124  0.00  0.00    +0.000 A 
ATOM     18  C   UNL     1       0.465   9.313  20.375  0.00  0.00    +0.000 A 
BRANCH  16  19
ATOM     19  C   UNL     1       3.084   7.243  18.533  0.00  0.00    +0.000 C 
BRANCH  19  20
ATOM     20  O   UNL     1       3.128   6.302  19.603  0.00  0.00    +0.000 OA
BRANCH  20  21
ATOM     21  C   UNL     1       2.382   5.167  19.451  0.00  0.00    +0.000 A 
ATOM     22  C   UNL     1       2.130   4.511  18.245  0.00  0.00    +0.000 A 
ATOM     23  C   UNL     1       1.354   3.348  18.222  0.00  0.00    +0.000 A 
ATOM     24  C   UNL     1       0.824   2.837  19.406  0.00  0.00    +0.000 A 
ATOM     25  C   UNL     1       1.067   3.490  20.613  0.00  0.00    +0.000 A 
ATOM     26  C   UNL     1       1.841   4.652  20.633  0.00  0.00    +0.000 A 
ENDBRANCH  20  21
ENDBRANCH  19  20
ENDBRANCH  16  19
ENDBRANCH   4  13
BRANCH   1  29
ATOM     27  C   UNL     1       2.803  13.181  18.263  0.00  0.00    +0.000 C 
ATOM     28  N   UNL     1       2.090  13.033  19.501  0.00  0.00    +0.000 N 
ATOM     29  C   UNL     1       1.218  13.994  19.940  0.00  0.00    +0.000 C 
ATOM     30  O   UNL     1       0.926  14.991  19.272  0.00  0.00    +0.000 OA
ATOM     31  H   UNL     1       2.387  12.321  20.160  0.00  0.00    +0.000 HD
ENDBRANCH   1  29
TORSDOF 5
ENDMDL
MODEL 8
REMARK VINA RESULT:      -7.9      4.603      8.568
REMARK  Name = 
REMARK  6 active torsions:
REMARK  status: ('A' for Active; 'I' for Inactive)
REMARK    1  A    between atoms: C_1  and  N_2
REMARK    2  A    between atoms: C_3  and  C_5
REMARK    3  A    between atoms: C_8  and  C_10
REMARK    4  A    between atoms: C_13  and  C_14
REMARK    5  A    between atoms: C_14  and  O_15
REMARK    6  A    between atoms: O_15  and  C_16
REMARK                            x       y       z     vdW  Elec       q    Type
REMARK                         _______ _______ _______ _____ _____    ______ ____
ROOT
ATOM      1  C   UNL     1      -1.731  11.638  20.919  0.00  0.00    +0.000 C 
ATOM      2  C   UNL     1      -1.144  11.135  19.616  0.00  0.00    +0.000 C 
ATOM      3  N   UNL     1       0.026  11.928  19.197  0.00  0.00    +0.000 N 
ATOM      4  C   UNL     1       1.289  11.403  18.836  0.00  0.00    +0.000 C 
ATOM      5  O   UNL     1       2.257  12.095  18.515  0.00  0.00    +0.000 OA
ATOM      6  C   UNL     1      -0.223  13.346  19.315  0.00  0.00    +0.000 A 
ATOM      7  C   UNL     1       0.584  14.329  18.724  0.00  0.00    +0.000 A 
ATOM      8  C   UNL     1       0.312  15.697  18.891  0.00  0.00    +0.000 A 
ATOM      9  C   UNL     1      -0.796  16.112  19.637  0.00  0.00    +0.000 A 
ATOM     10  C   UNL     1      -1.617  15.158  20.217  0.00  0.00    +0.000 A 
ATOM     11  C   UNL     1      -1.322  13.795  20.080  0.00  0.00    +0.000 A 
ATOM     12  O   UNL     1      -2.156  12.984  20.810  0.00  0.00    +0.000 OA
ENDROOT
BRANCH   4  13
ATOM     13  C   UNL     1       1.584   9.935  18.930  0.00  0.00    +0.000 A 
ATOM     14  C   UNL     1       1.396   9.162  20.079  0.00  0.00    +0.000 A 
ATOM     15  C   UNL     1       1.823   7.833  20.128  0.00  0.00    +0.000 A 
ATOM     16  C   UNL     1       2.304   7.202  18.978  0.00  0.00    +0.000 A 
ATOM     17  C   UNL     1       2.374   7.931  17.786  0.00  0.00    +0.000 A 
ATOM     18  C   UNL     1       2.044   9.290  17.771  0.00  0.00    +0.000 A 
BRANCH  16  19
ATOM     19  C   UNL     1       2.668   5.741  19.016  0.00  0.00    +0.000 C 
BRANCH  19  20
ATOM     20  O   UNL     1       4.006   5.630  19.495  0.00  0.00    +0.000 OA
BRANCH  20  21
ATOM     21  C   UNL     1       4.957   5.270  18.579  0.00  0.00    +0.000 A 
ATOM     22  C   UNL     1       4.710   4.799  17.289  0.00  0.00    +0.000 A 
ATOM     23  C   UNL     1       5.773   4.470  16.442  0.00  0.00    +0.000 A 
ATOM     24  C   UNL     1       7.088   4.610  16.883  0.00  0.00    +0.000 A 
ATOM     25  C   UNL     1       7.341   5.075  18.172  0.00  0.00    +0.000 A 
ATOM     26  C   UNL     1       6.278   5.401  19.016  0.00  0.00    +0.000 A 
ENDBRANCH  20  21
ENDBRANCH  19  20
ENDBRANCH  16  19
ENDBRANCH   4  13
BRANCH   1  29
ATOM     27  C   UNL     1       0.053   9.487  23.514  0.00  0.00    +0.000 C 
ATOM     28  N   UNL     1      -0.711   9.948  22.387  0.00  0.00    +0.000 N 
ATOM     29  C   UNL     1      -0.751  11.275  22.049  0.00  0.00    +0.000 C 
ATOM     30  O   UNL     1      -0.078  12.135  22.624  0.00  0.00    +0.000 OA
ATOM     31  H   UNL     1      -1.394   9.327  21.967  0.00  0.00    +0.000 HD
ENDBRANCH   1  29
TORSDOF 5
ENDMDL
MODEL 9
REMARK VINA RESULT:      -7.8      4.573      8.117
REMARK  Name = 
REMARK  6 active torsions:
REMARK  status: ('A' for Active; 'I' for Inactive)
REMARK    1  A    between atoms: C_1  and  N_2
REMARK    2  A    between atoms: C_3  and  C_5
REMARK    3  A    between atoms: C_8  and  C_10
REMARK    4  A    between atoms: C_13  and  C_14
REMARK    5  A    between atoms: C_14  and  O_15
REMARK    6  A    between atoms: O_15  and  C_16
REMARK                            x       y       z     vdW  Elec       q    Type
REMARK                         _______ _______ _______ _____ _____    ______ ____
ROOT
ATOM      1  C   UNL     1      -1.535  12.723  19.005  0.00  0.00    +0.000 C 
ATOM      2  C   UNL     1      -0.281  12.198  19.673  0.00  0.00    +0.000 C 
ATOM      3  N   UNL     1      -0.593  11.363  20.847  0.00  0.00    +0.000 N 
ATOM      4  C   UNL     1      -0.090  10.064  21.089  0.00  0.00    +0.000 C 
ATOM      5  O   UNL     1      -0.389   9.380  22.070  0.00  0.00    +0.000 OA
ATOM      6  C   UNL     1      -1.590  11.982  21.690  0.00  0.00    +0.000 A 
ATOM      7  C   UNL     1      -1.866  11.568  23.001  0.00  0.00    +0.000 A 
ATOM      8  C   UNL     1      -2.865  12.187  23.770  0.00  0.00    +0.000 A 
ATOM      9  C   UNL     1      -3.597  13.257  23.247  0.00  0.00    +0.000 A 
ATOM     10  C   UNL     1      -3.332  13.693  21.958  0.00  0.00    +0.000 A 
ATOM     11  C   UNL     1      -2.361  13.050  21.181  0.00  0.00    +0.000 A 
ATOM     12  O   UNL     1      -2.300  13.520  19.892  0.00  0.00    +0.000 OA
ENDROOT
BRANCH   4  13
ATOM     13  C   UNL     1       0.778   9.359  20.088  0.00  0.00    +0.000 A 
ATOM     14  C   UNL     1       1.037   9.827  18.798  0.00  0.00    +0.000 A 
ATOM     15  C   UNL     1       1.743   9.047  17.879  0.00  0.00    +0.000 A 
ATOM     16  C   UNL     1       2.342   7.850  18.280  0.00  0.00    +0.000 A 
ATOM     17  C   UNL     1       2.200   7.436  19.609  0.00  0.00    +0.000 A 
ATOM     18  C   UNL     1       1.403   8.170  20.494  0.00  0.00    +0.000 A 
BRANCH  16  19
ATOM     19  C   UNL     1       3.185   7.065  17.310  0.00  0.00    +0.000 C 
BRANCH  19  20
ATOM     20  O   UNL     1       3.864   6.044  18.037  0.00  0.00    +0.000 OA
BRANCH  20  21
ATOM     21  C   UNL     1       5.220   6.176  18.158  0.00  0.00    +0.000 A 
ATOM     22  C   UNL     1       6.041   6.947  17.334  0.00  0.00    +0.000 A 
ATOM     23  C   UNL     1       7.419   7.005  17.567  0.00  0.00    +0.000 A 
ATOM     24  C   UNL     1       7.981   6.292  18.625  0.00  0.00    +0.000 A 
ATOM     25  C   UNL     1       7.167   5.516  19.448  0.00  0.00    +0.000 A 
ATOM     26  C   UNL     1       5.792   5.458  19.212  0.00  0.00    +0.000 A 
ENDBRANCH  20  21
ENDBRANCH  19  20
ENDBRANCH  16  19
ENDBRANCH   4  13
BRANCH   1  29
ATOM     27  C   UNL     1      -2.187  10.042  16.373  0.00  0.00    +0.000 C 
ATOM     28  N   UNL     1      -1.587  11.052  17.201  0.00  0.00    +0.000 N 
ATOM     29  C   UNL     1      -2.230  11.540  18.307  0.00  0.00    +0.000 C 
ATOM     30  O   UNL     1      -3.308  11.093  18.709  0.00  0.00    +0.000 OA
ATOM     31  H   UNL     1      -0.781  11.560  16.853  0.00  0.00    +0.000 HD
ENDBRANCH   1  29
TORSDOF 5
ENDMDL
