MODEL 1
REMARK VINA RESULT:      -8.9      0.000      0.000
REMARK  Name = 
REMARK  5 active torsions:
REMARK  status: ('A' for Active; 'I' for Inactive)
REMARK    1  A    between atoms: C_1  and  N_2
REMARK    2  A    between atoms: C_6  and  C_7
REMARK    3  A    between atoms: C_11  and  N_12
REMARK    4  A    between atoms: C_13  and  C_15
REMARK    5  A    between atoms: N_20  and  C_21
REMARK                            x       y       z     vdW  Elec       q    Type
REMARK                         _______ _______ _______ _____ _____    ______ ____
ROOT
ATOM      1  N   UNL     1       1.477   8.819  18.775  0.00  0.00    +0.000 N 
ATOM      2  C   UNL     1       1.704   8.166  19.969  0.00  0.00    +0.000 C 
ATOM      3  O   UNL     1       1.481   8.583  21.102  0.00  0.00    +0.000 OA
ATOM      4  H   UNL     1       1.748   8.308  17.940  0.00  0.00    +0.000 HD
ENDROOT
BRANCH   2   5
ATOM      5  C   UNL     1       2.282   6.757  19.843  0.00  0.00    +0.000 A 
ATOM      6  C   UNL     1       1.617   5.740  20.675  0.00  0.00    +0.000 A 
ATOM      7  C   UNL     1       2.020   4.484  20.523  0.00  0.00    +0.000 A 
ATOM      8  C   UNL     1       3.098   4.130  19.580  0.00  0.00    +0.000 A 
ATOM      9  O   UNL     1       3.374   2.934  19.511  0.00  0.00    +0.000 OA
ATOM     10  N   UNL     1       3.710   5.203  18.909  0.00  0.00    +0.000 N 
ATOM     11  N   UNL     1       3.275   6.531  19.037  0.00  0.00    +0.000 NA
BRANCH  10  12
ATOM     12  C   UNL     1       4.818   5.029  18.006  0.00  0.00    +0.000 A 
ATOM     13  C   UNL     1       4.643   4.834  16.626  0.00  0.00    +0.000 A 
ATOM     14  C   UNL     1       5.733   4.653  15.767  0.00  0.00    +0.000 A 
ATOM     15  C   UNL     1       7.027   4.658  16.271  0.00  0.00    +0.000 A 
ATOM     16  C   UNL     1       7.231   4.845  17.634  0.00  0.00    +0.000 A 
ATOM     17  C   UNL     1       6.139   5.036  18.490  0.00  0.00    +0.000 A 
ENDBRANCH  10  12
ENDBRANCH   2   5
BRANCH   1  22
ATOM     18  C   UNL     1      -1.217  11.327  18.232  0.00  0.00    +0.000 A 
ATOM     19  C   UNL     1      -0.507  12.523  18.413  0.00  0.00    +0.000 A 
ATOM     20  C   UNL     1       0.861  12.509  18.666  0.00  0.00    +0.000 A 
ATOM     21  C   UNL     1       1.538  11.293  18.758  0.00  0.00    +0.000 A 
ATOM     22  C   UNL     1       0.855  10.081  18.625  0.00  0.00    +0.000 A 
ATOM     23  C   UNL     1      -0.522  10.110  18.358  0.00  0.00    +0.000 A 
BRANCH  18  29
ATOM     24  C   UNL     1      -2.795  10.756  15.518  0.00  0.00    +0.000 C 
ATOM     25  N   UNL     1      -3.325  11.179  16.786  0.00  0.00    +0.000 N 
ATOM     26  C   UNL     1      -4.632  11.493  17.007  0.00  0.00    +0.000 A 
ATOM     27  N   UNL     1      -4.789  11.872  18.250  0.00  0.00    +0.000 NA
ATOM     28  N   UNL     1      -3.555  11.834  18.848  0.00  0.00    +0.000 NA
ATOM     29  C   UNL     1      -2.657  11.418  17.966  0.00  0.00    +0.000 A 
ENDBRANCH  18  29
ENDBRANCH   1  22
TORSDOF 4
ENDMDL
MODEL 2
REMARK VINA RESULT:      -8.7      1.075      1.419
REMARK  Name = 
REMARK  5 active torsions:
REMARK  status: ('A' for Active; 'I' for Inactive)
REMARK    1  A    between atoms: C_1  and  N_2
REMARK    2  A    between atoms: C_6  and  C_7
REMARK    3  A    between atoms: C_11  and  N_12
REMARK    4  A    between atoms: C_13  and  C_15
REMARK    5  A    between atoms: N_20  and  C_21
REMARK                            x       y       z     vdW  Elec       q    Type
REMARK                         _______ _______ _______ _____ _____    ______ ____
ROOT
ATOM      1  N   UNL     1       0.965   9.061  19.347  0.00  0.00    +0.000 N 
ATOM      2  C   UNL     1       1.870   8.569  18.428  0.00  0.00    +0.000 C 
ATOM      3  O   UNL     1       2.202   9.077  17.361  0.00  0.00    +0.000 OA
ATOM      4  H   UNL     1       0.813   8.479  20.164  0.00  0.00    +0.000 HD
ENDROOT
BRANCH   2   5
ATOM      5  C   UNL     1       2.536   7.249  18.813  0.00  0.00    +0.000 A 
ATOM      6  C   UNL     1       1.993   6.613  20.025  0.00  0.00    +0.000 A 
ATOM      7  C   UNL     1       2.473   5.416  20.342  0.00  0.00    +0.000 A 
ATOM      8  C   UNL     1       3.517   4.765  19.527  0.00  0.00    +0.000 A 
ATOM      9  O   UNL     1       3.871   3.652  19.907  0.00  0.00    +0.000 OA
ATOM     10  N   UNL     1       4.013   5.514  18.445  0.00  0.00    +0.000 N 
ATOM     11  N   UNL     1       3.495   6.766  18.082  0.00  0.00    +0.000 NA
BRANCH  10  12
ATOM     12  C   UNL     1       5.077   5.045  17.595  0.00  0.00    +0.000 A 
ATOM     13  C   UNL     1       6.427   5.094  17.980  0.00  0.00    +0.000 A 
ATOM     14  C   UNL     1       7.447   4.645  17.133  0.00  0.00    +0.000 A 
ATOM     15  C   UNL     1       7.139   4.140  15.876  0.00  0.00    +0.000 A 
ATOM     16  C   UNL     1       5.811   4.081  15.467  0.00  0.00    +0.000 A 
ATOM     17  C   UNL     1       4.791   4.522  16.321  0.00  0.00    +0.000 A 
ENDBRANCH  10  12
ENDBRANCH   2   5
BRANCH   1  22
ATOM     18  C   UNL     1      -1.753  11.518  18.700  0.00  0.00    +0.000 A 
ATOM     19  C   UNL     1      -1.160  12.700  19.168  0.00  0.00    +0.000 A 
ATOM     20  C   UNL     1       0.145  12.700  19.651  0.00  0.00    +0.000 A 
ATOM     21  C   UNL     1       0.872  11.511  19.688  0.00  0.00    +0.000 A 
ATOM     22  C   UNL     1       0.299  10.307  19.269  0.00  0.00    +0.000 A 
ATOM     23  C   UNL     1      -1.014  10.323  18.773  0.00  0.00    +0.000 A 
BRANCH  18  29
ATOM     24  C   UNL     1      -2.858  10.947  15.761  0.00  0.00    +0.000 C 
ATOM     25  N   UNL     1      -3.594  11.354  16.928  0.00  0.00    +0.000 N 
ATOM     26  C   UNL     1      -4.923  11.650  16.934  0.00  0.00    +0.000 A 
ATOM     27  N   UNL     1      -5.287  12.018  18.137  0.00  0.00    +0.000 NA
ATOM     28  N   UNL     1      -4.167  11.991  18.928  0.00  0.00    +0.000 NA
ATOM     29  C   UNL     1      -3.131  11.592  18.203  0.00  0.00    +0.000 A 
ENDBRANCH  18  29
ENDBRANCH   1  22
TORSDOF 4
ENDMDL
MODEL 3
REMARK VINA RESULT:      -8.5      2.352      3.048
REMARK  Name = 
REMARK  5 active torsions:
REMARK  status: ('A' for Active; 'I' for Inactive)
REMARK    1  A    between atoms: C_1  and  N_2
REMARK    2  A    between atoms: C_6  and  C_7
REMARK    3  A    between atoms: C_11  and  N_12
REMARK    4  A    between atoms: C_13  and  C_15
REMARK    5  A    between atoms: N_20  and  C_21
REMARK                            x       y       z     vdW  Elec       q    Type
REMARK                         _______ _______ _______ _____ _____    ______ ____
ROOT
ATOM      1  N   UNL     1       1.230   7.819  21.236  0.00  0.00    +0.000 N 
ATOM      2  C   UNL     1       1.846   7.590  20.022  0.00  0.00    +0.000 C 
ATOM      3  O   UNL     1       1.918   8.355  19.065  0.00  0.00    +0.000 OA
ATOM      4  H   UNL     1       1.266   7.048  21.895  0.00  0.00    +0.000 HD
ENDROOT
BRANCH   2   5
ATOM      5  C   UNL     1       2.527   6.229  19.883  0.00  0.00    +0.000 A 
ATOM      6  C   UNL     1       2.025   5.191  20.799  0.00  0.00    +0.000 A 
ATOM      7  C   UNL     1       2.517   3.967  20.647  0.00  0.00    +0.000 A 
ATOM      8  C   UNL     1       3.535   3.669  19.621  0.00  0.00    +0.000 A 
ATOM      9  O   UNL     1       3.903   2.498  19.562  0.00  0.00    +0.000 OA
ATOM     10  N   UNL     1       3.994   4.764  18.870  0.00  0.00    +0.000 N 
ATOM     11  N   UNL     1       3.462   6.056  18.999  0.00  0.00    +0.000 NA
BRANCH  10  12
ATOM     12  C   UNL     1       5.030   4.649  17.876  0.00  0.00    +0.000 A 
ATOM     13  C   UNL     1       4.753   4.389  16.524  0.00  0.00    +0.000 A 
ATOM     14  C   UNL     1       5.775   4.267  15.576  0.00  0.00    +0.000 A 
ATOM     15  C   UNL     1       7.104   4.398  15.962  0.00  0.00    +0.000 A 
ATOM     16  C   UNL     1       7.409   4.653  17.294  0.00  0.00    +0.000 A 
ATOM     17  C   UNL     1       6.383   4.784  18.239  0.00  0.00    +0.000 A 
ENDBRANCH  10  12
ENDBRANCH   2   5
BRANCH   1  22
ATOM     18  C   UNL     1       0.182  11.387  21.138  0.00  0.00    +0.000 A 
ATOM     19  C   UNL     1      -0.614  11.462  22.290  0.00  0.00    +0.000 A 
ATOM     20  C   UNL     1      -0.770  10.358  23.122  0.00  0.00    +0.000 A 
ATOM     21  C   UNL     1      -0.141   9.155  22.805  0.00  0.00    +0.000 A 
ATOM     22  C   UNL     1       0.625   9.032  21.643  0.00  0.00    +0.000 A 
ATOM     23  C   UNL     1       0.783  10.156  20.819  0.00  0.00    +0.000 A 
BRANCH  18  29
ATOM     24  C   UNL     1      -1.391  12.146  18.467  0.00  0.00    +0.000 C 
ATOM     25  N   UNL     1      -0.375  12.902  19.150  0.00  0.00    +0.000 N 
ATOM     26  C   UNL     1       0.150  14.073  18.693  0.00  0.00    +0.000 A 
ATOM     27  N   UNL     1       1.073  14.494  19.521  0.00  0.00    +0.000 NA
ATOM     28  N   UNL     1       1.175  13.565  20.525  0.00  0.00    +0.000 NA
ATOM     29  C   UNL     1       0.302  12.591  20.308  0.00  0.00    +0.000 A 
ENDBRANCH  18  29
ENDBRANCH   1  22
TORSDOF 4
ENDMDL
MODEL 4
REMARK VINA RESULT:      -8.5      0.519      1.444
REMARK  Name = 
REMARK  5 active torsions:
REMARK  status: ('A' for Active; 'I' for Inactive)
REMARK    1  A    between atoms: C_1  and  N_2
REMARK    2  A    between atoms: C_6  and  C_7
REMARK    3  A    between atoms: C_11  and  N_12
REMARK    4  A    between atoms: C_13  and  C_15
REMARK    5  A    between atoms: N_20  and  C_21
REMARK                            x       y       z     vdW  Elec       q    Type
REMARK                         _______ _______ _______ _____ _____    ______ ____
ROOT
ATOM      1  N   UNL     1       1.502   8.854  18.855  0.00  0.00    +0.000 N 
ATOM      2  C   UNL     1       1.650   8.177  20.048  0.00  0.00    +0.000 C 
ATOM      3  O   UNL     1       1.333   8.562  21.170  0.00  0.00    +0.000 OA
ATOM      4  H   UNL     1       1.847   8.369  18.032  0.00  0.00    +0.000 HD
ENDROOT
BRANCH   2   5
ATOM      5  C   UNL     1       2.265   6.782  19.934  0.00  0.00    +0.000 A 
ATOM      6  C   UNL     1       1.620   5.754  20.768  0.00  0.00    +0.000 A 
ATOM      7  C   UNL     1       2.055   4.507  20.628  0.00  0.00    +0.000 A 
ATOM      8  C   UNL     1       3.149   4.174  19.693  0.00  0.00    +0.000 A 
ATOM      9  O   UNL     1       3.455   2.986  19.635  0.00  0.00    +0.000 OA
ATOM     10  N   UNL     1       3.738   5.259  19.020  0.00  0.00    +0.000 N 
ATOM     11  N   UNL     1       3.269   6.576  19.137  0.00  0.00    +0.000 NA
BRANCH  10  12
ATOM     12  C   UNL     1       4.856   5.107  18.125  0.00  0.00    +0.000 A 
ATOM     13  C   UNL     1       6.181   5.023  18.582  0.00  0.00    +0.000 A 
ATOM     14  C   UNL     1       7.255   4.888  17.695  0.00  0.00    +0.000 A 
ATOM     15  C   UNL     1       7.027   4.839  16.325  0.00  0.00    +0.000 A 
ATOM     16  C   UNL     1       5.726   4.923  15.844  0.00  0.00    +0.000 A 
ATOM     17  C   UNL     1       4.651   5.048  16.735  0.00  0.00    +0.000 A 
ENDBRANCH  10  12
ENDBRANCH   2   5
BRANCH   1  22
ATOM     18  C   UNL     1      -1.155  11.326  18.040  0.00  0.00    +0.000 A 
ATOM     19  C   UNL     1      -0.527  12.525  18.411  0.00  0.00    +0.000 A 
ATOM     20  C   UNL     1       0.782  12.526  18.882  0.00  0.00    +0.000 A 
ATOM     21  C   UNL     1       1.478  11.325  19.006  0.00  0.00    +0.000 A 
ATOM     22  C   UNL     1       0.869  10.108  18.686  0.00  0.00    +0.000 A 
ATOM     23  C   UNL     1      -0.447  10.122  18.200  0.00  0.00    +0.000 A 
BRANCH  18  29
ATOM     24  C   UNL     1      -3.792  12.221  19.599  0.00  0.00    +0.000 C 
ATOM     25  N   UNL     1      -3.668  11.778  18.236  0.00  0.00    +0.000 N 
ATOM     26  C   UNL     1      -4.719  11.587  17.390  0.00  0.00    +0.000 A 
ATOM     27  N   UNL     1      -4.282  11.151  16.236  0.00  0.00    +0.000 NA
ATOM     28  N   UNL     1      -2.920  11.025  16.337  0.00  0.00    +0.000 NA
ATOM     29  C   UNL     1      -2.536  11.400  17.549  0.00  0.00    +0.000 A 
ENDBRANCH  18  29
ENDBRANCH   1  22
TORSDOF 4
ENDMDL
MODEL 5
REMARK VINA RESULT:      -8.5      2.935      9.160
REMARK  Name = 
REMARK  5 active torsions:
REMARK  status: ('A' for Active; 'I' for Inactive)
REMARK    1  A    between atoms: C_1  and  N_2
REMARK    2  A    between atoms: C_6  and  C_7
REMARK    3  A    between atoms: C_11  and  N_12
REMARK    4  A    between atoms: C_13  and  C_15
REMARK    5  A    between atoms: N_20  and  C_21
REMARK                            x       y       z     vdW  Elec       q    Type
REMARK                         _______ _______ _______ _____ _____    ______ ____
ROOT
ATOM      1  N   UNL     1       2.058   6.787  20.711  0.00  0.00    +0.000 N 
ATOM      2  C   UNL     1       1.739   7.899  19.959  0.00  0.00    +0.000 C 
ATOM      3  O   UNL     1       1.955   8.080  18.764  0.00  0.00    +0.000 OA
ATOM      4  H   UNL     1       1.809   6.840  21.694  0.00  0.00    +0.000 HD
ENDROOT
BRANCH   2   5
ATOM      5  C   UNL     1       1.017   9.013  20.716  0.00  0.00    +0.000 A 
ATOM      6  C   UNL     1       0.345   8.583  21.954  0.00  0.00    +0.000 A 
ATOM      7  C   UNL     1      -0.211   9.533  22.696  0.00  0.00    +0.000 A 
ATOM      8  C   UNL     1      -0.173  10.951  22.288  0.00  0.00    +0.000 A 
ATOM      9  O   UNL     1      -0.704  11.742  23.062  0.00  0.00    +0.000 OA
ATOM     10  N   UNL     1       0.423  11.219  21.043  0.00  0.00    +0.000 N 
ATOM     11  N   UNL     1       1.040  10.230  20.262  0.00  0.00    +0.000 NA
BRANCH  10  12
ATOM     12  C   UNL     1       0.481  12.541  20.475  0.00  0.00    +0.000 A 
ATOM     13  C   UNL     1      -0.440  12.991  19.515  0.00  0.00    +0.000 A 
ATOM     14  C   UNL     1      -0.359  14.275  18.966  0.00  0.00    +0.000 A 
ATOM     15  C   UNL     1       0.653  15.141  19.362  0.00  0.00    +0.000 A 
ATOM     16  C   UNL     1       1.581  14.722  20.309  0.00  0.00    +0.000 A 
ATOM     17  C   UNL     1       1.491  13.439  20.865  0.00  0.00    +0.000 A 
ENDBRANCH  10  12
ENDBRANCH   2   5
BRANCH   1  22
ATOM     18  C   UNL     1       4.499   4.529  19.043  0.00  0.00    +0.000 A 
ATOM     19  C   UNL     1       3.916   3.277  19.292  0.00  0.00    +0.000 A 
ATOM     20  C   UNL     1       2.702   3.177  19.965  0.00  0.00    +0.000 A 
ATOM     21  C   UNL     1       2.059   4.330  20.413  0.00  0.00    +0.000 A 
ATOM     22  C   UNL     1       2.631   5.590  20.220  0.00  0.00    +0.000 A 
ATOM     23  C   UNL     1       3.849   5.678  19.529  0.00  0.00    +0.000 A 
BRANCH  18  29
ATOM     24  C   UNL     1       5.048   4.284  15.909  0.00  0.00    +0.000 C 
ATOM     25  N   UNL     1       6.003   4.440  16.973  0.00  0.00    +0.000 N 
ATOM     26  C   UNL     1       7.354   4.426  16.802  0.00  0.00    +0.000 A 
ATOM     27  N   UNL     1       7.946   4.559  17.962  0.00  0.00    +0.000 NA
ATOM     28  N   UNL     1       6.964   4.633  18.916  0.00  0.00    +0.000 NA
ATOM     29  C   UNL     1       5.779   4.558  18.326  0.00  0.00    +0.000 A 
ENDBRANCH  18  29
ENDBRANCH   1  22
TORSDOF 4
ENDMDL
MODEL 6
REMARK VINA RESULT:      -8.4      2.504      3.280
REMARK  Name = 
REMARK  5 active torsions:
REMARK  status: ('A' for Active; 'I' for Inactive)
REMARK    1  A    between atoms: C_1  and  N_2
REMARK    2  A    between atoms: C_6  and  C_7
REMARK    3  A    between atoms: C_11  and  N_12
REMARK    4  A    between atoms: C_13  and  C_15
REMARK    5  A    between atoms: N_20  and  C_21
REMARK                            x       y       z     vdW  Elec       q    Type
REMARK                         _______ _______ _______ _____ _____    ______ ____
ROOT
ATOM      1  N   UNL     1       1.262   7.847  21.181  0.00  0.00    +0.000 N 
ATOM      2  C   UNL     1       1.868   7.590  19.968  0.00  0.00    +0.000 C 
ATOM      3  O   UNL     1       1.938   8.335  18.995  0.00  0.00    +0.000 OA
ATOM      4  H   UNL     1       1.297   7.089  21.855  0.00  0.00    +0.000 HD
ENDROOT
BRANCH   2   5
ATOM      5  C   UNL     1       2.539   6.221  19.852  0.00  0.00    +0.000 A 
ATOM      6  C   UNL     1       2.031   5.203  20.787  0.00  0.00    +0.000 A 
ATOM      7  C   UNL     1       2.514   3.973  20.656  0.00  0.00    +0.000 A 
ATOM      8  C   UNL     1       3.527   3.649  19.633  0.00  0.00    +0.000 A 
ATOM      9  O   UNL     1       3.887   2.475  19.593  0.00  0.00    +0.000 OA
ATOM     10  N   UNL     1       3.993   4.728  18.861  0.00  0.00    +0.000 N 
ATOM     11  N   UNL     1       3.471   6.026  18.968  0.00  0.00    +0.000 NA
BRANCH  10  12
ATOM     12  C   UNL     1       5.026   4.587  17.867  0.00  0.00    +0.000 A 
ATOM     13  C   UNL     1       4.749   4.233  16.537  0.00  0.00    +0.000 A 
ATOM     14  C   UNL     1       5.769   4.089  15.589  0.00  0.00    +0.000 A 
ATOM     15  C   UNL     1       7.094   4.291  15.954  0.00  0.00    +0.000 A 
ATOM     16  C   UNL     1       7.399   4.639  17.265  0.00  0.00    +0.000 A 
ATOM     17  C   UNL     1       6.375   4.793  18.209  0.00  0.00    +0.000 A 
ENDBRANCH  10  12
ENDBRANCH   2   5
BRANCH   1  22
ATOM     18  C   UNL     1       0.197  11.406  20.997  0.00  0.00    +0.000 A 
ATOM     19  C   UNL     1      -0.556  11.520  22.176  0.00  0.00    +0.000 A 
ATOM     20  C   UNL     1      -0.676  10.445  23.051  0.00  0.00    +0.000 A 
ATOM     21  C   UNL     1      -0.055   9.234  22.752  0.00  0.00    +0.000 A 
ATOM     22  C   UNL     1       0.668   9.071  21.568  0.00  0.00    +0.000 A 
ATOM     23  C   UNL     1       0.791  10.167  20.699  0.00  0.00    +0.000 A 
BRANCH  18  29
ATOM     24  C   UNL     1       2.544  13.554  20.745  0.00  0.00    +0.000 C 
ATOM     25  N   UNL     1       1.297  13.507  20.031  0.00  0.00    +0.000 N 
ATOM     26  C   UNL     1       0.874  14.463  19.157  0.00  0.00    +0.000 A 
ATOM     27  N   UNL     1      -0.311  14.148  18.699  0.00  0.00    +0.000 NA
ATOM     28  N   UNL     1      -0.686  12.978  19.308  0.00  0.00    +0.000 NA
ATOM     29  C   UNL     1       0.282  12.581  20.122  0.00  0.00    +0.000 A 
ENDBRANCH  18  29
ENDBRANCH   1  22
TORSDOF 4
ENDMDL
MODEL 7
REMARK VINA RESULT:      -8.4      2.010      9.134
REMARK  Name = 
REMARK  5 active torsions:
REMARK  status: ('A' for Active; 'I' for Inactive)
REMARK    1  A    between atoms: C_1  and  N_2
REMARK    2  A    between atoms: C_6  and  C_7
REMARK    3  A    between atoms: C_11  and  N_12
REMARK    4  A    between atoms: C_13  and  C_15
REMARK    5  A    between atoms: N_20  and  C_21
REMARK                            x       y       z     vdW  Elec       q    Type
REMARK                         _______ _______ _______ _____ _____    ______ ____
ROOT
ATOM      1  N   UNL     1       1.481   7.711  19.717  0.00  0.00    +0.000 N 
ATOM      2  C   UNL     1       1.207   8.605  20.732  0.00  0.00    +0.000 C 
ATOM      3  O   UNL     1       1.455   8.479  21.927  0.00  0.00    +0.000 OA
ATOM      4  H   UNL     1       1.178   7.995  18.791  0.00  0.00    +0.000 HD
ENDROOT
BRANCH   2   5
ATOM      5  C   UNL     1       0.535   9.905  20.290  0.00  0.00    +0.000 A 
ATOM      6  C   UNL     1       1.069  11.123  20.925  0.00  0.00    +0.000 A 
ATOM      7  C   UNL     1       0.584  12.283  20.499  0.00  0.00    +0.000 A 
ATOM      8  C   UNL     1      -0.456  12.346  19.454  0.00  0.00    +0.000 A 
ATOM      9  O   UNL     1      -0.815  13.475  19.128  0.00  0.00    +0.000 OA
ATOM     10  N   UNL     1      -0.943  11.111  18.991  0.00  0.00    +0.000 N 
ATOM     11  N   UNL     1      -0.419   9.878  19.410  0.00  0.00    +0.000 NA
BRANCH  10  12
ATOM     12  C   UNL     1      -2.001  11.004  18.020  0.00  0.00    +0.000 A 
ATOM     13  C   UNL     1      -3.242  11.641  18.184  0.00  0.00    +0.000 A 
ATOM     14  C   UNL     1      -4.262  11.515  17.235  0.00  0.00    +0.000 A 
ATOM     15  C   UNL     1      -4.066  10.741  16.099  0.00  0.00    +0.000 A 
ATOM     16  C   UNL     1      -2.848  10.096  15.910  0.00  0.00    +0.000 A 
ATOM     17  C   UNL     1      -1.825  10.233  16.857  0.00  0.00    +0.000 A 
ENDBRANCH  10  12
ENDBRANCH   2   5
BRANCH   1  22
ATOM     18  C   UNL     1       4.257   5.250  19.443  0.00  0.00    +0.000 A 
ATOM     19  C   UNL     1       3.724   4.166  20.157  0.00  0.00    +0.000 A 
ATOM     20  C   UNL     1       2.439   4.226  20.687  0.00  0.00    +0.000 A 
ATOM     21  C   UNL     1       1.673   5.378  20.524  0.00  0.00    +0.000 A 
ATOM     22  C   UNL     1       2.187   6.492  19.855  0.00  0.00    +0.000 A 
ATOM     23  C   UNL     1       3.480   6.415  19.315  0.00  0.00    +0.000 A 
BRANCH  18  29
ATOM     24  C   UNL     1       5.187   4.431  16.502  0.00  0.00    +0.000 C 
ATOM     25  N   UNL     1       6.006   4.751  17.640  0.00  0.00    +0.000 N 
ATOM     26  C   UNL     1       7.365   4.670  17.656  0.00  0.00    +0.000 A 
ATOM     27  N   UNL     1       7.811   4.994  18.844  0.00  0.00    +0.000 NA
ATOM     28  N   UNL     1       6.721   5.264  19.630  0.00  0.00    +0.000 NA
ATOM     29  C   UNL     1       5.618   5.116  18.910  0.00  0.00    +0.000 A 
ENDBRANCH  18  29
ENDBRANCH   1  22
TORSDOF 4
ENDMDL
MODEL 8
REMARK VINA RESULT:      -8.4      2.054      9.447
REMARK  Name = 
REMARK  5 active torsions:
REMARK  status: ('A' for Active; 'I' for Inactive)
REMARK    1  A    between atoms: C_1  and  N_2
REMARK    2  A    between atoms: C_6  and  C_7
REMARK    3  A    between atoms: C_11  and  N_12
REMARK    4  A    between atoms: C_13  and  C_15
REMARK    5  A    between atoms: N_20  and  C_21
REMARK                            x       y       z     vdW  Elec       q    Type
REMARK                         _______ _______ _______ _____ _____    ______ ____
ROOT
ATOM      1  N   UNL     1       1.769   8.231  19.537  0.00  0.00    +0.000 N 
ATOM      2  C   UNL     1       1.757   8.981  18.379  0.00  0.00    +0.000 C 
ATOM      3  O   UNL     1       2.277   8.703  17.303  0.00  0.00    +0.000 OA
ATOM      4  H   UNL     1       1.293   8.646  20.331  0.00  0.00    +0.000 HD
ENDROOT
BRANCH   2   5
ATOM      5  C   UNL     1       0.986  10.298  18.465  0.00  0.00    +0.000 A 
ATOM      6  C   UNL     1       1.804  11.471  18.817  0.00  0.00    +0.000 A 
ATOM      7  C   UNL     1       1.197  12.652  18.806  0.00  0.00    +0.000 A 
ATOM      8  C   UNL     1      -0.236  12.778  18.475  0.00  0.00    +0.000 A 
ATOM      9  O   UNL     1      -0.684  13.921  18.479  0.00  0.00    +0.000 OA
ATOM     10  N   UNL     1      -0.924  11.574  18.242  0.00  0.00    +0.000 N 
ATOM     11  N   UNL     1      -0.290  10.323  18.221  0.00  0.00    +0.000 NA
BRANCH  10  12
ATOM     12  C   UNL     1      -2.338  11.525  17.970  0.00  0.00    +0.000 A 
ATOM     13  C   UNL     1      -3.303  11.836  18.942  0.00  0.00    +0.000 A 
ATOM     14  C   UNL     1      -4.673  11.769  18.662  0.00  0.00    +0.000 A 
ATOM     15  C   UNL     1      -5.109  11.382  17.401  0.00  0.00    +0.000 A 
ATOM     16  C   UNL     1      -4.176  11.065  16.420  0.00  0.00    +0.000 A 
ATOM     17  C   UNL     1      -2.805  11.143  16.700  0.00  0.00    +0.000 A 
ENDBRANCH  10  12
ENDBRANCH   2   5
BRANCH   1  22
ATOM     18  C   UNL     1       4.243   5.462  19.309  0.00  0.00    +0.000 A 
ATOM     19  C   UNL     1       3.567   4.443  19.997  0.00  0.00    +0.000 A 
ATOM     20  C   UNL     1       2.284   4.650  20.494  0.00  0.00    +0.000 A 
ATOM     21  C   UNL     1       1.663   5.886  20.323  0.00  0.00    +0.000 A 
ATOM     22  C   UNL     1       2.323   6.936  19.680  0.00  0.00    +0.000 A 
ATOM     23  C   UNL     1       3.612   6.711  19.173  0.00  0.00    +0.000 A 
BRANCH  18  29
ATOM     24  C   UNL     1       5.147   4.525  16.395  0.00  0.00    +0.000 C 
ATOM     25  N   UNL     1       5.968   4.758  17.552  0.00  0.00    +0.000 N 
ATOM     26  C   UNL     1       7.310   4.526  17.603  0.00  0.00    +0.000 A 
ATOM     27  N   UNL     1       7.760   4.806  18.800  0.00  0.00    +0.000 NA
ATOM     28  N   UNL     1       6.688   5.201  19.557  0.00  0.00    +0.000 NA
ATOM     29  C   UNL     1       5.593   5.173  18.811  0.00  0.00    +0.000 A 
ENDBRANCH  18  29
ENDBRANCH   1  22
TORSDOF 4
ENDMDL
MODEL 9
REMARK VINA RESULT:      -8.4      1.810      3.348
REMARK  Name = 
REMARK  5 active torsions:
REMARK  status: ('A' for Active; 'I' for Inactive)
REMARK    1  A    between atoms: C_1  and  N_2
REMARK    2  A    between atoms: C_6  and  C_7
REMARK    3  A    between atoms: C_11  and  N_12
REMARK    4  A    between atoms: C_13  and  C_15
REMARK    5  A    between atoms: N_20  and  C_21
REMARK                            x       y       z     vdW  Elec       q    Type
REMARK                         _______ _______ _______ _____ _____    ______ ____
ROOT
ATOM      1  N   UNL     1       0.808   9.221  18.959  0.00  0.00    +0.000 N 
ATOM      2  C   UNL     1       1.886   9.157  18.102  0.00  0.00    +0.000 C 
ATOM      3  O   UNL     1       2.313  10.046  17.371  0.00  0.00    +0.000 OA
ATOM      4  H   UNL     1       0.603   8.366  19.468  0.00  0.00    +0.000 HD
ENDROOT
BRANCH   2   5
ATOM      5  C   UNL     1       2.632   7.823  18.090  0.00  0.00    +0.000 A 
ATOM      6  C   UNL     1       3.848   7.802  17.259  0.00  0.00    +0.000 A 
ATOM      7  C   UNL     1       4.582   6.697  17.297  0.00  0.00    +0.000 A 
ATOM      8  C   UNL     1       4.185   5.536  18.119  0.00  0.00    +0.000 A 
ATOM      9  O   UNL     1       4.951   4.576  18.089  0.00  0.00    +0.000 OA
ATOM     10  N   UNL     1       2.959   5.651  18.798  0.00  0.00    +0.000 N 
ATOM     11  N   UNL     1       2.188   6.823  18.790  0.00  0.00    +0.000 NA
BRANCH  10  12
ATOM     12  C   UNL     1       2.403   4.583  19.588  0.00  0.00    +0.000 A 
ATOM     13  C   UNL     1       2.636   4.466  20.968  0.00  0.00    +0.000 A 
ATOM     14  C   UNL     1       2.097   3.413  21.716  0.00  0.00    +0.000 A 
ATOM     15  C   UNL     1       1.315   2.446  21.097  0.00  0.00    +0.000 A 
ATOM     16  C   UNL     1       1.069   2.534  19.731  0.00  0.00    +0.000 A 
ATOM     17  C   UNL     1       1.602   3.595  18.986  0.00  0.00    +0.000 A 
ENDBRANCH  10  12
ENDBRANCH   2   5
BRANCH   1  22
ATOM     18  C   UNL     1      -2.103  11.537  18.899  0.00  0.00    +0.000 A 
ATOM     19  C   UNL     1      -1.657  12.548  19.763  0.00  0.00    +0.000 A 
ATOM     20  C   UNL     1      -0.386  12.493  20.328  0.00  0.00    +0.000 A 
ATOM     21  C   UNL     1       0.453  11.416  20.047  0.00  0.00    +0.000 A 
ATOM     22  C   UNL     1       0.026  10.370  19.225  0.00  0.00    +0.000 A 
ATOM     23  C   UNL     1      -1.253  10.443  18.652  0.00  0.00    +0.000 A 
BRANCH  18  29
ATOM     24  C   UNL     1      -3.083  11.045  15.902  0.00  0.00    +0.000 C 
ATOM     25  N   UNL     1      -3.861  11.456  17.039  0.00  0.00    +0.000 N 
ATOM     26  C   UNL     1      -5.181  11.792  16.988  0.00  0.00    +0.000 A 
ATOM     27  N   UNL     1      -5.590  12.151  18.178  0.00  0.00    +0.000 NA
ATOM     28  N   UNL     1      -4.511  12.079  19.020  0.00  0.00    +0.000 NA
ATOM     29  C   UNL     1      -3.454  11.661  18.339  0.00  0.00    +0.000 A 
ENDBRANCH  18  29
ENDBRANCH   1  22
TORSDOF 4
ENDMDL
