MODEL 1
REMARK VINA RESULT:      -9.0      0.000      0.000
REMARK  Name = 
REMARK  7 active torsions:
REMARK  status: ('A' for Active; 'I' for Inactive)
REMARK    1  A    between atoms: C_1  and  C_2
REMARK    2  A    between atoms: C_2  and  C_3
REMARK    3  A    between atoms: N_12  and  C_13
REMARK    4  A    between atoms: C_13  and  C_14
REMARK    5  A    between atoms: N_16  and  C_17
REMARK    6  A    between atoms: C_17  and  C_18
REMARK    7  A    between atoms: C_18  and  C_19
REMARK                            x       y       z     vdW  Elec       q    Type
REMARK                         _______ _______ _______ _____ _____    ______ ____
ROOT
ATOM      1  C   UNL     1       7.225   5.426  16.929  0.00  0.00    +0.000 C 
ENDROOT
BRANCH   1   7
ATOM      2  C   UNL     1       4.460   2.583  19.882  0.00  0.00    +0.000 C 
ATOM      3  C   UNL     1       4.504   3.743  18.896  0.00  0.00    +0.000 C 
ATOM      4  N   UNL     1       4.416   3.248  17.526  0.00  0.00    +0.000 N 
ATOM      5  C   UNL     1       5.350   3.832  16.701  0.00  0.00    +0.000 C 
ATOM      6  O   UNL     1       5.487   3.578  15.517  0.00  0.00    +0.000 OA
ATOM      7  N   UNL     1       6.106   4.675  17.443  0.00  0.00    +0.000 N 
ATOM      8  C   UNL     1       5.881   4.438  18.763  0.00  0.00    +0.000 C 
ATOM      9  O   UNL     1       6.611   4.759  19.695  0.00  0.00    +0.000 OA
ATOM     10  H   UNL     1       3.712   2.615  17.171  0.00  0.00    +0.000 HD
BRANCH   3  11
ATOM     11  C   UNL     1       3.474   4.825  19.222  0.00  0.00    +0.000 A 
ATOM     12  C   UNL     1       2.581   4.621  20.295  0.00  0.00    +0.000 A 
ATOM     13  C   UNL     1       1.723   5.634  20.722  0.00  0.00    +0.000 A 
ATOM     14  C   UNL     1       1.736   6.869  20.084  0.00  0.00    +0.000 A 
ATOM     15  C   UNL     1       2.603   7.088  19.015  0.00  0.00    +0.000 A 
ATOM     16  C   UNL     1       3.461   6.075  18.584  0.00  0.00    +0.000 A 
ENDBRANCH   3  11
ENDBRANCH   1   7
BRANCH   1  17
ATOM     17  C   UNL     1       6.917   6.931  16.979  0.00  0.00    +0.000 C 
ATOM     18  O   UNL     1       5.966   7.430  16.396  0.00  0.00    +0.000 OA
ATOM     19  N   UNL     1       7.846   7.644  17.701  0.00  0.00    +0.000 N 
ATOM     20  H   UNL     1       8.788   7.260  17.698  0.00  0.00    +0.000 HD
BRANCH  19  21
ATOM     21  C   UNL     1       7.737   9.084  17.857  0.00  0.00    +0.000 C 
BRANCH  21  22
ATOM     22  C   UNL     1       8.938   9.640  18.626  0.00  0.00    +0.000 C 
BRANCH  22  23
ATOM     23  C   UNL     1       9.135  11.098  18.397  0.00  0.00    +0.000 A 
ATOM     24  C   UNL     1       8.385  11.878  17.535  0.00  0.00    +0.000 A 
ATOM     25  N   UNL     1       8.802  13.163  17.729  0.00  0.00    +0.000 N 
ATOM     26  C   UNL     1      10.092  13.132  18.193  0.00  0.00    +0.000 A 
ATOM     27  C   UNL     1      11.141  14.048  18.093  0.00  0.00    +0.000 A 
ATOM     28  C   UNL     1      12.296  13.757  18.822  0.00  0.00    +0.000 A 
ATOM     29  C   UNL     1      12.331  12.680  19.710  0.00  0.00    +0.000 A 
ATOM     30  C   UNL     1      11.274  11.762  19.772  0.00  0.00    +0.000 A 
ATOM     31  C   UNL     1      10.188  11.933  18.895  0.00  0.00    +0.000 A 
ATOM     32  H   UNL     1       8.242  13.994  17.601  0.00  0.00    +0.000 HD
ENDBRANCH  22  23
ENDBRANCH  21  22
ENDBRANCH  19  21
ENDBRANCH   1  17
TORSDOF 6
ENDMDL
MODEL 2
REMARK VINA RESULT:      -8.9      1.615      2.458
REMARK  Name = 
REMARK  7 active torsions:
REMARK  status: ('A' for Active; 'I' for Inactive)
REMARK    1  A    between atoms: C_1  and  C_2
REMARK    2  A    between atoms: C_2  and  C_3
REMARK    3  A    between atoms: N_12  and  C_13
REMARK    4  A    between atoms: C_13  and  C_14
REMARK    5  A    between atoms: N_16  and  C_17
REMARK    6  A    between atoms: C_17  and  C_18
REMARK    7  A    between atoms: C_18  and  C_19
REMARK                            x       y       z     vdW  Elec       q    Type
REMARK                         _______ _______ _______ _____ _____    ______ ____
ROOT
ATOM      1  C   UNL     1       7.261   4.505  17.833  0.00  0.00    +0.000 C 
ENDROOT
BRANCH   1   7
ATOM      2  C   UNL     1       2.528   3.083  17.993  0.00  0.00    +0.000 C 
ATOM      3  C   UNL     1       3.516   4.241  17.939  0.00  0.00    +0.000 C 
ATOM      4  N   UNL     1       3.890   4.526  16.558  0.00  0.00    +0.000 N 
ATOM      5  C   UNL     1       5.249   4.682  16.408  0.00  0.00    +0.000 C 
ATOM      6  O   UNL     1       5.810   4.914  15.351  0.00  0.00    +0.000 OA
ATOM      7  N   UNL     1       5.836   4.478  17.611  0.00  0.00    +0.000 N 
ATOM      8  C   UNL     1       4.937   3.915  18.461  0.00  0.00    +0.000 C 
ATOM      9  O   UNL     1       5.195   3.298  19.489  0.00  0.00    +0.000 OA
ATOM     10  H   UNL     1       3.248   4.679  15.792  0.00  0.00    +0.000 HD
BRANCH   3  11
ATOM     11  C   UNL     1       3.018   5.469  18.702  0.00  0.00    +0.000 A 
ATOM     12  C   UNL     1       2.982   6.717  18.046  0.00  0.00    +0.000 A 
ATOM     13  C   UNL     1       2.403   7.834  18.649  0.00  0.00    +0.000 A 
ATOM     14  C   UNL     1       1.853   7.727  19.920  0.00  0.00    +0.000 A 
ATOM     15  C   UNL     1       1.887   6.506  20.591  0.00  0.00    +0.000 A 
ATOM     16  C   UNL     1       2.468   5.388  19.991  0.00  0.00    +0.000 A 
ENDBRANCH   3  11
ENDBRANCH   1   7
BRANCH   1  17
ATOM     17  C   UNL     1       7.629   5.681  18.750  0.00  0.00    +0.000 C 
ATOM     18  O   UNL     1       7.608   5.600  19.970  0.00  0.00    +0.000 OA
ATOM     19  N   UNL     1       7.933   6.829  18.054  0.00  0.00    +0.000 N 
ATOM     20  H   UNL     1       7.455   6.936  17.162  0.00  0.00    +0.000 HD
BRANCH  19  21
ATOM     21  C   UNL     1       8.297   8.055  18.742  0.00  0.00    +0.000 C 
BRANCH  21  22
ATOM     22  C   UNL     1       8.263   9.247  17.782  0.00  0.00    +0.000 C 
BRANCH  22  23
ATOM     23  C   UNL     1       8.904  10.461  18.360  0.00  0.00    +0.000 A 
ATOM     24  C   UNL     1       9.835  10.460  19.383  0.00  0.00    +0.000 A 
ATOM     25  N   UNL     1      10.258  11.752  19.509  0.00  0.00    +0.000 N 
ATOM     26  C   UNL     1       9.262  12.578  19.056  0.00  0.00    +0.000 A 
ATOM     27  C   UNL     1       8.922  13.893  19.380  0.00  0.00    +0.000 A 
ATOM     28  C   UNL     1       7.924  14.489  18.606  0.00  0.00    +0.000 A 
ATOM     29  C   UNL     1       7.405  13.841  17.483  0.00  0.00    +0.000 A 
ATOM     30  C   UNL     1       7.745  12.512  17.195  0.00  0.00    +0.000 A 
ATOM     31  C   UNL     1       8.598  11.834  18.084  0.00  0.00    +0.000 A 
ATOM     32  H   UNL     1      11.167  12.049  19.834  0.00  0.00    +0.000 HD
ENDBRANCH  22  23
ENDBRANCH  21  22
ENDBRANCH  19  21
ENDBRANCH   1  17
TORSDOF 6
ENDMDL
MODEL 3
REMARK VINA RESULT:      -8.8      1.200      1.305
REMARK  Name = 
REMARK  7 active torsions:
REMARK  status: ('A' for Active; 'I' for Inactive)
REMARK    1  A    between atoms: C_1  and  C_2
REMARK    2  A    between atoms: C_2  and  C_3
REMARK    3  A    between atoms: N_12  and  C_13
REMARK    4  A    between atoms: C_13  and  C_14
REMARK    5  A    between atoms: N_16  and  C_17
REMARK    6  A    between atoms: C_17  and  C_18
REMARK    7  A    between atoms: C_18  and  C_19
REMARK                            x       y       z     vdW  Elec       q    Type
REMARK                         _______ _______ _______ _____ _____    ______ ____
ROOT
ATOM      1  C   UNL     1       7.352   5.551  17.339  0.00  0.00    +0.000 C 
ENDROOT
BRANCH   1   7
ATOM      2  C   UNL     1       3.910   2.838  19.627  0.00  0.00    +0.000 C 
ATOM      3  C   UNL     1       4.217   4.062  18.775  0.00  0.00    +0.000 C 
ATOM      4  N   UNL     1       4.260   3.700  17.363  0.00  0.00    +0.000 N 
ATOM      5  C   UNL     1       5.356   4.230  16.722  0.00  0.00    +0.000 C 
ATOM      6  O   UNL     1       5.623   4.062  15.545  0.00  0.00    +0.000 OA
ATOM      7  N   UNL     1       6.096   4.905  17.633  0.00  0.00    +0.000 N 
ATOM      8  C   UNL     1       5.669   4.589  18.884  0.00  0.00    +0.000 C 
ATOM      9  O   UNL     1       6.298   4.736  19.927  0.00  0.00    +0.000 OA
ATOM     10  H   UNL     1       3.543   3.192  16.862  0.00  0.00    +0.000 HD
BRANCH   3  11
ATOM     11  C   UNL     1       3.282   5.233  19.077  0.00  0.00    +0.000 A 
ATOM     12  C   UNL     1       2.501   5.202  20.252  0.00  0.00    +0.000 A 
ATOM     13  C   UNL     1       1.744   6.306  20.645  0.00  0.00    +0.000 A 
ATOM     14  C   UNL     1       1.747   7.460  19.870  0.00  0.00    +0.000 A 
ATOM     15  C   UNL     1       2.503   7.507  18.700  0.00  0.00    +0.000 A 
ATOM     16  C   UNL     1       3.259   6.403  18.304  0.00  0.00    +0.000 A 
ENDBRANCH   3  11
ENDBRANCH   1   7
BRANCH   1  17
ATOM     17  C   UNL     1       7.165   7.076  17.304  0.00  0.00    +0.000 C 
ATOM     18  O   UNL     1       6.225   7.614  16.736  0.00  0.00    +0.000 OA
ATOM     19  N   UNL     1       8.183   7.755  17.933  0.00  0.00    +0.000 N 
ATOM     20  H   UNL     1       9.090   7.298  17.910  0.00  0.00    +0.000 HD
BRANCH  19  21
ATOM     21  C   UNL     1       8.193   9.207  17.998  0.00  0.00    +0.000 C 
BRANCH  21  22
ATOM     22  C   UNL     1       9.124   9.693  19.112  0.00  0.00    +0.000 C 
BRANCH  22  23
ATOM     23  C   UNL     1       9.607  11.083  18.884  0.00  0.00    +0.000 A 
ATOM     24  C   UNL     1      10.349  11.499  17.794  0.00  0.00    +0.000 A 
ATOM     25  N   UNL     1      10.461  12.855  17.909  0.00  0.00    +0.000 N 
ATOM     26  C   UNL     1      10.349  13.186  19.234  0.00  0.00    +0.000 A 
ATOM     27  C   UNL     1      10.851  14.259  19.974  0.00  0.00    +0.000 A 
ATOM     28  C   UNL     1      10.412  14.366  21.295  0.00  0.00    +0.000 A 
ATOM     29  C   UNL     1       9.416  13.523  21.791  0.00  0.00    +0.000 A 
ATOM     30  C   UNL     1       8.947  12.439  21.036  0.00  0.00    +0.000 A 
ATOM     31  C   UNL     1       9.528  12.200  19.778  0.00  0.00    +0.000 A 
ATOM     32  H   UNL     1      10.560  13.509  17.145  0.00  0.00    +0.000 HD
ENDBRANCH  22  23
ENDBRANCH  21  22
ENDBRANCH  19  21
ENDBRANCH   1  17
TORSDOF 6
ENDMDL
MODEL 4
REMARK VINA RESULT:      -8.7      1.004      1.757
REMARK  Name = 
REMARK  7 active torsions:
REMARK  status: ('A' for Active; 'I' for Inactive)
REMARK    1  A    between atoms: C_1  and  C_2
REMARK    2  A    between atoms: C_2  and  C_3
REMARK    3  A    between atoms: N_12  and  C_13
REMARK    4  A    between atoms: C_13  and  C_14
REMARK    5  A    between atoms: N_16  and  C_17
REMARK    6  A    between atoms: C_17  and  C_18
REMARK    7  A    between atoms: C_18  and  C_19
REMARK                            x       y       z     vdW  Elec       q    Type
REMARK                         _______ _______ _______ _____ _____    ______ ____
ROOT
ATOM      1  C   UNL     1       7.405   5.565  17.406  0.00  0.00    +0.000 C 
ENDROOT
BRANCH   1   7
ATOM      2  C   UNL     1       3.969   2.892  19.750  0.00  0.00    +0.000 C 
ATOM      3  C   UNL     1       4.272   4.088  18.856  0.00  0.00    +0.000 C 
ATOM      4  N   UNL     1       4.339   3.672  17.459  0.00  0.00    +0.000 N 
ATOM      5  C   UNL     1       5.437   4.193  16.813  0.00  0.00    +0.000 C 
ATOM      6  O   UNL     1       5.722   3.984  15.647  0.00  0.00    +0.000 OA
ATOM      7  N   UNL     1       6.154   4.913  17.707  0.00  0.00    +0.000 N 
ATOM      8  C   UNL     1       5.714   4.638  18.964  0.00  0.00    +0.000 C 
ATOM      9  O   UNL     1       6.327   4.834  20.009  0.00  0.00    +0.000 OA
ATOM     10  H   UNL     1       3.637   3.135  16.968  0.00  0.00    +0.000 HD
BRANCH   3  11
ATOM     11  C   UNL     1       3.316   5.255  19.100  0.00  0.00    +0.000 A 
ATOM     12  C   UNL     1       2.543   5.274  20.280  0.00  0.00    +0.000 A 
ATOM     13  C   UNL     1       1.767   6.383  20.617  0.00  0.00    +0.000 A 
ATOM     14  C   UNL     1       1.744   7.493  19.781  0.00  0.00    +0.000 A 
ATOM     15  C   UNL     1       2.492   7.491  18.605  0.00  0.00    +0.000 A 
ATOM     16  C   UNL     1       3.267   6.381  18.264  0.00  0.00    +0.000 A 
ENDBRANCH   3  11
ENDBRANCH   1   7
BRANCH   1  17
ATOM     17  C   UNL     1       7.183   7.075  17.228  0.00  0.00    +0.000 C 
ATOM     18  O   UNL     1       6.270   7.533  16.555  0.00  0.00    +0.000 OA
ATOM     19  N   UNL     1       8.140   7.836  17.859  0.00  0.00    +0.000 N 
ATOM     20  H   UNL     1       9.058   7.406  17.934  0.00  0.00    +0.000 HD
BRANCH  19  21
ATOM     21  C   UNL     1       8.110   9.287  17.799  0.00  0.00    +0.000 C 
BRANCH  21  22
ATOM     22  C   UNL     1       8.996   9.894  18.890  0.00  0.00    +0.000 C 
BRANCH  22  23
ATOM     23  C   UNL     1       9.667  11.147  18.446  0.00  0.00    +0.000 A 
ATOM     24  C   UNL     1      11.022  11.405  18.549  0.00  0.00    +0.000 A 
ATOM     25  N   UNL     1      11.230  12.593  17.910  0.00  0.00    +0.000 N 
ATOM     26  C   UNL     1      10.064  13.312  17.946  0.00  0.00    +0.000 A 
ATOM     27  C   UNL     1       9.814  14.686  17.922  0.00  0.00    +0.000 A 
ATOM     28  C   UNL     1       8.477  15.076  17.822  0.00  0.00    +0.000 A 
ATOM     29  C   UNL     1       7.468  14.133  17.615  0.00  0.00    +0.000 A 
ATOM     30  C   UNL     1       7.743  12.760  17.669  0.00  0.00    +0.000 A 
ATOM     31  C   UNL     1       9.055  12.352  17.970  0.00  0.00    +0.000 A 
ATOM     32  H   UNL     1      12.081  12.875  17.445  0.00  0.00    +0.000 HD
ENDBRANCH  22  23
ENDBRANCH  21  22
ENDBRANCH  19  21
ENDBRANCH   1  17
TORSDOF 6
ENDMDL
MODEL 5
REMARK VINA RESULT:      -8.6      1.557      1.954
REMARK  Name = 
REMARK  7 active torsions:
REMARK  status: ('A' for Active; 'I' for Inactive)
REMARK    1  A    between atoms: C_1  and  C_2
REMARK    2  A    between atoms: C_2  and  C_3
REMARK    3  A    between atoms: N_12  and  C_13
REMARK    4  A    between atoms: C_13  and  C_14
REMARK    5  A    between atoms: N_16  and  C_17
REMARK    6  A    between atoms: C_17  and  C_18
REMARK    7  A    between atoms: C_18  and  C_19
REMARK                            x       y       z     vdW  Elec       q    Type
REMARK                         _______ _______ _______ _____ _____    ______ ____
ROOT
ATOM      1  C   UNL     1       7.591   4.800  17.838  0.00  0.00    +0.000 C 
ENDROOT
BRANCH   1   7
ATOM      2  C   UNL     1       2.986   3.151  17.119  0.00  0.00    +0.000 C 
ATOM      3  C   UNL     1       3.899   4.354  17.316  0.00  0.00    +0.000 C 
ATOM      4  N   UNL     1       4.468   4.774  16.040  0.00  0.00    +0.000 N 
ATOM      5  C   UNL     1       5.822   5.006  16.125  0.00  0.00    +0.000 C 
ATOM      6  O   UNL     1       6.528   5.353  15.194  0.00  0.00    +0.000 OA
ATOM      7  N   UNL     1       6.223   4.726  17.387  0.00  0.00    +0.000 N 
ATOM      8  C   UNL     1       5.237   4.050  18.034  0.00  0.00    +0.000 C 
ATOM      9  O   UNL     1       5.366   3.360  19.039  0.00  0.00    +0.000 OA
ATOM     10  H   UNL     1       3.946   4.963  15.194  0.00  0.00    +0.000 HD
BRANCH   3  11
ATOM     11  C   UNL     1       3.214   5.486  18.082  0.00  0.00    +0.000 A 
ATOM     12  C   UNL     1       2.658   5.218  19.350  0.00  0.00    +0.000 A 
ATOM     13  C   UNL     1       2.152   6.245  20.148  0.00  0.00    +0.000 A 
ATOM     14  C   UNL     1       2.189   7.558  19.694  0.00  0.00    +0.000 A 
ATOM     15  C   UNL     1       2.725   7.843  18.439  0.00  0.00    +0.000 A 
ATOM     16  C   UNL     1       3.229   6.817  17.638  0.00  0.00    +0.000 A 
ENDBRANCH   3  11
ENDBRANCH   1   7
BRANCH   1  17
ATOM     17  C   UNL     1       7.738   5.903  18.897  0.00  0.00    +0.000 C 
ATOM     18  O   UNL     1       7.488   5.721  20.080  0.00  0.00    +0.000 OA
ATOM     19  N   UNL     1       8.129   7.110  18.364  0.00  0.00    +0.000 N 
ATOM     20  H   UNL     1       7.826   7.281  17.409  0.00  0.00    +0.000 HD
BRANCH  19  21
ATOM     21  C   UNL     1       8.313   8.281  19.203  0.00  0.00    +0.000 C 
BRANCH  21  22
ATOM     22  C   UNL     1       8.770   9.480  18.368  0.00  0.00    +0.000 C 
BRANCH  22  23
ATOM     23  C   UNL     1       9.508  10.489  19.178  0.00  0.00    +0.000 A 
ATOM     24  C   UNL     1       9.283  10.756  20.516  0.00  0.00    +0.000 A 
ATOM     25  N   UNL     1      10.254  11.638  20.893  0.00  0.00    +0.000 N 
ATOM     26  C   UNL     1      10.661  12.333  19.784  0.00  0.00    +0.000 A 
ATOM     27  C   UNL     1      11.204  13.610  19.630  0.00  0.00    +0.000 A 
ATOM     28  C   UNL     1      11.650  13.949  18.351  0.00  0.00    +0.000 A 
ATOM     29  C   UNL     1      11.675  13.002  17.325  0.00  0.00    +0.000 A 
ATOM     30  C   UNL     1      11.101  11.736  17.499  0.00  0.00    +0.000 A 
ATOM     31  C   UNL     1      10.468  11.451  18.722  0.00  0.00    +0.000 A 
ATOM     32  H   UNL     1      10.644  11.730  21.821  0.00  0.00    +0.000 HD
ENDBRANCH  22  23
ENDBRANCH  21  22
ENDBRANCH  19  21
ENDBRANCH   1  17
TORSDOF 6
ENDMDL
MODEL 6
REMARK VINA RESULT:      -8.6      1.609      2.086
REMARK  Name = 
REMARK  7 active torsions:
REMARK  status: ('A' for Active; 'I' for Inactive)
REMARK    1  A    between atoms: C_1  and  C_2
REMARK    2  A    between atoms: C_2  and  C_3
REMARK    3  A    between atoms: N_12  and  C_13
REMARK    4  A    between atoms: C_13  and  C_14
REMARK    5  A    between atoms: N_16  and  C_17
REMARK    6  A    between atoms: C_17  and  C_18
REMARK    7  A    between atoms: C_18  and  C_19
REMARK                            x       y       z     vdW  Elec       q    Type
REMARK                         _______ _______ _______ _____ _____    ______ ____
ROOT
ATOM      1  C   UNL     1       8.053   6.520  18.256  0.00  0.00    +0.000 C 
ENDROOT
BRANCH   1   7
ATOM      2  C   UNL     1       4.036   3.640  18.133  0.00  0.00    +0.000 C 
ATOM      3  C   UNL     1       4.627   5.024  17.897  0.00  0.00    +0.000 C 
ATOM      4  N   UNL     1       5.205   5.107  16.560  0.00  0.00    +0.000 N 
ATOM      5  C   UNL     1       6.455   5.681  16.568  0.00  0.00    +0.000 C 
ATOM      6  O   UNL     1       7.149   5.851  15.580  0.00  0.00    +0.000 OA
ATOM      7  N   UNL     1       6.787   5.960  17.850  0.00  0.00    +0.000 N 
ATOM      8  C   UNL     1       5.924   5.326  18.687  0.00  0.00    +0.000 C 
ATOM      9  O   UNL     1       6.110   5.077  19.874  0.00  0.00    +0.000 OA
ATOM     10  H   UNL     1       4.737   4.859  15.698  0.00  0.00    +0.000 HD
BRANCH   3  11
ATOM     11  C   UNL     1       3.632   6.144  18.203  0.00  0.00    +0.000 A 
ATOM     12  C   UNL     1       2.950   6.136  19.438  0.00  0.00    +0.000 A 
ATOM     13  C   UNL     1       2.144   7.208  19.824  0.00  0.00    +0.000 A 
ATOM     14  C   UNL     1       2.000   8.305  18.982  0.00  0.00    +0.000 A 
ATOM     15  C   UNL     1       2.657   8.327  17.754  0.00  0.00    +0.000 A 
ATOM     16  C   UNL     1       3.462   7.255  17.364  0.00  0.00    +0.000 A 
ENDBRANCH   3  11
ENDBRANCH   1   7
BRANCH   1  17
ATOM     17  C   UNL     1       8.026   8.049  18.105  0.00  0.00    +0.000 C 
ATOM     18  O   UNL     1       7.370   8.616  17.242  0.00  0.00    +0.000 OA
ATOM     19  N   UNL     1       8.846   8.691  19.003  0.00  0.00    +0.000 N 
ATOM     20  H   UNL     1       9.668   8.168  19.294  0.00  0.00    +0.000 HD
BRANCH  19  21
ATOM     21  C   UNL     1       8.966  10.139  19.014  0.00  0.00    +0.000 C 
BRANCH  21  22
ATOM     22  C   UNL     1      10.044  10.587  20.004  0.00  0.00    +0.000 C 
BRANCH  22  23
ATOM     23  C   UNL     1      10.306  12.052  19.937  0.00  0.00    +0.000 A 
ATOM     24  C   UNL     1       9.857  12.985  20.854  0.00  0.00    +0.000 A 
ATOM     25  N   UNL     1      10.428  14.171  20.494  0.00  0.00    +0.000 N 
ATOM     26  C   UNL     1      10.697  14.131  19.151  0.00  0.00    +0.000 A 
ATOM     27  C   UNL     1      10.792  15.138  18.188  0.00  0.00    +0.000 A 
ATOM     28  C   UNL     1      11.236  14.751  16.921  0.00  0.00    +0.000 A 
ATOM     29  C   UNL     1      11.692  13.453  16.687  0.00  0.00    +0.000 A 
ATOM     30  C   UNL     1      11.561  12.456  17.663  0.00  0.00    +0.000 A 
ATOM     31  C   UNL     1      10.930  12.786  18.875  0.00  0.00    +0.000 A 
ATOM     32  H   UNL     1      10.658  14.932  21.118  0.00  0.00    +0.000 HD
ENDBRANCH  22  23
ENDBRANCH  21  22
ENDBRANCH  19  21
ENDBRANCH   1  17
TORSDOF 6
ENDMDL
MODEL 7
REMARK VINA RESULT:      -8.5      1.070      1.828
REMARK  Name = 
REMARK  7 active torsions:
REMARK  status: ('A' for Active; 'I' for Inactive)
REMARK    1  A    between atoms: C_1  and  C_2
REMARK    2  A    between atoms: C_2  and  C_3
REMARK    3  A    between atoms: N_12  and  C_13
REMARK    4  A    between atoms: C_13  and  C_14
REMARK    5  A    between atoms: N_16  and  C_17
REMARK    6  A    between atoms: C_17  and  C_18
REMARK    7  A    between atoms: C_18  and  C_19
REMARK                            x       y       z     vdW  Elec       q    Type
REMARK                         _______ _______ _______ _____ _____    ______ ____
ROOT
ATOM      1  C   UNL     1       7.444   5.890  17.328  0.00  0.00    +0.000 C 
ENDROOT
BRANCH   1   7
ATOM      2  C   UNL     1       4.335   2.822  19.646  0.00  0.00    +0.000 C 
ATOM      3  C   UNL     1       4.512   4.121  18.871  0.00  0.00    +0.000 C 
ATOM      4  N   UNL     1       4.463   3.866  17.435  0.00  0.00    +0.000 N 
ATOM      5  C   UNL     1       5.478   4.504  16.759  0.00  0.00    +0.000 C 
ATOM      6  O   UNL     1       5.661   4.438  15.555  0.00  0.00    +0.000 OA
ATOM      7  N   UNL     1       6.250   5.153  17.662  0.00  0.00    +0.000 N 
ATOM      8  C   UNL     1       5.938   4.721  18.913  0.00  0.00    +0.000 C 
ATOM      9  O   UNL     1       6.638   4.828  19.915  0.00  0.00    +0.000 OA
ATOM     10  H   UNL     1       3.738   3.355  16.950  0.00  0.00    +0.000 HD
BRANCH   3  11
ATOM     11  C   UNL     1       3.542   5.210  19.330  0.00  0.00    +0.000 A 
ATOM     12  C   UNL     1       3.432   6.395  18.572  0.00  0.00    +0.000 A 
ATOM     13  C   UNL     1       2.462   7.353  18.866  0.00  0.00    +0.000 A 
ATOM     14  C   UNL     1       1.586   7.149  19.926  0.00  0.00    +0.000 A 
ATOM     15  C   UNL     1       1.685   5.991  20.695  0.00  0.00    +0.000 A 
ATOM     16  C   UNL     1       2.657   5.032  20.404  0.00  0.00    +0.000 A 
ENDBRANCH   3  11
ENDBRANCH   1   7
BRANCH   1  17
ATOM     17  C   UNL     1       7.153   7.399  17.342  0.00  0.00    +0.000 C 
ATOM     18  O   UNL     1       6.123   7.877  16.888  0.00  0.00    +0.000 OA
ATOM     19  N   UNL     1       8.186   8.139  17.869  0.00  0.00    +0.000 N 
ATOM     20  H   UNL     1       9.114   7.745  17.740  0.00  0.00    +0.000 HD
BRANCH  19  21
ATOM     21  C   UNL     1       8.107   9.587  17.960  0.00  0.00    +0.000 C 
BRANCH  21  22
ATOM     22  C   UNL     1       9.161  10.128  18.929  0.00  0.00    +0.000 C 
BRANCH  22  23
ATOM     23  C   UNL     1      10.009  11.186  18.314  0.00  0.00    +0.000 A 
ATOM     24  C   UNL     1      11.372  11.090  18.099  0.00  0.00    +0.000 A 
ATOM     25  N   UNL     1      11.723  12.210  17.401  0.00  0.00    +0.000 N 
ATOM     26  C   UNL     1      10.817  13.198  17.686  0.00  0.00    +0.000 A 
ATOM     27  C   UNL     1      10.925  14.590  17.686  0.00  0.00    +0.000 A 
ATOM     28  C   UNL     1       9.744  15.309  17.886  0.00  0.00    +0.000 A 
ATOM     29  C   UNL     1       8.510  14.658  17.937  0.00  0.00    +0.000 A 
ATOM     30  C   UNL     1       8.432  13.259  17.960  0.00  0.00    +0.000 A 
ATOM     31  C   UNL     1       9.630  12.523  17.962  0.00  0.00    +0.000 A 
ATOM     32  H   UNL     1      12.490  12.284  16.747  0.00  0.00    +0.000 HD
ENDBRANCH  22  23
ENDBRANCH  21  22
ENDBRANCH  19  21
ENDBRANCH   1  17
TORSDOF 6
ENDMDL
MODEL 8
REMARK VINA RESULT:      -8.4      1.720      2.764
REMARK  Name = 
REMARK  7 active torsions:
REMARK  status: ('A' for Active; 'I' for Inactive)
REMARK    1  A    between atoms: C_1  and  C_2
REMARK    2  A    between atoms: C_2  and  C_3
REMARK    3  A    between atoms: N_12  and  C_13
REMARK    4  A    between atoms: C_13  and  C_14
REMARK    5  A    between atoms: N_16  and  C_17
REMARK    6  A    between atoms: C_17  and  C_18
REMARK    7  A    between atoms: C_18  and  C_19
REMARK                            x       y       z     vdW  Elec       q    Type
REMARK                         _______ _______ _______ _____ _____    ______ ____
ROOT
ATOM      1  C   UNL     1       6.370   5.233  17.311  0.00  0.00    +0.000 C 
ENDROOT
BRANCH   1   7
ATOM      2  C   UNL     1       1.549   4.151  17.108  0.00  0.00    +0.000 C 
ATOM      3  C   UNL     1       2.739   4.538  17.977  0.00  0.00    +0.000 C 
ATOM      4  N   UNL     1       2.911   5.987  17.986  0.00  0.00    +0.000 N 
ATOM      5  C   UNL     1       4.221   6.357  17.789  0.00  0.00    +0.000 C 
ATOM      6  O   UNL     1       4.620   7.509  17.744  0.00  0.00    +0.000 OA
ATOM      7  N   UNL     1       4.957   5.237  17.602  0.00  0.00    +0.000 N 
ATOM      8  C   UNL     1       4.125   4.183  17.385  0.00  0.00    +0.000 C 
ATOM      9  O   UNL     1       4.424   3.117  16.858  0.00  0.00    +0.000 OA
ATOM     10  H   UNL     1       2.190   6.666  18.193  0.00  0.00    +0.000 HD
BRANCH   3  11
ATOM     11  C   UNL     1       2.666   3.922  19.374  0.00  0.00    +0.000 A 
ATOM     12  C   UNL     1       1.501   4.110  20.146  0.00  0.00    +0.000 A 
ATOM     13  C   UNL     1       1.327   3.451  21.363  0.00  0.00    +0.000 A 
ATOM     14  C   UNL     1       2.316   2.596  21.835  0.00  0.00    +0.000 A 
ATOM     15  C   UNL     1       3.480   2.404  21.093  0.00  0.00    +0.000 A 
ATOM     16  C   UNL     1       3.657   3.065  19.876  0.00  0.00    +0.000 A 
ENDBRANCH   3  11
ENDBRANCH   1   7
BRANCH   1  17
ATOM     17  C   UNL     1       7.135   5.992  18.406  0.00  0.00    +0.000 C 
ATOM     18  O   UNL     1       7.172   5.616  19.569  0.00  0.00    +0.000 OA
ATOM     19  N   UNL     1       7.723   7.148  17.946  0.00  0.00    +0.000 N 
ATOM     20  H   UNL     1       7.242   7.603  17.174  0.00  0.00    +0.000 HD
BRANCH  19  21
ATOM     21  C   UNL     1       8.484   8.012  18.831  0.00  0.00    +0.000 C 
BRANCH  21  22
ATOM     22  C   UNL     1       8.512   9.447  18.298  0.00  0.00    +0.000 C 
BRANCH  22  23
ATOM     23  C   UNL     1       9.300  10.362  19.169  0.00  0.00    +0.000 A 
ATOM     24  C   UNL     1       9.075  10.569  20.518  0.00  0.00    +0.000 A 
ATOM     25  N   UNL     1      10.094  11.367  20.952  0.00  0.00    +0.000 N 
ATOM     26  C   UNL     1      10.556  12.095  19.887  0.00  0.00    +0.000 A 
ATOM     27  C   UNL     1      11.178  13.343  19.809  0.00  0.00    +0.000 A 
ATOM     28  C   UNL     1      11.660  13.724  18.555  0.00  0.00    +0.000 A 
ATOM     29  C   UNL     1      11.640  12.834  17.479  0.00  0.00    +0.000 A 
ATOM     30  C   UNL     1      10.987  11.598  17.577  0.00  0.00    +0.000 A 
ATOM     31  C   UNL     1      10.323  11.287  18.777  0.00  0.00    +0.000 A 
ATOM     32  H   UNL     1      10.476  11.384  21.887  0.00  0.00    +0.000 HD
ENDBRANCH  22  23
ENDBRANCH  21  22
ENDBRANCH  19  21
ENDBRANCH   1  17
TORSDOF 6
ENDMDL
MODEL 9
REMARK VINA RESULT:      -8.3      1.487      1.962
REMARK  Name = 
REMARK  7 active torsions:
REMARK  status: ('A' for Active; 'I' for Inactive)
REMARK    1  A    between atoms: C_1  and  C_2
REMARK    2  A    between atoms: C_2  and  C_3
REMARK    3  A    between atoms: N_12  and  C_13
REMARK    4  A    between atoms: C_13  and  C_14
REMARK    5  A    between atoms: N_16  and  C_17
REMARK    6  A    between atoms: C_17  and  C_18
REMARK    7  A    between atoms: C_18  and  C_19
REMARK                            x       y       z     vdW  Elec       q    Type
REMARK                         _______ _______ _______ _____ _____    ______ ____
ROOT
ATOM      1  C   UNL     1       5.207   6.560  16.957  0.00  0.00    +0.000 C 
ENDROOT
BRANCH   1   7
ATOM      2  C   UNL     1       5.410   2.528  19.811  0.00  0.00    +0.000 C 
ATOM      3  C   UNL     1       4.559   3.426  18.921  0.00  0.00    +0.000 C 
ATOM      4  N   UNL     1       4.704   3.037  17.523  0.00  0.00    +0.000 N 
ATOM      5  C   UNL     1       4.908   4.121  16.700  0.00  0.00    +0.000 C 
ATOM      6  O   UNL     1       5.069   4.057  15.493  0.00  0.00    +0.000 OA
ATOM      7  N   UNL     1       4.953   5.235  17.467  0.00  0.00    +0.000 N 
ATOM      8  C   UNL     1       5.074   4.878  18.773  0.00  0.00    +0.000 C 
ATOM      9  O   UNL     1       5.474   5.590  19.688  0.00  0.00    +0.000 OA
ATOM     10  H   UNL     1       4.590   2.102  17.155  0.00  0.00    +0.000 HD
BRANCH   3  11
ATOM     11  C   UNL     1       3.105   3.500  19.388  0.00  0.00    +0.000 A 
ATOM     12  C   UNL     1       2.712   4.551  20.242  0.00  0.00    +0.000 A 
ATOM     13  C   UNL     1       1.372   4.746  20.578  0.00  0.00    +0.000 A 
ATOM     14  C   UNL     1       0.400   3.892  20.071  0.00  0.00    +0.000 A 
ATOM     15  C   UNL     1       0.768   2.841  19.233  0.00  0.00    +0.000 A 
ATOM     16  C   UNL     1       2.109   2.642  18.898  0.00  0.00    +0.000 A 
ENDBRANCH   3  11
ENDBRANCH   1   7
BRANCH   1  17
ATOM     17  C   UNL     1       6.706   6.885  17.057  0.00  0.00    +0.000 C 
ATOM     18  O   UNL     1       7.558   6.272  16.432  0.00  0.00    +0.000 OA
ATOM     19  N   UNL     1       6.977   7.895  17.952  0.00  0.00    +0.000 N 
ATOM     20  H   UNL     1       6.330   7.970  18.733  0.00  0.00    +0.000 HD
BRANCH  19  21
ATOM     21  C   UNL     1       8.337   8.342  18.196  0.00  0.00    +0.000 C 
BRANCH  21  22
ATOM     22  C   UNL     1       8.478   9.838  17.907  0.00  0.00    +0.000 C 
BRANCH  22  23
ATOM     23  C   UNL     1       9.323  10.536  18.916  0.00  0.00    +0.000 A 
ATOM     24  C   UNL     1       9.071  10.577  20.275  0.00  0.00    +0.000 A 
ATOM     25  N   UNL     1      10.150  11.195  20.839  0.00  0.00    +0.000 N 
ATOM     26  C   UNL     1      10.722  12.010  19.898  0.00  0.00    +0.000 A 
ATOM     27  C   UNL     1      11.470  13.184  20.011  0.00  0.00    +0.000 A 
ATOM     28  C   UNL     1      12.032  13.682  18.833  0.00  0.00    +0.000 A 
ATOM     29  C   UNL     1      11.961  12.957  17.642  0.00  0.00    +0.000 A 
ATOM     30  C   UNL     1      11.183  11.795  17.551  0.00  0.00    +0.000 A 
ATOM     31  C   UNL     1      10.448  11.392  18.680  0.00  0.00    +0.000 A 
ATOM     32  H   UNL     1      10.498  11.042  21.776  0.00  0.00    +0.000 HD
ENDBRANCH  22  23
ENDBRANCH  21  22
ENDBRANCH  19  21
ENDBRANCH   1  17
TORSDOF 6
ENDMDL
