MODEL 1
REMARK VINA RESULT:      -8.2      0.000      0.000
REMARK  Name = 
REMARK  5 active torsions:
REMARK  status: ('A' for Active; 'I' for Inactive)
REMARK    1  A    between atoms: C_1  and  O_2
REMARK    2  A    between atoms: O_2  and  C_3
REMARK    3  A    between atoms: C_5  and  S_6
REMARK    4  A    between atoms: S_6  and  N_9
REMARK    5  A    between atoms: C_13  and  C_14
REMARK                            x       y       z     vdW  Elec       q    Type
REMARK                         _______ _______ _______ _____ _____    ______ ____
ROOT
ATOM      1  N   UNL     1       3.464   6.668  19.388  0.00  0.00    +0.000 N 
ATOM      2  C   UNL     1       2.627   7.678  18.818  0.00  0.00    +0.000 A 
ATOM      3  N   UNL     1       2.991   8.374  17.770  0.00  0.00    +0.000 NA
ATOM      4  N   UNL     1       2.031   9.352  17.585  0.00  0.00    +0.000 NA
ATOM      5  C   UNL     1       1.185   9.233  18.589  0.00  0.00    +0.000 A 
ATOM      6  O   UNL     1       1.501   8.181  19.419  0.00  0.00    +0.000 OA
ATOM      7  H   UNL     1       4.415   6.925  19.132  0.00  0.00    +0.000 HD
ENDROOT
BRANCH   5   8
ATOM      8  C   UNL     1       0.047  10.079  18.950  0.00  0.00    +0.000 A 
ATOM      9  C   UNL     1      -1.011  10.256  18.027  0.00  0.00    +0.000 A 
ATOM     10  C   UNL     1      -2.107  11.075  18.322  0.00  0.00    +0.000 A 
ATOM     11  C   UNL     1      -2.137  11.713  19.548  0.00  0.00    +0.000 A 
ATOM     12  C   UNL     1      -1.106  11.539  20.477  0.00  0.00    +0.000 A 
ATOM     13  C   UNL     1      -0.015  10.730  20.193  0.00  0.00    +0.000 A 
ATOM     14  C   UNL     1      -1.350  12.378  21.695  0.00  0.00    +0.000 C 
ATOM     15  C   UNL     1      -2.848  12.691  21.555  0.00  0.00    +0.000 C 
ATOM     16  C   UNL     1      -3.157  12.687  20.053  0.00  0.00    +0.000 C 
ENDBRANCH   5   8
BRANCH   1  17
ATOM     17  S   UNL     1       3.116   5.159  18.657  0.00  0.00    +0.000 S 
ATOM     18  O   UNL     1       1.891   5.283  17.909  0.00  0.00    +0.000 OA
ATOM     19  O   UNL     1       3.323   4.096  19.634  0.00  0.00    +0.000 OA
BRANCH  17  22
ATOM     20  C   UNL     1       6.564   5.827  16.575  0.00  0.00    +0.000 A 
ATOM     21  C   UNL     1       5.497   5.932  17.480  0.00  0.00    +0.000 A 
ATOM     22  C   UNL     1       4.448   4.999  17.457  0.00  0.00    +0.000 A 
ATOM     23  C   UNL     1       4.483   3.927  16.556  0.00  0.00    +0.000 A 
ATOM     24  C   UNL     1       5.557   3.817  15.663  0.00  0.00    +0.000 A 
ATOM     25  C   UNL     1       6.579   4.760  15.673  0.00  0.00    +0.000 A 
ATOM     26  F   UNL     1       7.591   4.581  14.813  0.00  0.00    +0.000 F 
BRANCH  20  28
ATOM     27  C   UNL     1       7.798   7.272  18.003  0.00  0.00    +0.000 C 
ATOM     28  O   UNL     1       7.525   6.798  16.685  0.00  0.00    +0.000 OA
ENDBRANCH  20  28
ENDBRANCH  17  22
ENDBRANCH   1  17
TORSDOF 4
ENDMDL
MODEL 2
REMARK VINA RESULT:      -8.2      2.502      3.494
REMARK  Name = 
REMARK  5 active torsions:
REMARK  status: ('A' for Active; 'I' for Inactive)
REMARK    1  A    between atoms: C_1  and  O_2
REMARK    2  A    between atoms: O_2  and  C_3
REMARK    3  A    between atoms: C_5  and  S_6
REMARK    4  A    between atoms: S_6  and  N_9
REMARK    5  A    between atoms: C_13  and  C_14
REMARK                            x       y       z     vdW  Elec       q    Type
REMARK                         _______ _______ _______ _____ _____    ______ ____
ROOT
ATOM      1  N   UNL     1       2.196   2.927  19.053  0.00  0.00    +0.000 N 
ATOM      2  C   UNL     1       2.168   4.228  19.649  0.00  0.00    +0.000 A 
ATOM      3  N   UNL     1       1.943   4.403  20.927  0.00  0.00    +0.000 NA
ATOM      4  N   UNL     1       1.831   5.767  21.131  0.00  0.00    +0.000 NA
ATOM      5  C   UNL     1       1.916   6.326  19.940  0.00  0.00    +0.000 A 
ATOM      6  O   UNL     1       2.134   5.403  18.942  0.00  0.00    +0.000 OA
ATOM      7  H   UNL     1       1.621   2.340  19.653  0.00  0.00    +0.000 HD
ENDROOT
BRANCH   5   8
ATOM      8  C   UNL     1       1.749   7.728  19.558  0.00  0.00    +0.000 A 
ATOM      9  C   UNL     1       2.166   8.156  18.275  0.00  0.00    +0.000 A 
ATOM     10  C   UNL     1       2.046   9.492  17.877  0.00  0.00    +0.000 A 
ATOM     11  C   UNL     1       1.504  10.396  18.772  0.00  0.00    +0.000 A 
ATOM     12  C   UNL     1       1.075   9.989  20.039  0.00  0.00    +0.000 A 
ATOM     13  C   UNL     1       1.191   8.666  20.443  0.00  0.00    +0.000 A 
ATOM     14  C   UNL     1       0.582  11.163  20.830  0.00  0.00    +0.000 C 
ATOM     15  C   UNL     1       0.349  12.201  19.721  0.00  0.00    +0.000 C 
ATOM     16  C   UNL     1       1.346  11.876  18.601  0.00  0.00    +0.000 C 
ENDBRANCH   5   8
BRANCH   1  17
ATOM     17  S   UNL     1       3.795   2.314  19.097  0.00  0.00    +0.000 S 
ATOM     18  O   UNL     1       3.880   1.190  18.200  0.00  0.00    +0.000 OA
ATOM     19  O   UNL     1       4.237   2.233  20.485  0.00  0.00    +0.000 OA
BRANCH  17  22
ATOM     20  C   UNL     1       5.419   4.847  16.337  0.00  0.00    +0.000 A 
ATOM     21  C   UNL     1       4.715   3.803  16.955  0.00  0.00    +0.000 A 
ATOM     22  C   UNL     1       4.739   3.653  18.351  0.00  0.00    +0.000 A 
ATOM     23  C   UNL     1       5.433   4.576  19.142  0.00  0.00    +0.000 A 
ATOM     24  C   UNL     1       6.124   5.626  18.524  0.00  0.00    +0.000 A 
ATOM     25  C   UNL     1       6.119   5.753  17.139  0.00  0.00    +0.000 A 
ATOM     26  F   UNL     1       6.776   6.795  16.613  0.00  0.00    +0.000 F 
BRANCH  20  28
ATOM     27  C   UNL     1       6.272   4.097  14.249  0.00  0.00    +0.000 C 
ATOM     28  O   UNL     1       5.330   4.889  14.971  0.00  0.00    +0.000 OA
ENDBRANCH  20  28
ENDBRANCH  17  22
ENDBRANCH   1  17
TORSDOF 4
ENDMDL
MODEL 3
REMARK VINA RESULT:      -8.2      0.694      1.574
REMARK  Name = 
REMARK  5 active torsions:
REMARK  status: ('A' for Active; 'I' for Inactive)
REMARK    1  A    between atoms: C_1  and  O_2
REMARK    2  A    between atoms: O_2  and  C_3
REMARK    3  A    between atoms: C_5  and  S_6
REMARK    4  A    between atoms: S_6  and  N_9
REMARK    5  A    between atoms: C_13  and  C_14
REMARK                            x       y       z     vdW  Elec       q    Type
REMARK                         _______ _______ _______ _____ _____    ______ ____
ROOT
ATOM      1  N   UNL     1       3.296   6.660  19.422  0.00  0.00    +0.000 N 
ATOM      2  C   UNL     1       2.511   7.656  18.760  0.00  0.00    +0.000 A 
ATOM      3  N   UNL     1       2.974   8.351  17.751  0.00  0.00    +0.000 NA
ATOM      4  N   UNL     1       2.027   9.316  17.460  0.00  0.00    +0.000 NA
ATOM      5  C   UNL     1       1.082   9.191  18.370  0.00  0.00    +0.000 A 
ATOM      6  O   UNL     1       1.322   8.148  19.236  0.00  0.00    +0.000 OA
ATOM      7  H   UNL     1       4.265   6.929  19.266  0.00  0.00    +0.000 HD
ENDROOT
BRANCH   5   8
ATOM      8  C   UNL     1      -0.098  10.024  18.604  0.00  0.00    +0.000 A 
ATOM      9  C   UNL     1      -0.047  11.047  19.580  0.00  0.00    +0.000 A 
ATOM     10  C   UNL     1      -1.159  11.852  19.853  0.00  0.00    +0.000 A 
ATOM     11  C   UNL     1      -2.322  11.625  19.141  0.00  0.00    +0.000 A 
ATOM     12  C   UNL     1      -2.387  10.626  18.165  0.00  0.00    +0.000 A 
ATOM     13  C   UNL     1      -1.290   9.822  17.888  0.00  0.00    +0.000 A 
ATOM     14  C   UNL     1      -3.766  10.549  17.583  0.00  0.00    +0.000 C 
ATOM     15  C   UNL     1      -4.350  11.908  18.002  0.00  0.00    +0.000 C 
ATOM     16  C   UNL     1      -3.649  12.301  19.308  0.00  0.00    +0.000 C 
ENDBRANCH   5   8
BRANCH   1  17
ATOM     17  S   UNL     1       3.045   5.143  18.668  0.00  0.00    +0.000 S 
ATOM     18  O   UNL     1       1.844   5.217  17.876  0.00  0.00    +0.000 OA
ATOM     19  O   UNL     1       3.266   4.083  19.645  0.00  0.00    +0.000 OA
BRANCH  17  22
ATOM     20  C   UNL     1       6.518   6.004  16.701  0.00  0.00    +0.000 A 
ATOM     21  C   UNL     1       5.415   6.050  17.567  0.00  0.00    +0.000 A 
ATOM     22  C   UNL     1       4.426   5.055  17.517  0.00  0.00    +0.000 A 
ATOM     23  C   UNL     1       4.558   3.981  16.628  0.00  0.00    +0.000 A 
ATOM     24  C   UNL     1       5.668   3.929  15.774  0.00  0.00    +0.000 A 
ATOM     25  C   UNL     1       6.630   4.933  15.810  0.00  0.00    +0.000 A 
ATOM     26  F   UNL     1       7.680   4.809  14.988  0.00  0.00    +0.000 F 
BRANCH  20  28
ATOM     27  C   UNL     1       7.931   7.254  18.147  0.00  0.00    +0.000 C 
ATOM     28  O   UNL     1       7.415   7.031  16.836  0.00  0.00    +0.000 OA
ENDBRANCH  20  28
ENDBRANCH  17  22
ENDBRANCH   1  17
TORSDOF 4
ENDMDL
MODEL 4
REMARK VINA RESULT:      -8.1      2.635      4.302
REMARK  Name = 
REMARK  5 active torsions:
REMARK  status: ('A' for Active; 'I' for Inactive)
REMARK    1  A    between atoms: C_1  and  O_2
REMARK    2  A    between atoms: O_2  and  C_3
REMARK    3  A    between atoms: C_5  and  S_6
REMARK    4  A    between atoms: S_6  and  N_9
REMARK    5  A    between atoms: C_13  and  C_14
REMARK                            x       y       z     vdW  Elec       q    Type
REMARK                         _______ _______ _______ _____ _____    ______ ____
ROOT
ATOM      1  N   UNL     1       4.653   4.922  16.541  0.00  0.00    +0.000 N 
ATOM      2  C   UNL     1       4.119   5.442  17.762  0.00  0.00    +0.000 A 
ATOM      3  N   UNL     1       4.079   4.733  18.862  0.00  0.00    +0.000 NA
ATOM      4  N   UNL     1       3.370   5.472  19.791  0.00  0.00    +0.000 NA
ATOM      5  C   UNL     1       2.955   6.554  19.162  0.00  0.00    +0.000 A 
ATOM      6  O   UNL     1       3.397   6.605  17.859  0.00  0.00    +0.000 OA
ATOM      7  H   UNL     1       4.551   3.912  16.606  0.00  0.00    +0.000 HD
ENDROOT
BRANCH   5   8
ATOM      8  C   UNL     1       2.071   7.620  19.632  0.00  0.00    +0.000 A 
ATOM      9  C   UNL     1       1.565   7.574  20.953  0.00  0.00    +0.000 A 
ATOM     10  C   UNL     1       0.697   8.560  21.437  0.00  0.00    +0.000 A 
ATOM     11  C   UNL     1       0.343   9.594  20.589  0.00  0.00    +0.000 A 
ATOM     12  C   UNL     1       0.843   9.661  19.285  0.00  0.00    +0.000 A 
ATOM     13  C   UNL     1       1.702   8.687  18.796  0.00  0.00    +0.000 A 
ATOM     14  C   UNL     1       0.265  10.839  18.561  0.00  0.00    +0.000 C 
ATOM     15  C   UNL     1      -0.258  11.689  19.730  0.00  0.00    +0.000 C 
ATOM     16  C   UNL     1      -0.619  10.711  20.855  0.00  0.00    +0.000 C 
ENDBRANCH   5   8
BRANCH   1  17
ATOM     17  S   UNL     1       6.326   5.275  16.454  0.00  0.00    +0.000 S 
ATOM     18  O   UNL     1       7.038   4.327  17.275  0.00  0.00    +0.000 OA
ATOM     19  O   UNL     1       6.518   6.714  16.589  0.00  0.00    +0.000 OA
BRANCH  17  22
ATOM     20  C   UNL     1       6.177   3.615  12.727  0.00  0.00    +0.000 A 
ATOM     21  C   UNL     1       5.921   3.934  14.069  0.00  0.00    +0.000 A 
ATOM     22  C   UNL     1       6.713   4.878  14.741  0.00  0.00    +0.000 A 
ATOM     23  C   UNL     1       7.740   5.543  14.061  0.00  0.00    +0.000 A 
ATOM     24  C   UNL     1       7.985   5.233  12.717  0.00  0.00    +0.000 A 
ATOM     25  C   UNL     1       7.214   4.277  12.064  0.00  0.00    +0.000 A 
ATOM     26  F   UNL     1       7.481   4.047  10.771  0.00  0.00    +0.000 F 
BRANCH  20  28
ATOM     27  C   UNL     1       4.270   3.169  11.380  0.00  0.00    +0.000 C 
ATOM     28  O   UNL     1       5.345   2.675  12.177  0.00  0.00    +0.000 OA
ENDBRANCH  20  28
ENDBRANCH  17  22
ENDBRANCH   1  17
TORSDOF 4
ENDMDL
MODEL 5
REMARK VINA RESULT:      -7.9      4.048      9.328
REMARK  Name = 
REMARK  5 active torsions:
REMARK  status: ('A' for Active; 'I' for Inactive)
REMARK    1  A    between atoms: C_1  and  O_2
REMARK    2  A    between atoms: O_2  and  C_3
REMARK    3  A    between atoms: C_5  and  S_6
REMARK    4  A    between atoms: S_6  and  N_9
REMARK    5  A    between atoms: C_13  and  C_14
REMARK                            x       y       z     vdW  Elec       q    Type
REMARK                         _______ _______ _______ _____ _____    ______ ____
ROOT
ATOM      1  N   UNL     1       0.633  11.136  18.519  0.00  0.00    +0.000 N 
ATOM      2  C   UNL     1       1.097   9.815  18.813  0.00  0.00    +0.000 A 
ATOM      3  N   UNL     1       1.241   9.386  20.042  0.00  0.00    +0.000 NA
ATOM      4  N   UNL     1       1.846   8.145  19.965  0.00  0.00    +0.000 NA
ATOM      5  C   UNL     1       2.103   7.939  18.688  0.00  0.00    +0.000 A 
ATOM      6  O   UNL     1       1.651   8.965  17.890  0.00  0.00    +0.000 OA
ATOM      7  H   UNL     1       0.876  11.698  19.332  0.00  0.00    +0.000 HD
ENDROOT
BRANCH   5   8
ATOM      8  C   UNL     1       2.833   6.841  18.053  0.00  0.00    +0.000 A 
ATOM      9  C   UNL     1       2.325   5.523  18.140  0.00  0.00    +0.000 A 
ATOM     10  C   UNL     1       3.003   4.441  17.568  0.00  0.00    +0.000 A 
ATOM     11  C   UNL     1       4.191   4.688  16.906  0.00  0.00    +0.000 A 
ATOM     12  C   UNL     1       4.701   5.985  16.800  0.00  0.00    +0.000 A 
ATOM     13  C   UNL     1       4.037   7.064  17.366  0.00  0.00    +0.000 A 
ATOM     14  C   UNL     1       6.021   5.974  16.088  0.00  0.00    +0.000 C 
ATOM     15  C   UNL     1       5.985   4.599  15.401  0.00  0.00    +0.000 C 
ATOM     16  C   UNL     1       5.122   3.691  16.286  0.00  0.00    +0.000 C 
ENDBRANCH   5   8
BRANCH   1  17
ATOM     17  S   UNL     1      -1.073  11.124  18.380  0.00  0.00    +0.000 S 
ATOM     18  O   UNL     1      -1.515   9.756  18.266  0.00  0.00    +0.000 OA
ATOM     19  O   UNL     1      -1.483  12.152  17.430  0.00  0.00    +0.000 OA
BRANCH  17  22
ATOM     20  C   UNL     1      -1.331  11.627  22.424  0.00  0.00    +0.000 A 
ATOM     21  C   UNL     1      -0.969  11.181  21.144  0.00  0.00    +0.000 A 
ATOM     22  C   UNL     1      -1.593  11.708  20.002  0.00  0.00    +0.000 A 
ATOM     23  C   UNL     1      -2.553  12.719  20.131  0.00  0.00    +0.000 A 
ATOM     24  C   UNL     1      -2.903  13.173  21.410  0.00  0.00    +0.000 A 
ATOM     25  C   UNL     1      -2.301  12.627  22.538  0.00  0.00    +0.000 A 
ATOM     26  F   UNL     1      -2.659  13.125  23.730  0.00  0.00    +0.000 F 
BRANCH  20  28
ATOM     27  C   UNL     1      -0.215   9.698  23.251  0.00  0.00    +0.000 C 
ATOM     28  O   UNL     1      -0.661  11.037  23.463  0.00  0.00    +0.000 OA
ENDBRANCH  20  28
ENDBRANCH  17  22
ENDBRANCH   1  17
TORSDOF 4
ENDMDL
MODEL 6
REMARK VINA RESULT:      -7.9      2.377      3.194
REMARK  Name = 
REMARK  5 active torsions:
REMARK  status: ('A' for Active; 'I' for Inactive)
REMARK    1  A    between atoms: C_1  and  O_2
REMARK    2  A    between atoms: O_2  and  C_3
REMARK    3  A    between atoms: C_5  and  S_6
REMARK    4  A    between atoms: S_6  and  N_9
REMARK    5  A    between atoms: C_13  and  C_14
REMARK                            x       y       z     vdW  Elec       q    Type
REMARK                         _______ _______ _______ _____ _____    ______ ____
ROOT
ATOM      1  N   UNL     1       2.201   2.872  19.210  0.00  0.00    +0.000 N 
ATOM      2  C   UNL     1       2.233   4.190  19.766  0.00  0.00    +0.000 A 
ATOM      3  N   UNL     1       2.171   4.403  21.056  0.00  0.00    +0.000 NA
ATOM      4  N   UNL     1       2.068   5.771  21.232  0.00  0.00    +0.000 NA
ATOM      5  C   UNL     1       1.994   6.293  20.024  0.00  0.00    +0.000 A 
ATOM      6  O   UNL     1       2.094   5.342  19.034  0.00  0.00    +0.000 OA
ATOM      7  H   UNL     1       1.715   2.298  19.895  0.00  0.00    +0.000 HD
ENDROOT
BRANCH   5   8
ATOM      8  C   UNL     1       1.761   7.682  19.626  0.00  0.00    +0.000 A 
ATOM      9  C   UNL     1       2.161   8.114  18.339  0.00  0.00    +0.000 A 
ATOM     10  C   UNL     1       1.979   9.439  17.925  0.00  0.00    +0.000 A 
ATOM     11  C   UNL     1       1.393  10.326  18.808  0.00  0.00    +0.000 A 
ATOM     12  C   UNL     1       0.981   9.914  20.079  0.00  0.00    +0.000 A 
ATOM     13  C   UNL     1       1.159   8.602  20.499  0.00  0.00    +0.000 A 
ATOM     14  C   UNL     1       0.432  11.072  20.855  0.00  0.00    +0.000 C 
ATOM     15  C   UNL     1       0.153  12.086  19.734  0.00  0.00    +0.000 C 
ATOM     16  C   UNL     1       1.166  11.795  18.620  0.00  0.00    +0.000 C 
ENDBRANCH   5   8
BRANCH   1  17
ATOM     17  S   UNL     1       3.800   2.274  19.067  0.00  0.00    +0.000 S 
ATOM     18  O   UNL     1       3.770   1.067  18.280  0.00  0.00    +0.000 OA
ATOM     19  O   UNL     1       4.450   2.334  20.371  0.00  0.00    +0.000 OA
BRANCH  17  22
ATOM     20  C   UNL     1       6.184   5.376  17.898  0.00  0.00    +0.000 A 
ATOM     21  C   UNL     1       5.529   4.394  18.656  0.00  0.00    +0.000 A 
ATOM     22  C   UNL     1       4.591   3.537  18.057  0.00  0.00    +0.000 A 
ATOM     23  C   UNL     1       4.335   3.630  16.684  0.00  0.00    +0.000 A 
ATOM     24  C   UNL     1       5.001   4.602  15.926  0.00  0.00    +0.000 A 
ATOM     25  C   UNL     1       5.908   5.465  16.531  0.00  0.00    +0.000 A 
ATOM     26  F   UNL     1       6.532   6.353  15.744  0.00  0.00    +0.000 F 
BRANCH  20  28
ATOM     27  C   UNL     1       7.804   5.515  19.632  0.00  0.00    +0.000 C 
ATOM     28  O   UNL     1       7.072   6.158  18.589  0.00  0.00    +0.000 OA
ENDBRANCH  20  28
ENDBRANCH  17  22
ENDBRANCH   1  17
TORSDOF 4
ENDMDL
MODEL 7
REMARK VINA RESULT:      -7.9      1.950      2.393
REMARK  Name = 
REMARK  5 active torsions:
REMARK  status: ('A' for Active; 'I' for Inactive)
REMARK    1  A    between atoms: C_1  and  O_2
REMARK    2  A    between atoms: O_2  and  C_3
REMARK    3  A    between atoms: C_5  and  S_6
REMARK    4  A    between atoms: S_6  and  N_9
REMARK    5  A    between atoms: C_13  and  C_14
REMARK                            x       y       z     vdW  Elec       q    Type
REMARK                         _______ _______ _______ _____ _____    ______ ____
ROOT
ATOM      1  N   UNL     1       2.769   4.328  18.672  0.00  0.00    +0.000 N 
ATOM      2  C   UNL     1       2.415   5.540  19.345  0.00  0.00    +0.000 A 
ATOM      3  N   UNL     1       1.877   5.542  20.539  0.00  0.00    +0.000 NA
ATOM      4  N   UNL     1       1.524   6.849  20.818  0.00  0.00    +0.000 NA
ATOM      5  C   UNL     1       1.801   7.545  19.733  0.00  0.00    +0.000 A 
ATOM      6  O   UNL     1       2.376   6.775  18.748  0.00  0.00    +0.000 OA
ATOM      7  H   UNL     1       2.162   3.611  19.064  0.00  0.00    +0.000 HD
ENDROOT
BRANCH   5   8
ATOM      8  C   UNL     1       1.525   8.951  19.436  0.00  0.00    +0.000 A 
ATOM      9  C   UNL     1       1.993   9.512  18.224  0.00  0.00    +0.000 A 
ATOM     10  C   UNL     1       1.772  10.858  17.910  0.00  0.00    +0.000 A 
ATOM     11  C   UNL     1       1.078  11.637  18.817  0.00  0.00    +0.000 A 
ATOM     12  C   UNL     1       0.599  11.096  20.014  0.00  0.00    +0.000 A 
ATOM     13  C   UNL     1       0.814   9.763  20.335  0.00  0.00    +0.000 A 
ATOM     14  C   UNL     1      -0.065  12.156  20.841  0.00  0.00    +0.000 C 
ATOM     15  C   UNL     1      -0.316  13.250  19.790  0.00  0.00    +0.000 C 
ATOM     16  C   UNL     1       0.789  13.105  18.736  0.00  0.00    +0.000 C 
ENDBRANCH   5   8
BRANCH   1  17
ATOM     17  S   UNL     1       4.385   3.913  19.057  0.00  0.00    +0.000 S 
ATOM     18  O   UNL     1       4.469   2.482  19.207  0.00  0.00    +0.000 OA
ATOM     19  O   UNL     1       4.883   4.829  20.078  0.00  0.00    +0.000 OA
BRANCH  17  22
ATOM     20  C   UNL     1       6.938   5.698  16.418  0.00  0.00    +0.000 A 
ATOM     21  C   UNL     1       6.220   5.357  17.574  0.00  0.00    +0.000 A 
ATOM     22  C   UNL     1       5.260   4.332  17.541  0.00  0.00    +0.000 A 
ATOM     23  C   UNL     1       5.045   3.612  16.360  0.00  0.00    +0.000 A 
ATOM     24  C   UNL     1       5.774   3.944  15.211  0.00  0.00    +0.000 A 
ATOM     25  C   UNL     1       6.703   4.978  15.243  0.00  0.00    +0.000 A 
ATOM     26  F   UNL     1       7.387   5.227  14.118  0.00  0.00    +0.000 F 
BRANCH  20  28
ATOM     27  C   UNL     1       7.478   7.761  17.468  0.00  0.00    +0.000 C 
ATOM     28  O   UNL     1       7.842   6.716  16.567  0.00  0.00    +0.000 OA
ENDBRANCH  20  28
ENDBRANCH  17  22
ENDBRANCH   1  17
TORSDOF 4
ENDMDL
MODEL 8
REMARK VINA RESULT:      -7.8      2.628      4.051
REMARK  Name = 
REMARK  5 active torsions:
REMARK  status: ('A' for Active; 'I' for Inactive)
REMARK    1  A    between atoms: C_1  and  O_2
REMARK    2  A    between atoms: O_2  and  C_3
REMARK    3  A    between atoms: C_5  and  S_6
REMARK    4  A    between atoms: S_6  and  N_9
REMARK    5  A    between atoms: C_13  and  C_14
REMARK                            x       y       z     vdW  Elec       q    Type
REMARK                         _______ _______ _______ _____ _____    ______ ____
ROOT
ATOM      1  N   UNL     1       4.396   5.147  16.616  0.00  0.00    +0.000 N 
ATOM      2  C   UNL     1       3.850   5.644  17.841  0.00  0.00    +0.000 A 
ATOM      3  N   UNL     1       3.696   4.882  18.895  0.00  0.00    +0.000 NA
ATOM      4  N   UNL     1       3.009   5.630  19.833  0.00  0.00    +0.000 NA
ATOM      5  C   UNL     1       2.719   6.777  19.251  0.00  0.00    +0.000 A 
ATOM      6  O   UNL     1       3.227   6.859  17.974  0.00  0.00    +0.000 OA
ATOM      7  H   UNL     1       4.205   4.147  16.618  0.00  0.00    +0.000 HD
ENDROOT
BRANCH   5   8
ATOM      8  C   UNL     1       1.908   7.890  19.744  0.00  0.00    +0.000 A 
ATOM      9  C   UNL     1       1.526   8.922  18.854  0.00  0.00    +0.000 A 
ATOM     10  C   UNL     1       0.770  10.017  19.288  0.00  0.00    +0.000 A 
ATOM     11  C   UNL     1       0.398  10.070  20.619  0.00  0.00    +0.000 A 
ATOM     12  C   UNL     1       0.757   9.054  21.509  0.00  0.00    +0.000 A 
ATOM     13  C   UNL     1       1.508   7.965  21.088  0.00  0.00    +0.000 A 
ATOM     14  C   UNL     1       0.283   9.377  22.894  0.00  0.00    +0.000 C 
ATOM     15  C   UNL     1      -0.775  10.455  22.610  0.00  0.00    +0.000 C 
ATOM     16  C   UNL     1      -0.339  11.168  21.323  0.00  0.00    +0.000 C 
ENDBRANCH   5   8
BRANCH   1  17
ATOM     17  S   UNL     1       6.096   5.354  16.624  0.00  0.00    +0.000 S 
ATOM     18  O   UNL     1       6.680   4.332  17.456  0.00  0.00    +0.000 OA
ATOM     19  O   UNL     1       6.404   6.768  16.803  0.00  0.00    +0.000 OA
BRANCH  17  22
ATOM     20  C   UNL     1       6.002   3.789  12.854  0.00  0.00    +0.000 A 
ATOM     21  C   UNL     1       5.703   4.102  14.189  0.00  0.00    +0.000 A 
ATOM     22  C   UNL     1       6.537   4.960  14.924  0.00  0.00    +0.000 A 
ATOM     23  C   UNL     1       7.653   5.545  14.313  0.00  0.00    +0.000 A 
ATOM     24  C   UNL     1       7.941   5.242  12.976  0.00  0.00    +0.000 A 
ATOM     25  C   UNL     1       7.126   4.370  12.262  0.00  0.00    +0.000 A 
ATOM     26  F   UNL     1       7.441   4.145  10.979  0.00  0.00    +0.000 F 
BRANCH  20  28
ATOM     27  C   UNL     1       5.694   1.843  11.523  0.00  0.00    +0.000 C 
ATOM     28  O   UNL     1       5.122   2.937  12.239  0.00  0.00    +0.000 OA
ENDBRANCH  20  28
ENDBRANCH  17  22
ENDBRANCH   1  17
TORSDOF 4
ENDMDL
MODEL 9
REMARK VINA RESULT:      -7.8      4.393      9.014
REMARK  Name = 
REMARK  5 active torsions:
REMARK  status: ('A' for Active; 'I' for Inactive)
REMARK    1  A    between atoms: C_1  and  O_2
REMARK    2  A    between atoms: O_2  and  C_3
REMARK    3  A    between atoms: C_5  and  S_6
REMARK    4  A    between atoms: S_6  and  N_9
REMARK    5  A    between atoms: C_13  and  C_14
REMARK                            x       y       z     vdW  Elec       q    Type
REMARK                         _______ _______ _______ _____ _____    ______ ____
ROOT
ATOM      1  N   UNL     1       0.131  11.072  18.168  0.00  0.00    +0.000 N 
ATOM      2  C   UNL     1       1.131  10.049  18.202  0.00  0.00    +0.000 A 
ATOM      3  N   UNL     1       2.136  10.029  17.363  0.00  0.00    +0.000 NA
ATOM      4  N   UNL     1       2.808   8.839  17.572  0.00  0.00    +0.000 NA
ATOM      5  C   UNL     1       2.114   8.176  18.475  0.00  0.00    +0.000 A 
ATOM      6  O   UNL     1       1.026   8.888  18.927  0.00  0.00    +0.000 OA
ATOM      7  H   UNL     1       0.128  11.418  17.211  0.00  0.00    +0.000 HD
ENDROOT
BRANCH   5   8
ATOM      8  C   UNL     1       2.307   6.817  18.982  0.00  0.00    +0.000 A 
ATOM      9  C   UNL     1       1.912   6.504  20.304  0.00  0.00    +0.000 A 
ATOM     10  C   UNL     1       2.100   5.223  20.838  0.00  0.00    +0.000 A 
ATOM     11  C   UNL     1       2.685   4.260  20.037  0.00  0.00    +0.000 A 
ATOM     12  C   UNL     1       3.070   4.548  18.725  0.00  0.00    +0.000 A 
ATOM     13  C   UNL     1       2.890   5.816  18.188  0.00  0.00    +0.000 A 
ATOM     14  C   UNL     1       3.726   3.357  18.096  0.00  0.00    +0.000 C 
ATOM     15  C   UNL     1       3.261   2.226  19.027  0.00  0.00    +0.000 C 
ATOM     16  C   UNL     1       3.052   2.856  20.410  0.00  0.00    +0.000 C 
ENDBRANCH   5   8
BRANCH   1  17
ATOM     17  S   UNL     1       0.601  12.363  19.190  0.00  0.00    +0.000 S 
ATOM     18  O   UNL     1       0.284  13.607  18.535  0.00  0.00    +0.000 OA
ATOM     19  O   UNL     1       1.929  12.087  19.728  0.00  0.00    +0.000 OA
BRANCH  17  22
ATOM     20  C   UNL     1      -1.069  11.170  22.720  0.00  0.00    +0.000 A 
ATOM     21  C   UNL     1      -0.215  11.313  21.616  0.00  0.00    +0.000 A 
ATOM     22  C   UNL     1      -0.541  12.193  20.571  0.00  0.00    +0.000 A 
ATOM     23  C   UNL     1      -1.704  12.969  20.646  0.00  0.00    +0.000 A 
ATOM     24  C   UNL     1      -2.548  12.834  21.756  0.00  0.00    +0.000 A 
ATOM     25  C   UNL     1      -2.233  11.941  22.775  0.00  0.00    +0.000 A 
ATOM     26  F   UNL     1      -3.067  11.882  23.822  0.00  0.00    +0.000 F 
BRANCH  20  28
ATOM     27  C   UNL     1       0.287   9.291  23.251  0.00  0.00    +0.000 C 
ATOM     28  O   UNL     1      -0.652  10.279  23.674  0.00  0.00    +0.000 OA
ENDBRANCH  20  28
ENDBRANCH  17  22
ENDBRANCH   1  17
TORSDOF 4
ENDMDL
