MODEL 1
REMARK VINA RESULT:      -8.9      0.000      0.000
REMARK  Name = 
REMARK  4 active torsions:
REMARK  status: ('A' for Active; 'I' for Inactive)
REMARK    1  A    between atoms: C_2  and  C_14
REMARK    2  A    between atoms: N_3  and  C_4
REMARK    3  A    between atoms: C_4  and  C_5
REMARK    4  A    between atoms: N_18  and  C_19
REMARK                            x       y       z     vdW  Elec       q    Type
REMARK                         _______ _______ _______ _____ _____    ______ ____
ROOT
ATOM      1  O   UNL     1       6.399   7.333  16.704  0.00  0.00    +0.000 OA
ATOM      2  C   UNL     1       7.253   7.171  17.570  0.00  0.00    +0.000 C 
ATOM      3  N   UNL     1       8.091   8.175  17.988  0.00  0.00    +0.000 N 
ATOM      4  H   UNL     1       8.838   7.987  18.646  0.00  0.00    +0.000 HD
ENDROOT
BRANCH   2   5
ATOM      5  C   UNL     1       7.412   5.823  18.263  0.00  0.00    +0.000 C 
ATOM      6  C   UNL     1       7.629   4.696  17.270  0.00  0.00    +0.000 C 
ATOM      7  C   UNL     1       6.239   4.154  17.046  0.00  0.00    +0.000 C 
ATOM      8  O   UNL     1       5.956   3.431  16.103  0.00  0.00    +0.000 OA
ATOM      9  N   UNL     1       5.420   4.606  18.091  0.00  0.00    +0.000 N 
ATOM     10  C   UNL     1       6.176   5.407  19.032  0.00  0.00    +0.000 C 
BRANCH   9  11
ATOM     11  C   UNL     1       4.070   4.217  18.327  0.00  0.00    +0.000 A 
ATOM     12  C   UNL     1       3.003   4.887  17.711  0.00  0.00    +0.000 A 
ATOM     13  C   UNL     1       1.677   4.479  17.903  0.00  0.00    +0.000 A 
ATOM     14  C   UNL     1       1.387   3.391  18.721  0.00  0.00    +0.000 A 
ATOM     15  C   UNL     1       2.424   2.725  19.364  0.00  0.00    +0.000 A 
ATOM     16  C   UNL     1       3.743   3.140  19.173  0.00  0.00    +0.000 A 
ATOM     17  F   UNL     1       4.698   2.436  19.801  0.00  0.00    +0.000 F 
ENDBRANCH   9  11
ENDBRANCH   2   5
BRANCH   3  18
ATOM     18  C   UNL     1       8.016   9.519  17.461  0.00  0.00    +0.000 C 
BRANCH  18  19
ATOM     19  C   UNL     1       8.779  10.482  18.334  0.00  0.00    +0.000 A 
ATOM     20  C   UNL     1       9.255  10.061  19.598  0.00  0.00    +0.000 A 
ATOM     21  C   UNL     1       9.970  10.933  20.425  0.00  0.00    +0.000 A 
ATOM     22  C   UNL     1      10.180  12.217  19.975  0.00  0.00    +0.000 A 
ATOM     23  C   UNL     1       9.707  12.642  18.756  0.00  0.00    +0.000 A 
ATOM     24  C   UNL     1       9.003  11.804  17.916  0.00  0.00    +0.000 A 
ATOM     25  O   UNL     1      10.018  13.943  18.504  0.00  0.00    +0.000 OA
ATOM     26  C   UNL     1      10.704  14.298  19.724  0.00  0.00    +0.000 C 
ATOM     27  O   UNL     1      10.847  13.196  20.643  0.00  0.00    +0.000 OA
ENDBRANCH  18  19
ENDBRANCH   3  18
TORSDOF 4
ENDMDL
MODEL 2
REMARK VINA RESULT:      -8.9      1.285      1.560
REMARK  Name = 
REMARK  4 active torsions:
REMARK  status: ('A' for Active; 'I' for Inactive)
REMARK    1  A    between atoms: C_2  and  C_14
REMARK    2  A    between atoms: N_3  and  C_4
REMARK    3  A    between atoms: C_4  and  C_5
REMARK    4  A    between atoms: N_18  and  C_19
REMARK                            x       y       z     vdW  Elec       q    Type
REMARK                         _______ _______ _______ _____ _____    ______ ____
ROOT
ATOM      1  O   UNL     1       6.466   7.389  16.779  0.00  0.00    +0.000 OA
ATOM      2  C   UNL     1       7.343   7.223  17.621  0.00  0.00    +0.000 C 
ATOM      3  N   UNL     1       8.158   8.237  18.059  0.00  0.00    +0.000 N 
ATOM      4  H   UNL     1       8.924   8.050  18.694  0.00  0.00    +0.000 HD
ENDROOT
BRANCH   2   5
ATOM      5  C   UNL     1       7.559   5.857  18.261  0.00  0.00    +0.000 C 
ATOM      6  C   UNL     1       7.364   4.727  17.267  0.00  0.00    +0.000 C 
ATOM      7  C   UNL     1       5.920   4.332  17.463  0.00  0.00    +0.000 C 
ATOM      8  O   UNL     1       5.305   3.655  16.656  0.00  0.00    +0.000 OA
ATOM      9  N   UNL     1       5.490   4.851  18.694  0.00  0.00    +0.000 N 
ATOM     10  C   UNL     1       6.563   5.558  19.361  0.00  0.00    +0.000 C 
BRANCH   9  11
ATOM     11  C   UNL     1       4.234   4.598  19.317  0.00  0.00    +0.000 A 
ATOM     12  C   UNL     1       3.932   3.338  19.855  0.00  0.00    +0.000 A 
ATOM     13  C   UNL     1       2.718   3.096  20.511  0.00  0.00    +0.000 A 
ATOM     14  C   UNL     1       1.774   4.111  20.640  0.00  0.00    +0.000 A 
ATOM     15  C   UNL     1       2.038   5.362  20.093  0.00  0.00    +0.000 A 
ATOM     16  C   UNL     1       3.248   5.594  19.436  0.00  0.00    +0.000 A 
ATOM     17  F   UNL     1       3.450   6.832  18.956  0.00  0.00    +0.000 F 
ENDBRANCH   9  11
ENDBRANCH   2   5
BRANCH   3  18
ATOM     18  C   UNL     1       8.031   9.597  17.583  0.00  0.00    +0.000 C 
BRANCH  18  19
ATOM     19  C   UNL     1       8.924  10.526  18.364  0.00  0.00    +0.000 A 
ATOM     20  C   UNL     1       9.269  10.213  19.699  0.00  0.00    +0.000 A 
ATOM     21  C   UNL     1      10.101  11.055  20.444  0.00  0.00    +0.000 A 
ATOM     22  C   UNL     1      10.558  12.205  19.839  0.00  0.00    +0.000 A 
ATOM     23  C   UNL     1      10.215  12.527  18.547  0.00  0.00    +0.000 A 
ATOM     24  C   UNL     1       9.401  11.714  17.787  0.00  0.00    +0.000 A 
ATOM     25  O   UNL     1      10.767  13.703  18.142  0.00  0.00    +0.000 OA
ATOM     26  C   UNL     1      11.462  14.103  19.343  0.00  0.00    +0.000 C 
ATOM     27  O   UNL     1      11.368  13.136  20.409  0.00  0.00    +0.000 OA
ENDBRANCH  18  19
ENDBRANCH   3  18
TORSDOF 4
ENDMDL
MODEL 3
REMARK VINA RESULT:      -8.5      5.138      6.030
REMARK  Name = 
REMARK  4 active torsions:
REMARK  status: ('A' for Active; 'I' for Inactive)
REMARK    1  A    between atoms: C_2  and  C_14
REMARK    2  A    between atoms: N_3  and  C_4
REMARK    3  A    between atoms: C_4  and  C_5
REMARK    4  A    between atoms: N_18  and  C_19
REMARK                            x       y       z     vdW  Elec       q    Type
REMARK                         _______ _______ _______ _____ _____    ______ ____
ROOT
ATOM      1  O   UNL     1       5.124   6.874  15.605  0.00  0.00    +0.000 OA
ATOM      2  C   UNL     1       4.856   6.426  16.715  0.00  0.00    +0.000 C 
ATOM      3  N   UNL     1       3.949   7.018  17.559  0.00  0.00    +0.000 N 
ATOM      4  H   UNL     1       3.810   6.669  18.499  0.00  0.00    +0.000 HD
ENDROOT
BRANCH   2   5
ATOM      5  C   UNL     1       5.508   5.142  17.215  0.00  0.00    +0.000 C 
ATOM      6  C   UNL     1       5.068   3.931  16.411  0.00  0.00    +0.000 C 
ATOM      7  C   UNL     1       3.914   3.380  17.213  0.00  0.00    +0.000 C 
ATOM      8  O   UNL     1       3.113   2.581  16.754  0.00  0.00    +0.000 OA
ATOM      9  N   UNL     1       3.978   3.927  18.503  0.00  0.00    +0.000 N 
ATOM     10  C   UNL     1       5.124   4.801  18.639  0.00  0.00    +0.000 C 
BRANCH   9  11
ATOM     11  C   UNL     1       3.153   3.568  19.608  0.00  0.00    +0.000 A 
ATOM     12  C   UNL     1       1.899   4.165  19.801  0.00  0.00    +0.000 A 
ATOM     13  C   UNL     1       1.064   3.783  20.859  0.00  0.00    +0.000 A 
ATOM     14  C   UNL     1       1.467   2.794  21.752  0.00  0.00    +0.000 A 
ATOM     15  C   UNL     1       2.717   2.204  21.597  0.00  0.00    +0.000 A 
ATOM     16  C   UNL     1       3.546   2.594  20.545  0.00  0.00    +0.000 A 
ATOM     17  F   UNL     1       4.727   1.964  20.437  0.00  0.00    +0.000 F 
ENDBRANCH   9  11
ENDBRANCH   2   5
BRANCH   3  18
ATOM     18  C   UNL     1       3.211   8.207  17.195  0.00  0.00    +0.000 C 
BRANCH  18  19
ATOM     19  C   UNL     1       2.284   8.625  18.308  0.00  0.00    +0.000 A 
ATOM     20  C   UNL     1       2.190   7.838  19.479  0.00  0.00    +0.000 A 
ATOM     21  C   UNL     1       1.342   8.207  20.528  0.00  0.00    +0.000 A 
ATOM     22  C   UNL     1       0.590   9.350  20.374  0.00  0.00    +0.000 A 
ATOM     23  C   UNL     1       0.661  10.114  19.233  0.00  0.00    +0.000 A 
ATOM     24  C   UNL     1       1.492   9.778  18.184  0.00  0.00    +0.000 A 
ATOM     25  O   UNL     1      -0.163  11.196  19.281  0.00  0.00    +0.000 OA
ATOM     26  C   UNL     1      -0.790  11.001  20.566  0.00  0.00    +0.000 C 
ATOM     27  O   UNL     1      -0.285   9.855  21.283  0.00  0.00    +0.000 OA
ENDBRANCH  18  19
ENDBRANCH   3  18
TORSDOF 4
ENDMDL
MODEL 4
REMARK VINA RESULT:      -8.5      5.212      6.145
REMARK  Name = 
REMARK  4 active torsions:
REMARK  status: ('A' for Active; 'I' for Inactive)
REMARK    1  A    between atoms: C_2  and  C_14
REMARK    2  A    between atoms: N_3  and  C_4
REMARK    3  A    between atoms: C_4  and  C_5
REMARK    4  A    between atoms: N_18  and  C_19
REMARK                            x       y       z     vdW  Elec       q    Type
REMARK                         _______ _______ _______ _____ _____    ______ ____
ROOT
ATOM      1  O   UNL     1       5.183   6.852  15.675  0.00  0.00    +0.000 OA
ATOM      2  C   UNL     1       4.862   6.358  16.751  0.00  0.00    +0.000 C 
ATOM      3  N   UNL     1       3.918   6.916  17.577  0.00  0.00    +0.000 N 
ATOM      4  H   UNL     1       3.736   6.528  18.494  0.00  0.00    +0.000 HD
ENDROOT
BRANCH   2   5
ATOM      5  C   UNL     1       5.489   5.052  17.225  0.00  0.00    +0.000 C 
ATOM      6  C   UNL     1       5.050   3.871  16.378  0.00  0.00    +0.000 C 
ATOM      7  C   UNL     1       3.874   3.311  17.141  0.00  0.00    +0.000 C 
ATOM      8  O   UNL     1       3.073   2.536  16.644  0.00  0.00    +0.000 OA
ATOM      9  N   UNL     1       3.919   3.819  18.448  0.00  0.00    +0.000 N 
ATOM     10  C   UNL     1       5.073   4.675  18.631  0.00  0.00    +0.000 C 
BRANCH   9  11
ATOM     11  C   UNL     1       3.069   3.439  19.526  0.00  0.00    +0.000 A 
ATOM     12  C   UNL     1       3.539   2.629  20.570  0.00  0.00    +0.000 A 
ATOM     13  C   UNL     1       2.721   2.289  21.655  0.00  0.00    +0.000 A 
ATOM     14  C   UNL     1       1.410   2.751  21.719  0.00  0.00    +0.000 A 
ATOM     15  C   UNL     1       0.911   3.534  20.684  0.00  0.00    +0.000 A 
ATOM     16  C   UNL     1       1.730   3.864  19.603  0.00  0.00    +0.000 A 
ATOM     17  F   UNL     1       1.194   4.647  18.652  0.00  0.00    +0.000 F 
ENDBRANCH   9  11
ENDBRANCH   2   5
BRANCH   3  18
ATOM     18  C   UNL     1       3.200   8.123  17.231  0.00  0.00    +0.000 C 
BRANCH  18  19
ATOM     19  C   UNL     1       2.291   8.549  18.356  0.00  0.00    +0.000 A 
ATOM     20  C   UNL     1       2.199   7.757  19.524  0.00  0.00    +0.000 A 
ATOM     21  C   UNL     1       1.369   8.133  20.585  0.00  0.00    +0.000 A 
ATOM     22  C   UNL     1       0.633   9.288  20.445  0.00  0.00    +0.000 A 
ATOM     23  C   UNL     1       0.702  10.057  19.307  0.00  0.00    +0.000 A 
ATOM     24  C   UNL     1       1.516   9.714  18.247  0.00  0.00    +0.000 A 
ATOM     25  O   UNL     1      -0.104  11.151  19.370  0.00  0.00    +0.000 OA
ATOM     26  C   UNL     1      -0.720  10.959  20.662  0.00  0.00    +0.000 C 
ATOM     27  O   UNL     1      -0.224   9.802  21.367  0.00  0.00    +0.000 OA
ENDBRANCH  18  19
ENDBRANCH   3  18
TORSDOF 4
ENDMDL
MODEL 5
REMARK VINA RESULT:      -8.4      5.769      7.609
REMARK  Name = 
REMARK  4 active torsions:
REMARK  status: ('A' for Active; 'I' for Inactive)
REMARK    1  A    between atoms: C_2  and  C_14
REMARK    2  A    between atoms: N_3  and  C_4
REMARK    3  A    between atoms: C_4  and  C_5
REMARK    4  A    between atoms: N_18  and  C_19
REMARK                            x       y       z     vdW  Elec       q    Type
REMARK                         _______ _______ _______ _____ _____    ______ ____
ROOT
ATOM      1  O   UNL     1       2.178   4.731  21.371  0.00  0.00    +0.000 OA
ATOM      2  C   UNL     1       1.830   5.292  20.336  0.00  0.00    +0.000 C 
ATOM      3  N   UNL     1       1.660   6.651  20.245  0.00  0.00    +0.000 N 
ATOM      4  H   UNL     1       1.294   7.073  19.401  0.00  0.00    +0.000 HD
ENDROOT
BRANCH   2   5
ATOM      5  C   UNL     1       1.590   4.492  19.061  0.00  0.00    +0.000 C 
ATOM      6  C   UNL     1       1.866   3.012  19.258  0.00  0.00    +0.000 C 
ATOM      7  C   UNL     1       3.298   2.860  18.807  0.00  0.00    +0.000 C 
ATOM      8  O   UNL     1       3.975   1.881  19.077  0.00  0.00    +0.000 OA
ATOM      9  N   UNL     1       3.638   3.989  18.047  0.00  0.00    +0.000 N 
ATOM     10  C   UNL     1       2.514   4.894  17.931  0.00  0.00    +0.000 C 
BRANCH   9  11
ATOM     11  C   UNL     1       4.853   4.180  17.326  0.00  0.00    +0.000 A 
ATOM     12  C   UNL     1       4.906   4.011  15.935  0.00  0.00    +0.000 A 
ATOM     13  C   UNL     1       6.085   4.242  15.216  0.00  0.00    +0.000 A 
ATOM     14  C   UNL     1       7.243   4.646  15.875  0.00  0.00    +0.000 A 
ATOM     15  C   UNL     1       7.224   4.796  17.257  0.00  0.00    +0.000 A 
ATOM     16  C   UNL     1       6.047   4.558  17.968  0.00  0.00    +0.000 A 
ATOM     17  F   UNL     1       6.091   4.749  19.296  0.00  0.00    +0.000 F 
ENDBRANCH   9  11
ENDBRANCH   2   5
BRANCH   3  18
ATOM     18  C   UNL     1       1.907   7.541  21.358  0.00  0.00    +0.000 C 
BRANCH  18  19
ATOM     19  C   UNL     1       0.995   8.739  21.300  0.00  0.00    +0.000 A 
ATOM     20  C   UNL     1       0.664   9.312  20.051  0.00  0.00    +0.000 A 
ATOM     21  C   UNL     1      -0.185  10.421  19.968  0.00  0.00    +0.000 A 
ATOM     22  C   UNL     1      -0.672  10.944  21.145  0.00  0.00    +0.000 A 
ATOM     23  C   UNL     1      -0.344  10.405  22.367  0.00  0.00    +0.000 A 
ATOM     24  C   UNL     1       0.487   9.310  22.479  0.00  0.00    +0.000 A 
ATOM     25  O   UNL     1      -0.925  11.072  23.401  0.00  0.00    +0.000 OA
ATOM     26  C   UNL     1      -1.624  12.116  22.690  0.00  0.00    +0.000 C 
ATOM     27  O   UNL     1      -1.502  12.015  21.257  0.00  0.00    +0.000 OA
ENDBRANCH  18  19
ENDBRANCH   3  18
TORSDOF 4
ENDMDL
MODEL 6
REMARK VINA RESULT:      -8.4      5.060      6.187
REMARK  Name = 
REMARK  4 active torsions:
REMARK  status: ('A' for Active; 'I' for Inactive)
REMARK    1  A    between atoms: C_2  and  C_14
REMARK    2  A    between atoms: N_3  and  C_4
REMARK    3  A    between atoms: C_4  and  C_5
REMARK    4  A    between atoms: N_18  and  C_19
REMARK                            x       y       z     vdW  Elec       q    Type
REMARK                         _______ _______ _______ _____ _____    ______ ____
ROOT
ATOM      1  O   UNL     1       5.063   6.951  15.728  0.00  0.00    +0.000 OA
ATOM      2  C   UNL     1       4.833   6.620  16.887  0.00  0.00    +0.000 C 
ATOM      3  N   UNL     1       3.889   7.241  17.666  0.00  0.00    +0.000 N 
ATOM      4  H   UNL     1       3.780   6.998  18.643  0.00  0.00    +0.000 HD
ENDROOT
BRANCH   2   5
ATOM      5  C   UNL     1       5.581   5.457  17.527  0.00  0.00    +0.000 C 
ATOM      6  C   UNL     1       5.409   4.170  16.739  0.00  0.00    +0.000 C 
ATOM      7  C   UNL     1       4.246   3.494  17.423  0.00  0.00    +0.000 C 
ATOM      8  O   UNL     1       3.622   2.576  16.913  0.00  0.00    +0.000 OA
ATOM      9  N   UNL     1       4.074   4.088  18.682  0.00  0.00    +0.000 N 
ATOM     10  C   UNL     1       5.068   5.116  18.909  0.00  0.00    +0.000 C 
BRANCH   9  11
ATOM     11  C   UNL     1       3.170   3.658  19.696  0.00  0.00    +0.000 A 
ATOM     12  C   UNL     1       1.883   4.205  19.801  0.00  0.00    +0.000 A 
ATOM     13  C   UNL     1       0.975   3.753  20.767  0.00  0.00    +0.000 A 
ATOM     14  C   UNL     1       1.336   2.743  21.654  0.00  0.00    +0.000 A 
ATOM     15  C   UNL     1       2.614   2.201  21.587  0.00  0.00    +0.000 A 
ATOM     16  C   UNL     1       3.517   2.660  20.627  0.00  0.00    +0.000 A 
ATOM     17  F   UNL     1       4.725   2.075  20.599  0.00  0.00    +0.000 F 
ENDBRANCH   9  11
ENDBRANCH   2   5
BRANCH   3  18
ATOM     18  C   UNL     1       3.064   8.322  17.174  0.00  0.00    +0.000 C 
BRANCH  18  19
ATOM     19  C   UNL     1       2.110   8.799  18.239  0.00  0.00    +0.000 A 
ATOM     20  C   UNL     1       1.292   9.927  17.998  0.00  0.00    +0.000 A 
ATOM     21  C   UNL     1       0.394  10.386  18.968  0.00  0.00    +0.000 A 
ATOM     22  C   UNL     1       0.347   9.712  20.168  0.00  0.00    +0.000 A 
ATOM     23  C   UNL     1       1.149   8.625  20.419  0.00  0.00    +0.000 A 
ATOM     24  C   UNL     1       2.040   8.146  19.481  0.00  0.00    +0.000 A 
ATOM     25  O   UNL     1       0.950   8.109  21.663  0.00  0.00    +0.000 OA
ATOM     26  C   UNL     1      -0.040   9.024  22.179  0.00  0.00    +0.000 C 
ATOM     27  O   UNL     1      -0.458  10.018  21.220  0.00  0.00    +0.000 OA
ENDBRANCH  18  19
ENDBRANCH   3  18
TORSDOF 4
ENDMDL
MODEL 7
REMARK VINA RESULT:      -8.4      5.116      6.911
REMARK  Name = 
REMARK  4 active torsions:
REMARK  status: ('A' for Active; 'I' for Inactive)
REMARK    1  A    between atoms: C_2  and  C_14
REMARK    2  A    between atoms: N_3  and  C_4
REMARK    3  A    between atoms: C_4  and  C_5
REMARK    4  A    between atoms: N_18  and  C_19
REMARK                            x       y       z     vdW  Elec       q    Type
REMARK                         _______ _______ _______ _____ _____    ______ ____
ROOT
ATOM      1  O   UNL     1       0.715   3.992  20.760  0.00  0.00    +0.000 OA
ATOM      2  C   UNL     1       1.415   4.324  19.809  0.00  0.00    +0.000 C 
ATOM      3  N   UNL     1       1.977   5.571  19.695  0.00  0.00    +0.000 N 
ATOM      4  H   UNL     1       2.482   5.839  18.859  0.00  0.00    +0.000 HD
ENDROOT
BRANCH   2   5
ATOM      5  C   UNL     1       1.728   3.336  18.692  0.00  0.00    +0.000 C 
ATOM      6  C   UNL     1       2.499   2.130  19.200  0.00  0.00    +0.000 C 
ATOM      7  C   UNL     1       3.940   2.507  18.954  0.00  0.00    +0.000 C 
ATOM      8  O   UNL     1       4.874   1.926  19.483  0.00  0.00    +0.000 OA
ATOM      9  N   UNL     1       3.963   3.567  18.035  0.00  0.00    +0.000 N 
ATOM     10  C   UNL     1       2.622   3.922  17.620  0.00  0.00    +0.000 C 
BRANCH   9  11
ATOM     11  C   UNL     1       5.126   4.132  17.436  0.00  0.00    +0.000 A 
ATOM     12  C   UNL     1       5.467   3.849  16.105  0.00  0.00    +0.000 A 
ATOM     13  C   UNL     1       6.583   4.439  15.497  0.00  0.00    +0.000 A 
ATOM     14  C   UNL     1       7.387   5.323  16.209  0.00  0.00    +0.000 A 
ATOM     15  C   UNL     1       7.085   5.601  17.538  0.00  0.00    +0.000 A 
ATOM     16  C   UNL     1       5.975   5.006  18.140  0.00  0.00    +0.000 A 
ATOM     17  F   UNL     1       5.725   5.339  19.416  0.00  0.00    +0.000 F 
ENDBRANCH   9  11
ENDBRANCH   2   5
BRANCH   3  18
ATOM     18  C   UNL     1       1.813   6.592  20.706  0.00  0.00    +0.000 C 
BRANCH  18  19
ATOM     19  C   UNL     1       1.593   7.943  20.075  0.00  0.00    +0.000 A 
ATOM     20  C   UNL     1       2.022   8.179  18.749  0.00  0.00    +0.000 A 
ATOM     21  C   UNL     1       1.824   9.421  18.137  0.00  0.00    +0.000 A 
ATOM     22  C   UNL     1       1.214  10.410  18.877  0.00  0.00    +0.000 A 
ATOM     23  C   UNL     1       0.808  10.197  20.173  0.00  0.00    +0.000 A 
ATOM     24  C   UNL     1       0.985   8.981  20.800  0.00  0.00    +0.000 A 
ATOM     25  O   UNL     1       0.233  11.300  20.724  0.00  0.00    +0.000 OA
ATOM     26  C   UNL     1       0.362  12.243  19.638  0.00  0.00    +0.000 C 
ATOM     27  O   UNL     1       0.945  11.672  18.449  0.00  0.00    +0.000 OA
ENDBRANCH  18  19
ENDBRANCH   3  18
TORSDOF 4
ENDMDL
MODEL 8
REMARK VINA RESULT:      -8.4      5.427      7.076
REMARK  Name = 
REMARK  4 active torsions:
REMARK  status: ('A' for Active; 'I' for Inactive)
REMARK    1  A    between atoms: C_2  and  C_14
REMARK    2  A    between atoms: N_3  and  C_4
REMARK    3  A    between atoms: C_4  and  C_5
REMARK    4  A    between atoms: N_18  and  C_19
REMARK                            x       y       z     vdW  Elec       q    Type
REMARK                         _______ _______ _______ _____ _____    ______ ____
ROOT
ATOM      1  O   UNL     1       0.802   3.843  20.652  0.00  0.00    +0.000 OA
ATOM      2  C   UNL     1       1.290   4.419  19.684  0.00  0.00    +0.000 C 
ATOM      3  N   UNL     1       1.818   5.684  19.758  0.00  0.00    +0.000 N 
ATOM      4  H   UNL     1       2.139   6.162  18.924  0.00  0.00    +0.000 HD
ENDROOT
BRANCH   2   5
ATOM      5  C   UNL     1       1.363   3.732  18.326  0.00  0.00    +0.000 C 
ATOM      6  C   UNL     1       1.764   2.273  18.448  0.00  0.00    +0.000 C 
ATOM      7  C   UNL     1       3.260   2.303  18.253  0.00  0.00    +0.000 C 
ATOM      8  O   UNL     1       3.985   1.371  18.561  0.00  0.00    +0.000 OA
ATOM      9  N   UNL     1       3.598   3.529  17.662  0.00  0.00    +0.000 N 
ATOM     10  C   UNL     1       2.417   4.331  17.419  0.00  0.00    +0.000 C 
BRANCH   9  11
ATOM     11  C   UNL     1       4.890   3.906  17.192  0.00  0.00    +0.000 A 
ATOM     12  C   UNL     1       5.214   3.837  15.829  0.00  0.00    +0.000 A 
ATOM     13  C   UNL     1       6.466   4.250  15.355  0.00  0.00    +0.000 A 
ATOM     14  C   UNL     1       7.426   4.738  16.237  0.00  0.00    +0.000 A 
ATOM     15  C   UNL     1       7.139   4.792  17.596  0.00  0.00    +0.000 A 
ATOM     16  C   UNL     1       5.891   4.374  18.062  0.00  0.00    +0.000 A 
ATOM     17  F   UNL     1       5.670   4.479  19.382  0.00  0.00    +0.000 F 
ENDBRANCH   9  11
ENDBRANCH   2   5
BRANCH   3  18
ATOM     18  C   UNL     1       1.869   6.434  20.993  0.00  0.00    +0.000 C 
BRANCH  18  19
ATOM     19  C   UNL     1       1.342   7.832  20.795  0.00  0.00    +0.000 A 
ATOM     20  C   UNL     1       0.577   8.447  21.813  0.00  0.00    +0.000 A 
ATOM     21  C   UNL     1       0.081   9.746  21.657  0.00  0.00    +0.000 A 
ATOM     22  C   UNL     1       0.350  10.397  20.474  0.00  0.00    +0.000 A 
ATOM     23  C   UNL     1       1.079   9.803  19.471  0.00  0.00    +0.000 A 
ATOM     24  C   UNL     1       1.584   8.526  19.598  0.00  0.00    +0.000 A 
ATOM     25  O   UNL     1       1.226  10.613  18.387  0.00  0.00    +0.000 OA
ATOM     26  C   UNL     1       0.470  11.768  18.809  0.00  0.00    +0.000 C 
ATOM     27  O   UNL     1      -0.052  11.654  20.149  0.00  0.00    +0.000 OA
ENDBRANCH  18  19
ENDBRANCH   3  18
TORSDOF 4
ENDMDL
MODEL 9
REMARK VINA RESULT:      -8.3      5.165      6.195
REMARK  Name = 
REMARK  4 active torsions:
REMARK  status: ('A' for Active; 'I' for Inactive)
REMARK    1  A    between atoms: C_2  and  C_14
REMARK    2  A    between atoms: N_3  and  C_4
REMARK    3  A    between atoms: C_4  and  C_5
REMARK    4  A    between atoms: N_18  and  C_19
REMARK                            x       y       z     vdW  Elec       q    Type
REMARK                         _______ _______ _______ _____ _____    ______ ____
ROOT
ATOM      1  O   UNL     1       5.408   6.712  15.594  0.00  0.00    +0.000 OA
ATOM      2  C   UNL     1       5.054   6.292  16.691  0.00  0.00    +0.000 C 
ATOM      3  N   UNL     1       4.088   6.907  17.449  0.00  0.00    +0.000 N 
ATOM      4  H   UNL     1       3.877   6.581  18.384  0.00  0.00    +0.000 HD
ENDROOT
BRANCH   2   5
ATOM      5  C   UNL     1       5.661   5.020  17.270  0.00  0.00    +0.000 C 
ATOM      6  C   UNL     1       5.284   3.792  16.461  0.00  0.00    +0.000 C 
ATOM      7  C   UNL     1       4.068   3.259  17.179  0.00  0.00    +0.000 C 
ATOM      8  O   UNL     1       3.305   2.450  16.676  0.00  0.00    +0.000 OA
ATOM      9  N   UNL     1       4.029   3.835  18.458  0.00  0.00    +0.000 N 
ATOM     10  C   UNL     1       5.163   4.711  18.666  0.00  0.00    +0.000 C 
BRANCH   9  11
ATOM     11  C   UNL     1       3.117   3.500  19.501  0.00  0.00    +0.000 A 
ATOM     12  C   UNL     1       3.517   2.710  20.589  0.00  0.00    +0.000 A 
ATOM     13  C   UNL     1       2.638   2.417  21.639  0.00  0.00    +0.000 A 
ATOM     14  C   UNL     1       1.335   2.907  21.624  0.00  0.00    +0.000 A 
ATOM     15  C   UNL     1       0.906   3.671  20.545  0.00  0.00    +0.000 A 
ATOM     16  C   UNL     1       1.785   3.955  19.498  0.00  0.00    +0.000 A 
ATOM     17  F   UNL     1       1.315   4.721  18.501  0.00  0.00    +0.000 F 
ENDBRANCH   9  11
ENDBRANCH   2   5
BRANCH   3  18
ATOM     18  C   UNL     1       3.385   8.089  17.002  0.00  0.00    +0.000 C 
BRANCH  18  19
ATOM     19  C   UNL     1       2.440   8.587  18.065  0.00  0.00    +0.000 A 
ATOM     20  C   UNL     1       1.791   9.832  17.902  0.00  0.00    +0.000 A 
ATOM     21  C   UNL     1       0.904  10.315  18.871  0.00  0.00    +0.000 A 
ATOM     22  C   UNL     1       0.699   9.544  19.993  0.00  0.00    +0.000 A 
ATOM     23  C   UNL     1       1.338   8.339  20.170  0.00  0.00    +0.000 A 
ATOM     24  C   UNL     1       2.213   7.836  19.230  0.00  0.00    +0.000 A 
ATOM     25  O   UNL     1       1.001   7.741  21.344  0.00  0.00    +0.000 OA
ATOM     26  C   UNL     1       0.109   8.728  21.904  0.00  0.00    +0.000 C 
ATOM     27  O   UNL     1      -0.120   9.854  21.033  0.00  0.00    +0.000 OA
ENDBRANCH  18  19
ENDBRANCH   3  18
TORSDOF 4
ENDMDL
