MODEL 1
REMARK VINA RESULT:      -8.7      0.000      0.000
REMARK  Name = 
REMARK  8 active torsions:
REMARK  status: ('A' for Active; 'I' for Inactive)
REMARK    1  A    between atoms: C_1  and  N_2
REMARK    2  A    between atoms: C_6  and  N_7
REMARK    3  A    between atoms: C_8  and  C_9
REMARK    4  A    between atoms: C_9  and  C_10
REMARK    5  A    between atoms: C_14  and  N_15
REMARK    6  A    between atoms: C_20  and  C_21
REMARK    7  A    between atoms: C_21  and  N_22
REMARK    8  A    between atoms: C_24  and  C_25
REMARK                            x       y       z     vdW  Elec       q    Type
REMARK                         _______ _______ _______ _____ _____    ______ ____
ROOT
ATOM      1  N   UNL     1       4.198   4.418  18.991  0.00  0.00    +0.000 N 
ATOM      2  C   UNL     1       5.526   5.060  19.156  0.00  0.00    +0.000 C 
ATOM      3  C   UNL     1       6.073   5.018  17.762  0.00  0.00    +0.000 A 
ATOM      4  C   UNL     1       5.483   3.929  17.118  0.00  0.00    +0.000 A 
ATOM      5  C   UNL     1       5.647   3.666  15.768  0.00  0.00    +0.000 A 
ATOM      6  C   UNL     1       6.429   4.557  15.023  0.00  0.00    +0.000 A 
ATOM      7  C   UNL     1       7.022   5.670  15.671  0.00  0.00    +0.000 A 
ATOM      8  C   UNL     1       6.849   5.928  17.050  0.00  0.00    +0.000 A 
ATOM      9  C   UNL     1       4.388   3.431  17.987  0.00  0.00    +0.000 C 
ATOM     10  O   UNL     1       3.694   2.467  17.725  0.00  0.00    +0.000 OA
ENDROOT
BRANCH   1  15
ATOM     11  C   UNL     1       1.912   7.098  19.908  0.00  0.00    +0.000 A 
ATOM     12  C   UNL     1       2.349   8.062  18.991  0.00  0.00    +0.000 A 
ATOM     13  C   UNL     1       3.049   7.680  17.849  0.00  0.00    +0.000 A 
ATOM     14  C   UNL     1       3.414   6.351  17.669  0.00  0.00    +0.000 A 
ATOM     15  C   UNL     1       3.184   5.427  18.700  0.00  0.00    +0.000 A 
ATOM     16  C   UNL     1       2.284   5.760  19.722  0.00  0.00    +0.000 A 
BRANCH  11  17
ATOM     17  C   UNL     1       1.153   7.522  21.138  0.00  0.00    +0.000 C 
BRANCH  17  19
ATOM     18  N   UNL     1       0.129   9.722  20.894  0.00  0.00    +0.000 NA
ATOM     19  C   UNL     1       1.133   9.015  21.312  0.00  0.00    +0.000 C 
BRANCH  18  25
ATOM     20  C   UNL     1       1.096  11.416  18.667  0.00  0.00    +0.000 C 
ATOM     21  N   UNL     1       0.792  11.834  20.007  0.00  0.00    +0.000 N 
ATOM     22  C   UNL     1       0.942  13.091  20.505  0.00  0.00    +0.000 A 
ATOM     23  N   UNL     1       0.542  13.120  21.754  0.00  0.00    +0.000 NA
ATOM     24  N   UNL     1       0.146  11.848  22.083  0.00  0.00    +0.000 NA
ATOM     25  C   UNL     1       0.314  11.057  21.034  0.00  0.00    +0.000 A 
ENDBRANCH  18  25
ENDBRANCH  17  19
ENDBRANCH  11  17
ENDBRANCH   1  15
BRANCH   8  26
ATOM     26  C   UNL     1       7.407   7.195  17.641  0.00  0.00    +0.000 C 
ATOM     27  F   UNL     1       8.284   7.851  16.832  0.00  0.00    +0.000 F 
ATOM     28  F   UNL     1       6.434   8.100  17.934  0.00  0.00    +0.000 F 
ATOM     29  F   UNL     1       8.080   6.978  18.805  0.00  0.00    +0.000 F 
ENDBRANCH   8  26
BRANCH   6  30
ATOM     30  C   UNL     1       6.600   4.364  13.534  0.00  0.00    +0.000 C 
BRANCH  30  31
ATOM     31  N   UNL     1       6.170   3.037  13.109  0.00  0.00    +0.000 NA
ATOM     32  H   UNL     1       6.848   2.347  13.427  0.00  0.00    +0.000 HD
ATOM     33  H   UNL     1       6.183   2.995  12.090  0.00  0.00    +0.000 HD
ENDBRANCH  30  31
ENDBRANCH   6  30
TORSDOF 7
ENDMDL
MODEL 2
REMARK VINA RESULT:      -8.6      0.811      1.380
REMARK  Name = 
REMARK  8 active torsions:
REMARK  status: ('A' for Active; 'I' for Inactive)
REMARK    1  A    between atoms: C_1  and  N_2
REMARK    2  A    between atoms: C_6  and  N_7
REMARK    3  A    between atoms: C_8  and  C_9
REMARK    4  A    between atoms: C_9  and  C_10
REMARK    5  A    between atoms: C_14  and  N_15
REMARK    6  A    between atoms: C_20  and  C_21
REMARK    7  A    between atoms: C_21  and  N_22
REMARK    8  A    between atoms: C_24  and  C_25
REMARK                            x       y       z     vdW  Elec       q    Type
REMARK                         _______ _______ _______ _____ _____    ______ ____
ROOT
ATOM      1  N   UNL     1       4.156   4.507  19.100  0.00  0.00    +0.000 N 
ATOM      2  C   UNL     1       5.490   5.142  19.232  0.00  0.00    +0.000 C 
ATOM      3  C   UNL     1       6.034   5.029  17.840  0.00  0.00    +0.000 A 
ATOM      4  C   UNL     1       5.431   3.916  17.250  0.00  0.00    +0.000 A 
ATOM      5  C   UNL     1       5.589   3.588  15.914  0.00  0.00    +0.000 A 
ATOM      6  C   UNL     1       6.378   4.433  15.125  0.00  0.00    +0.000 A 
ATOM      7  C   UNL     1       6.984   5.571  15.718  0.00  0.00    +0.000 A 
ATOM      8  C   UNL     1       6.816   5.895  17.084  0.00  0.00    +0.000 A 
ATOM      9  C   UNL     1       4.333   3.471  18.144  0.00  0.00    +0.000 C 
ATOM     10  O   UNL     1       3.629   2.502  17.929  0.00  0.00    +0.000 OA
ENDROOT
BRANCH   1  15
ATOM     11  C   UNL     1       1.876   7.230  19.899  0.00  0.00    +0.000 A 
ATOM     12  C   UNL     1       2.329   8.159  18.954  0.00  0.00    +0.000 A 
ATOM     13  C   UNL     1       3.039   7.734  17.833  0.00  0.00    +0.000 A 
ATOM     14  C   UNL     1       3.398   6.397  17.703  0.00  0.00    +0.000 A 
ATOM     15  C   UNL     1       3.151   5.511  18.763  0.00  0.00    +0.000 A 
ATOM     16  C   UNL     1       2.242   5.884  19.763  0.00  0.00    +0.000 A 
BRANCH  11  17
ATOM     17  C   UNL     1       1.106   7.701  21.105  0.00  0.00    +0.000 C 
BRANCH  17  19
ATOM     18  N   UNL     1       0.162   9.821  21.852  0.00  0.00    +0.000 NA
ATOM     19  C   UNL     1       1.125   9.197  21.247  0.00  0.00    +0.000 C 
BRANCH  18  25
ATOM     20  C   UNL     1      -1.858  11.620  23.057  0.00  0.00    +0.000 C 
ATOM     21  N   UNL     1      -0.675  12.002  22.337  0.00  0.00    +0.000 N 
ATOM     22  C   UNL     1      -0.295  13.274  22.041  0.00  0.00    +0.000 A 
ATOM     23  N   UNL     1       0.850  13.254  21.401  0.00  0.00    +0.000 NA
ATOM     24  N   UNL     1       1.211  11.938  21.256  0.00  0.00    +0.000 NA
ATOM     25  C   UNL     1       0.281  11.171  21.804  0.00  0.00    +0.000 A 
ENDBRANCH  18  25
ENDBRANCH  17  19
ENDBRANCH  11  17
ENDBRANCH   1  15
BRANCH   8  26
ATOM     26  C   UNL     1       7.388   7.184  17.612  0.00  0.00    +0.000 C 
ATOM     27  F   UNL     1       6.456   8.128  17.914  0.00  0.00    +0.000 F 
ATOM     28  F   UNL     1       8.106   7.000  18.754  0.00  0.00    +0.000 F 
ATOM     29  F   UNL     1       8.236   7.781  16.729  0.00  0.00    +0.000 F 
ENDBRANCH   8  26
BRANCH   6  30
ATOM     30  C   UNL     1       6.544   4.168  13.647  0.00  0.00    +0.000 C 
BRANCH  30  31
ATOM     31  N   UNL     1       5.305   3.691  13.043  0.00  0.00    +0.000 NA
ATOM     32  H   UNL     1       4.749   4.489  12.742  0.00  0.00    +0.000 HD
ATOM     33  H   UNL     1       4.750   3.215  13.754  0.00  0.00    +0.000 HD
ENDBRANCH  30  31
ENDBRANCH   6  30
TORSDOF 7
ENDMDL
MODEL 3
REMARK VINA RESULT:      -8.6      1.166      1.383
REMARK  Name = 
REMARK  8 active torsions:
REMARK  status: ('A' for Active; 'I' for Inactive)
REMARK    1  A    between atoms: C_1  and  N_2
REMARK    2  A    between atoms: C_6  and  N_7
REMARK    3  A    between atoms: C_8  and  C_9
REMARK    4  A    between atoms: C_9  and  C_10
REMARK    5  A    between atoms: C_14  and  N_15
REMARK    6  A    between atoms: C_20  and  C_21
REMARK    7  A    between atoms: C_21  and  N_22
REMARK    8  A    between atoms: C_24  and  C_25
REMARK                            x       y       z     vdW  Elec       q    Type
REMARK                         _______ _______ _______ _____ _____    ______ ____
ROOT
ATOM      1  N   UNL     1       4.055   4.557  19.222  0.00  0.00    +0.000 N 
ATOM      2  C   UNL     1       5.403   5.171  19.315  0.00  0.00    +0.000 C 
ATOM      3  C   UNL     1       5.924   5.006  17.921  0.00  0.00    +0.000 A 
ATOM      4  C   UNL     1       5.292   3.887  17.373  0.00  0.00    +0.000 A 
ATOM      5  C   UNL     1       5.424   3.516  16.045  0.00  0.00    +0.000 A 
ATOM      6  C   UNL     1       6.217   4.323  15.220  0.00  0.00    +0.000 A 
ATOM      7  C   UNL     1       6.852   5.466  15.770  0.00  0.00    +0.000 A 
ATOM      8  C   UNL     1       6.711   5.835  17.127  0.00  0.00    +0.000 A 
ATOM      9  C   UNL     1       4.200   3.490  18.295  0.00  0.00    +0.000 C 
ATOM     10  O   UNL     1       3.475   2.529  18.121  0.00  0.00    +0.000 OA
ENDROOT
BRANCH   1  15
ATOM     11  C   UNL     1       2.023   7.500  19.897  0.00  0.00    +0.000 A 
ATOM     12  C   UNL     1       2.397   8.266  18.785  0.00  0.00    +0.000 A 
ATOM     13  C   UNL     1       2.941   7.652  17.659  0.00  0.00    +0.000 A 
ATOM     14  C   UNL     1       3.217   6.290  17.675  0.00  0.00    +0.000 A 
ATOM     15  C   UNL     1       3.064   5.569  18.869  0.00  0.00    +0.000 A 
ATOM     16  C   UNL     1       2.306   6.129  19.907  0.00  0.00    +0.000 A 
BRANCH  11  17
ATOM     17  C   UNL     1       1.433   8.175  21.108  0.00  0.00    +0.000 C 
BRANCH  17  19
ATOM     18  N   UNL     1      -0.398   9.603  20.364  0.00  0.00    +0.000 NA
ATOM     19  C   UNL     1       0.827   9.511  20.780  0.00  0.00    +0.000 C 
BRANCH  18  25
ATOM     20  C   UNL     1      -1.694  10.210  17.772  0.00  0.00    +0.000 C 
ATOM     21  N   UNL     1      -1.329  11.145  18.800  0.00  0.00    +0.000 N 
ATOM     22  C   UNL     1      -1.476  12.496  18.740  0.00  0.00    +0.000 A 
ATOM     23  N   UNL     1      -1.065  13.033  19.864  0.00  0.00    +0.000 NA
ATOM     24  N   UNL     1      -0.618  12.011  20.663  0.00  0.00    +0.000 NA
ATOM     25  C   UNL     1      -0.756  10.863  20.016  0.00  0.00    +0.000 A 
ENDBRANCH  18  25
ENDBRANCH  17  19
ENDBRANCH  11  17
ENDBRANCH   1  15
BRANCH   8  26
ATOM     26  C   UNL     1       7.314   7.127  17.608  0.00  0.00    +0.000 C 
ATOM     27  F   UNL     1       8.025   7.018  18.764  0.00  0.00    +0.000 F 
ATOM     28  F   UNL     1       8.174   7.665  16.700  0.00  0.00    +0.000 F 
ATOM     29  F   UNL     1       6.376   8.085  17.849  0.00  0.00    +0.000 F 
ENDBRANCH   8  26
BRANCH   6  30
ATOM     30  C   UNL     1       6.356   4.010  13.749  0.00  0.00    +0.000 C 
BRANCH  30  31
ATOM     31  N   UNL     1       7.390   4.825  13.119  0.00  0.00    +0.000 NA
ATOM     32  H   UNL     1       7.116   5.031  12.161  0.00  0.00    +0.000 HD
ATOM     33  H   UNL     1       8.248   4.278  13.054  0.00  0.00    +0.000 HD
ENDBRANCH  30  31
ENDBRANCH   6  30
TORSDOF 7
ENDMDL
MODEL 4
REMARK VINA RESULT:      -8.6      1.070      1.483
REMARK  Name = 
REMARK  8 active torsions:
REMARK  status: ('A' for Active; 'I' for Inactive)
REMARK    1  A    between atoms: C_1  and  N_2
REMARK    2  A    between atoms: C_6  and  N_7
REMARK    3  A    between atoms: C_8  and  C_9
REMARK    4  A    between atoms: C_9  and  C_10
REMARK    5  A    between atoms: C_14  and  N_15
REMARK    6  A    between atoms: C_20  and  C_21
REMARK    7  A    between atoms: C_21  and  N_22
REMARK    8  A    between atoms: C_24  and  C_25
REMARK                            x       y       z     vdW  Elec       q    Type
REMARK                         _______ _______ _______ _____ _____    ______ ____
ROOT
ATOM      1  N   UNL     1       4.156   4.582  18.992  0.00  0.00    +0.000 N 
ATOM      2  C   UNL     1       5.487   5.211  19.183  0.00  0.00    +0.000 C 
ATOM      3  C   UNL     1       6.082   5.116  17.811  0.00  0.00    +0.000 A 
ATOM      4  C   UNL     1       5.498   4.014  17.182  0.00  0.00    +0.000 A 
ATOM      5  C   UNL     1       5.705   3.706  15.848  0.00  0.00    +0.000 A 
ATOM      6  C   UNL     1       6.527   4.560  15.103  0.00  0.00    +0.000 A 
ATOM      7  C   UNL     1       7.113   5.686  15.735  0.00  0.00    +0.000 A 
ATOM      8  C   UNL     1       6.895   5.991  17.098  0.00  0.00    +0.000 A 
ATOM      9  C   UNL     1       4.366   3.560  18.027  0.00  0.00    +0.000 C 
ATOM     10  O   UNL     1       3.667   2.598  17.772  0.00  0.00    +0.000 OA
ENDROOT
BRANCH   1  15
ATOM     11  C   UNL     1       2.081   7.495  19.672  0.00  0.00    +0.000 A 
ATOM     12  C   UNL     1       2.482   8.288  18.590  0.00  0.00    +0.000 A 
ATOM     13  C   UNL     1       3.064   7.705  17.467  0.00  0.00    +0.000 A 
ATOM     14  C   UNL     1       3.351   6.344  17.460  0.00  0.00    +0.000 A 
ATOM     15  C   UNL     1       3.168   5.595  18.632  0.00  0.00    +0.000 A 
ATOM     16  C   UNL     1       2.374   6.125  19.659  0.00  0.00    +0.000 A 
BRANCH  11  17
ATOM     17  C   UNL     1       1.450   8.136  20.880  0.00  0.00    +0.000 C 
BRANCH  17  19
ATOM     18  N   UNL     1      -0.015  10.007  21.430  0.00  0.00    +0.000 NA
ATOM     19  C   UNL     1       0.664   9.369  20.528  0.00  0.00    +0.000 C 
BRANCH  18  25
ATOM     20  C   UNL     1      -1.731  11.699  23.149  0.00  0.00    +0.000 C 
ATOM     21  N   UNL     1      -1.565  11.796  21.726  0.00  0.00    +0.000 N 
ATOM     22  C   UNL     1      -2.211  12.665  20.903  0.00  0.00    +0.000 A 
ATOM     23  N   UNL     1      -1.796  12.495  19.671  0.00  0.00    +0.000 NA
ATOM     24  N   UNL     1      -0.877  11.476  19.688  0.00  0.00    +0.000 NA
ATOM     25  C   UNL     1      -0.746  11.032  20.929  0.00  0.00    +0.000 A 
ENDBRANCH  18  25
ENDBRANCH  17  19
ENDBRANCH  11  17
ENDBRANCH   1  15
BRANCH   8  26
ATOM     26  C   UNL     1       7.451   7.269  17.667  0.00  0.00    +0.000 C 
ATOM     27  F   UNL     1       8.301   7.930  16.834  0.00  0.00    +0.000 F 
ATOM     28  F   UNL     1       6.474   8.164  17.976  0.00  0.00    +0.000 F 
ATOM     29  F   UNL     1       8.153   7.069  18.817  0.00  0.00    +0.000 F 
ENDBRANCH   8  26
BRANCH   6  30
ATOM     30  C   UNL     1       6.747   4.317  13.628  0.00  0.00    +0.000 C 
BRANCH  30  31
ATOM     31  N   UNL     1       6.108   3.083  13.184  0.00  0.00    +0.000 NA
ATOM     32  H   UNL     1       5.396   2.812  13.859  0.00  0.00    +0.000 HD
ATOM     33  H   UNL     1       6.798   2.332  13.187  0.00  0.00    +0.000 HD
ENDBRANCH  30  31
ENDBRANCH   6  30
TORSDOF 7
ENDMDL
MODEL 5
REMARK VINA RESULT:      -8.4      0.804      1.050
REMARK  Name = 
REMARK  8 active torsions:
REMARK  status: ('A' for Active; 'I' for Inactive)
REMARK    1  A    between atoms: C_1  and  N_2
REMARK    2  A    between atoms: C_6  and  N_7
REMARK    3  A    between atoms: C_8  and  C_9
REMARK    4  A    between atoms: C_9  and  C_10
REMARK    5  A    between atoms: C_14  and  N_15
REMARK    6  A    between atoms: C_20  and  C_21
REMARK    7  A    between atoms: C_21  and  N_22
REMARK    8  A    between atoms: C_24  and  C_25
REMARK                            x       y       z     vdW  Elec       q    Type
REMARK                         _______ _______ _______ _____ _____    ______ ____
ROOT
ATOM      1  N   UNL     1       4.077   4.555  19.163  0.00  0.00    +0.000 N 
ATOM      2  C   UNL     1       5.418   5.175  19.306  0.00  0.00    +0.000 C 
ATOM      3  C   UNL     1       5.966   5.067  17.916  0.00  0.00    +0.000 A 
ATOM      4  C   UNL     1       5.354   3.966  17.314  0.00  0.00    +0.000 A 
ATOM      5  C   UNL     1       5.514   3.647  15.976  0.00  0.00    +0.000 A 
ATOM      6  C   UNL     1       6.317   4.490  15.198  0.00  0.00    +0.000 A 
ATOM      7  C   UNL     1       6.932   5.616  15.803  0.00  0.00    +0.000 A 
ATOM      8  C   UNL     1       6.762   5.931  17.170  0.00  0.00    +0.000 A 
ATOM      9  C   UNL     1       4.247   3.525  18.199  0.00  0.00    +0.000 C 
ATOM     10  O   UNL     1       3.533   2.567  17.974  0.00  0.00    +0.000 OA
ENDROOT
BRANCH   1  15
ATOM     11  C   UNL     1       2.006   7.453  19.912  0.00  0.00    +0.000 A 
ATOM     12  C   UNL     1       2.397   8.266  18.840  0.00  0.00    +0.000 A 
ATOM     13  C   UNL     1       2.969   7.702  17.702  0.00  0.00    +0.000 A 
ATOM     14  C   UNL     1       3.257   6.343  17.669  0.00  0.00    +0.000 A 
ATOM     15  C   UNL     1       3.085   5.574  18.830  0.00  0.00    +0.000 A 
ATOM     16  C   UNL     1       2.300   6.085  19.873  0.00  0.00    +0.000 A 
BRANCH  11  17
ATOM     17  C   UNL     1       1.385   8.074  21.136  0.00  0.00    +0.000 C 
BRANCH  17  19
ATOM     18  N   UNL     1       1.017  10.470  21.398  0.00  0.00    +0.000 NA
ATOM     19  C   UNL     1       0.670   9.359  20.826  0.00  0.00    +0.000 C 
BRANCH  18  25
ATOM     20  C   UNL     1       1.744  12.461  19.331  0.00  0.00    +0.000 C 
ATOM     21  N   UNL     1       0.564  12.451  20.149  0.00  0.00    +0.000 N 
ATOM     22  C   UNL     1      -0.418  13.393  20.147  0.00  0.00    +0.000 A 
ATOM     23  N   UNL     1      -1.357  13.051  20.997  0.00  0.00    +0.000 NA
ATOM     24  N   UNL     1      -0.967  11.873  21.582  0.00  0.00    +0.000 NA
ATOM     25  C   UNL     1       0.208  11.512  21.087  0.00  0.00    +0.000 A 
ENDBRANCH  18  25
ENDBRANCH  17  19
ENDBRANCH  11  17
ENDBRANCH   1  15
BRANCH   8  26
ATOM     26  C   UNL     1       7.346   7.208  17.712  0.00  0.00    +0.000 C 
ATOM     27  F   UNL     1       8.046   7.057  18.869  0.00  0.00    +0.000 F 
ATOM     28  F   UNL     1       8.208   7.794  16.837  0.00  0.00    +0.000 F 
ATOM     29  F   UNL     1       6.395   8.145  17.984  0.00  0.00    +0.000 F 
ENDBRANCH   8  26
BRANCH   6  30
ATOM     30  C   UNL     1       6.486   4.236  13.719  0.00  0.00    +0.000 C 
BRANCH  30  31
ATOM     31  N   UNL     1       7.469   5.135  13.125  0.00  0.00    +0.000 NA
ATOM     32  H   UNL     1       8.373   4.984  13.569  0.00  0.00    +0.000 HD
ATOM     33  H   UNL     1       7.209   6.098  13.339  0.00  0.00    +0.000 HD
ENDBRANCH  30  31
ENDBRANCH   6  30
TORSDOF 7
ENDMDL
MODEL 6
REMARK VINA RESULT:      -8.4      0.843      1.096
REMARK  Name = 
REMARK  8 active torsions:
REMARK  status: ('A' for Active; 'I' for Inactive)
REMARK    1  A    between atoms: C_1  and  N_2
REMARK    2  A    between atoms: C_6  and  N_7
REMARK    3  A    between atoms: C_8  and  C_9
REMARK    4  A    between atoms: C_9  and  C_10
REMARK    5  A    between atoms: C_14  and  N_15
REMARK    6  A    between atoms: C_20  and  C_21
REMARK    7  A    between atoms: C_21  and  N_22
REMARK    8  A    between atoms: C_24  and  C_25
REMARK                            x       y       z     vdW  Elec       q    Type
REMARK                         _______ _______ _______ _____ _____    ______ ____
ROOT
ATOM      1  N   UNL     1       4.086   4.541  19.191  0.00  0.00    +0.000 N 
ATOM      2  C   UNL     1       5.432   5.160  19.280  0.00  0.00    +0.000 C 
ATOM      3  C   UNL     1       5.943   5.014  17.879  0.00  0.00    +0.000 A 
ATOM      4  C   UNL     1       5.311   3.899  17.323  0.00  0.00    +0.000 A 
ATOM      5  C   UNL     1       5.434   3.544  15.990  0.00  0.00    +0.000 A 
ATOM      6  C   UNL     1       6.217   4.364  15.169  0.00  0.00    +0.000 A 
ATOM      7  C   UNL     1       6.851   5.503  15.727  0.00  0.00    +0.000 A 
ATOM      8  C   UNL     1       6.720   5.855  17.090  0.00  0.00    +0.000 A 
ATOM      9  C   UNL     1       4.228   3.485  18.249  0.00  0.00    +0.000 C 
ATOM     10  O   UNL     1       3.506   2.524  18.069  0.00  0.00    +0.000 OA
ENDROOT
BRANCH   1  15
ATOM     11  C   UNL     1       1.902   7.344  19.978  0.00  0.00    +0.000 A 
ATOM     12  C   UNL     1       2.330   8.224  18.977  0.00  0.00    +0.000 A 
ATOM     13  C   UNL     1       2.980   7.739  17.844  0.00  0.00    +0.000 A 
ATOM     14  C   UNL     1       3.305   6.391  17.752  0.00  0.00    +0.000 A 
ATOM     15  C   UNL     1       3.088   5.553  18.857  0.00  0.00    +0.000 A 
ATOM     16  C   UNL     1       2.233   5.987  19.881  0.00  0.00    +0.000 A 
BRANCH  11  17
ATOM     17  C   UNL     1       1.197   7.880  21.197  0.00  0.00    +0.000 C 
BRANCH  17  19
ATOM     18  N   UNL     1       0.041   9.970  20.706  0.00  0.00    +0.000 NA
ATOM     19  C   UNL     1       1.092   9.379  21.184  0.00  0.00    +0.000 C 
BRANCH  18  25
ATOM     20  C   UNL     1      -1.934  11.672  19.304  0.00  0.00    +0.000 C 
ATOM     21  N   UNL     1      -0.753  12.105  19.997  0.00  0.00    +0.000 N 
ATOM     22  C   UNL     1      -0.306  13.386  20.092  0.00  0.00    +0.000 A 
ATOM     23  N   UNL     1       0.784  13.419  20.821  0.00  0.00    +0.000 NA
ATOM     24  N   UNL     1       1.066  12.127  21.189  0.00  0.00    +0.000 NA
ATOM     25  C   UNL     1       0.149  11.321  20.675  0.00  0.00    +0.000 A 
ENDBRANCH  18  25
ENDBRANCH  17  19
ENDBRANCH  11  17
ENDBRANCH   1  15
BRANCH   8  26
ATOM     26  C   UNL     1       7.321   7.144  17.581  0.00  0.00    +0.000 C 
ATOM     27  F   UNL     1       6.413   8.127  17.829  0.00  0.00    +0.000 F 
ATOM     28  F   UNL     1       8.011   6.982  18.743  0.00  0.00    +0.000 F 
ATOM     29  F   UNL     1       8.204   7.682  16.694  0.00  0.00    +0.000 F 
ENDBRANCH   8  26
BRANCH   6  30
ATOM     30  C   UNL     1       6.345   4.070  13.693  0.00  0.00    +0.000 C 
BRANCH  30  31
ATOM     31  N   UNL     1       7.406   4.859  13.075  0.00  0.00    +0.000 NA
ATOM     32  H   UNL     1       8.309   4.495  13.372  0.00  0.00    +0.000 HD
ATOM     33  H   UNL     1       7.357   5.814  13.429  0.00  0.00    +0.000 HD
ENDBRANCH  30  31
ENDBRANCH   6  30
TORSDOF 7
ENDMDL
MODEL 7
REMARK VINA RESULT:      -8.4      3.655      8.369
REMARK  Name = 
REMARK  8 active torsions:
REMARK  status: ('A' for Active; 'I' for Inactive)
REMARK    1  A    between atoms: C_1  and  N_2
REMARK    2  A    between atoms: C_6  and  N_7
REMARK    3  A    between atoms: C_8  and  C_9
REMARK    4  A    between atoms: C_9  and  C_10
REMARK    5  A    between atoms: C_14  and  N_15
REMARK    6  A    between atoms: C_20  and  C_21
REMARK    7  A    between atoms: C_21  and  N_22
REMARK    8  A    between atoms: C_24  and  C_25
REMARK                            x       y       z     vdW  Elec       q    Type
REMARK                         _______ _______ _______ _____ _____    ______ ____
ROOT
ATOM      1  N   UNL     1       2.580   7.463  19.397  0.00  0.00    +0.000 N 
ATOM      2  C   UNL     1       2.243   8.268  20.598  0.00  0.00    +0.000 C 
ATOM      3  C   UNL     1       1.113   9.118  20.104  0.00  0.00    +0.000 A 
ATOM      4  C   UNL     1       1.281   9.269  18.725  0.00  0.00    +0.000 A 
ATOM      5  C   UNL     1       0.342   9.879  17.909  0.00  0.00    +0.000 A 
ATOM      6  C   UNL     1      -0.835  10.343  18.507  0.00  0.00    +0.000 A 
ATOM      7  C   UNL     1      -1.015  10.181  19.905  0.00  0.00    +0.000 A 
ATOM      8  C   UNL     1      -0.049   9.559  20.728  0.00  0.00    +0.000 A 
ATOM      9  C   UNL     1       2.346   8.330  18.295  0.00  0.00    +0.000 C 
ATOM     10  O   UNL     1       2.754   8.237  17.153  0.00  0.00    +0.000 OA
ENDROOT
BRANCH   1  15
ATOM     11  C   UNL     1       2.061   3.961  18.556  0.00  0.00    +0.000 A 
ATOM     12  C   UNL     1       1.800   3.478  19.844  0.00  0.00    +0.000 A 
ATOM     13  C   UNL     1       1.380   4.346  20.850  0.00  0.00    +0.000 A 
ATOM     14  C   UNL     1       1.326   5.714  20.609  0.00  0.00    +0.000 A 
ATOM     15  C   UNL     1       1.815   6.220  19.395  0.00  0.00    +0.000 A 
ATOM     16  C   UNL     1       2.006   5.340  18.320  0.00  0.00    +0.000 A 
BRANCH  11  17
ATOM     17  C   UNL     1       2.511   3.012  17.476  0.00  0.00    +0.000 C 
BRANCH  17  19
ATOM     18  N   UNL     1       4.839   3.323  16.823  0.00  0.00    +0.000 NA
ATOM     19  C   UNL     1       3.590   3.599  16.610  0.00  0.00    +0.000 C 
BRANCH  18  25
ATOM     20  C   UNL     1       7.257   4.666  17.881  0.00  0.00    +0.000 C 
ATOM     21  N   UNL     1       6.792   4.660  16.522  0.00  0.00    +0.000 N 
ATOM     22  C   UNL     1       7.365   5.318  15.478  0.00  0.00    +0.000 A 
ATOM     23  N   UNL     1       6.695   5.067  14.379  0.00  0.00    +0.000 NA
ATOM     24  N   UNL     1       5.648   4.248  14.719  0.00  0.00    +0.000 NA
ATOM     25  C   UNL     1       5.688   4.013  16.022  0.00  0.00    +0.000 A 
ENDBRANCH  18  25
ENDBRANCH  17  19
ENDBRANCH  11  17
ENDBRANCH   1  15
BRANCH   8  26
ATOM     26  C   UNL     1      -0.364   9.314  22.180  0.00  0.00    +0.000 C 
ATOM     27  F   UNL     1      -0.947   8.110  22.431  0.00  0.00    +0.000 F 
ATOM     28  F   UNL     1       0.749   9.351  22.962  0.00  0.00    +0.000 F 
ATOM     29  F   UNL     1      -1.215  10.244  22.695  0.00  0.00    +0.000 F 
ENDBRANCH   8  26
BRANCH   6  30
ATOM     30  C   UNL     1      -1.927  10.963  17.667  0.00  0.00    +0.000 C 
BRANCH  30  31
ATOM     31  N   UNL     1      -1.557  12.294  17.198  0.00  0.00    +0.000 NA
ATOM     32  H   UNL     1      -2.370  12.904  17.248  0.00  0.00    +0.000 HD
ATOM     33  H   UNL     1      -1.307  12.239  16.211  0.00  0.00    +0.000 HD
ENDBRANCH  30  31
ENDBRANCH   6  30
TORSDOF 7
ENDMDL
MODEL 8
REMARK VINA RESULT:      -8.4      4.411      6.779
REMARK  Name = 
REMARK  8 active torsions:
REMARK  status: ('A' for Active; 'I' for Inactive)
REMARK    1  A    between atoms: C_1  and  N_2
REMARK    2  A    between atoms: C_6  and  N_7
REMARK    3  A    between atoms: C_8  and  C_9
REMARK    4  A    between atoms: C_9  and  C_10
REMARK    5  A    between atoms: C_14  and  N_15
REMARK    6  A    between atoms: C_20  and  C_21
REMARK    7  A    between atoms: C_21  and  N_22
REMARK    8  A    between atoms: C_24  and  C_25
REMARK                            x       y       z     vdW  Elec       q    Type
REMARK                         _______ _______ _______ _____ _____    ______ ____
ROOT
ATOM      1  N   UNL     1       5.785   4.965  15.795  0.00  0.00    +0.000 N 
ATOM      2  C   UNL     1       4.613   5.858  15.967  0.00  0.00    +0.000 C 
ATOM      3  C   UNL     1       3.946   5.277  17.176  0.00  0.00    +0.000 A 
ATOM      4  C   UNL     1       4.274   3.920  17.217  0.00  0.00    +0.000 A 
ATOM      5  C   UNL     1       3.947   3.093  18.279  0.00  0.00    +0.000 A 
ATOM      6  C   UNL     1       3.274   3.665  19.365  0.00  0.00    +0.000 A 
ATOM      7  C   UNL     1       2.949   5.045  19.333  0.00  0.00    +0.000 A 
ATOM      8  C   UNL     1       3.286   5.879  18.243  0.00  0.00    +0.000 A 
ATOM      9  C   UNL     1       5.334   3.681  16.208  0.00  0.00    +0.000 C 
ATOM     10  O   UNL     1       5.819   2.591  15.972  0.00  0.00    +0.000 OA
ENDROOT
BRANCH   1  15
ATOM     11  C   UNL     1       7.560   7.552  17.640  0.00  0.00    +0.000 A 
ATOM     12  C   UNL     1       7.866   6.810  18.788  0.00  0.00    +0.000 A 
ATOM     13  C   UNL     1       7.872   5.418  18.745  0.00  0.00    +0.000 A 
ATOM     14  C   UNL     1       7.466   4.756  17.592  0.00  0.00    +0.000 A 
ATOM     15  C   UNL     1       6.933   5.494  16.525  0.00  0.00    +0.000 A 
ATOM     16  C   UNL     1       7.150   6.879  16.482  0.00  0.00    +0.000 A 
BRANCH  11  17
ATOM     17  C   UNL     1       7.560   9.057  17.698  0.00  0.00    +0.000 C 
BRANCH  17  19
ATOM     18  N   UNL     1       8.910  10.856  18.641  0.00  0.00    +0.000 NA
ATOM     19  C   UNL     1       8.821   9.607  18.302  0.00  0.00    +0.000 C 
BRANCH  18  25
ATOM     20  C   UNL     1       9.374  11.917  21.366  0.00  0.00    +0.000 C 
ATOM     21  N   UNL     1      10.350  11.732  20.329  0.00  0.00    +0.000 N 
ATOM     22  C   UNL     1      11.668  12.059  20.404  0.00  0.00    +0.000 A 
ATOM     23  N   UNL     1      12.269  11.725  19.287  0.00  0.00    +0.000 NA
ATOM     24  N   UNL     1      11.316  11.192  18.456  0.00  0.00    +0.000 NA
ATOM     25  C   UNL     1      10.144  11.211  19.074  0.00  0.00    +0.000 A 
ENDBRANCH  18  25
ENDBRANCH  17  19
ENDBRANCH  11  17
ENDBRANCH   1  15
BRANCH   8  26
ATOM     26  C   UNL     1       3.017   7.357  18.333  0.00  0.00    +0.000 C 
ATOM     27  F   UNL     1       2.621   7.780  19.565  0.00  0.00    +0.000 F 
ATOM     28  F   UNL     1       4.115   8.101  18.028  0.00  0.00    +0.000 F 
ATOM     29  F   UNL     1       2.038   7.765  17.479  0.00  0.00    +0.000 F 
ENDBRANCH   8  26
BRANCH   6  30
ATOM     30  C   UNL     1       2.941   2.834  20.583  0.00  0.00    +0.000 C 
BRANCH  30  31
ATOM     31  N   UNL     1       1.518   2.889  20.901  0.00  0.00    +0.000 NA
ATOM     32  H   UNL     1       1.075   2.022  20.604  0.00  0.00    +0.000 HD
ATOM     33  H   UNL     1       1.084   3.630  20.350  0.00  0.00    +0.000 HD
ENDBRANCH  30  31
ENDBRANCH   6  30
TORSDOF 7
ENDMDL
MODEL 9
REMARK VINA RESULT:      -8.2      4.062      6.601
REMARK  Name = 
REMARK  8 active torsions:
REMARK  status: ('A' for Active; 'I' for Inactive)
REMARK    1  A    between atoms: C_1  and  N_2
REMARK    2  A    between atoms: C_6  and  N_7
REMARK    3  A    between atoms: C_8  and  C_9
REMARK    4  A    between atoms: C_9  and  C_10
REMARK    5  A    between atoms: C_14  and  N_15
REMARK    6  A    between atoms: C_20  and  C_21
REMARK    7  A    between atoms: C_21  and  N_22
REMARK    8  A    between atoms: C_24  and  C_25
REMARK                            x       y       z     vdW  Elec       q    Type
REMARK                         _______ _______ _______ _____ _____    ______ ____
ROOT
ATOM      1  N   UNL     1       5.066   4.316  16.602  0.00  0.00    +0.000 N 
ATOM      2  C   UNL     1       4.058   5.402  16.521  0.00  0.00    +0.000 C 
ATOM      3  C   UNL     1       3.291   5.219  17.794  0.00  0.00    +0.000 A 
ATOM      4  C   UNL     1       3.386   3.870  18.144  0.00  0.00    +0.000 A 
ATOM      5  C   UNL     1       2.914   3.363  19.343  0.00  0.00    +0.000 A 
ATOM      6  C   UNL     1       2.334   4.262  20.246  0.00  0.00    +0.000 A 
ATOM      7  C   UNL     1       2.245   5.634  19.899  0.00  0.00    +0.000 A 
ATOM      8  C   UNL     1       2.729   6.141  18.672  0.00  0.00    +0.000 A 
ATOM      9  C   UNL     1       4.402   3.246  17.261  0.00  0.00    +0.000 C 
ATOM     10  O   UNL     1       4.700   2.067  17.291  0.00  0.00    +0.000 OA
ENDROOT
BRANCH   1  15
ATOM     11  C   UNL     1       7.380   6.924  17.646  0.00  0.00    +0.000 A 
ATOM     12  C   UNL     1       7.424   6.624  19.013  0.00  0.00    +0.000 A 
ATOM     13  C   UNL     1       7.059   5.358  19.467  0.00  0.00    +0.000 A 
ATOM     14  C   UNL     1       6.544   4.422  18.578  0.00  0.00    +0.000 A 
ATOM     15  C   UNL     1       6.279   4.802  17.254  0.00  0.00    +0.000 A 
ATOM     16  C   UNL     1       6.860   5.977  16.755  0.00  0.00    +0.000 A 
BRANCH  11  17
ATOM     17  C   UNL     1       7.781   8.295  17.166  0.00  0.00    +0.000 C 
BRANCH  17  19
ATOM     18  N   UNL     1       8.786  10.342  18.029  0.00  0.00    +0.000 NA
ATOM     19  C   UNL     1       8.390   9.128  18.258  0.00  0.00    +0.000 C 
BRANCH  18  25
ATOM     20  C   UNL     1      11.019  12.257  17.698  0.00  0.00    +0.000 C 
ATOM     21  N   UNL     1      10.460  11.781  18.932  0.00  0.00    +0.000 N 
ATOM     22  C   UNL     1      10.896  12.098  20.181  0.00  0.00    +0.000 A 
ATOM     23  N   UNL     1      10.137  11.509  21.074  0.00  0.00    +0.000 NA
ATOM     24  N   UNL     1       9.201  10.773  20.391  0.00  0.00    +0.000 NA
ATOM     25  C   UNL     1       9.404  10.917  19.090  0.00  0.00    +0.000 A 
ENDBRANCH  18  25
ENDBRANCH  17  19
ENDBRANCH  11  17
ENDBRANCH   1  15
BRANCH   8  26
ATOM     26  C   UNL     1       2.711   7.626  18.427  0.00  0.00    +0.000 C 
ATOM     27  F   UNL     1       1.848   8.022  17.452  0.00  0.00    +0.000 F 
ATOM     28  F   UNL     1       2.355   8.328  19.537  0.00  0.00    +0.000 F 
ATOM     29  F   UNL     1       3.928   8.109  18.052  0.00  0.00    +0.000 F 
ENDBRANCH   8  26
BRANCH   6  30
ATOM     30  C   UNL     1       1.853   3.786  21.597  0.00  0.00    +0.000 C 
BRANCH  30  31
ATOM     31  N   UNL     1       2.524   2.557  22.006  0.00  0.00    +0.000 NA
ATOM     32  H   UNL     1       2.727   1.995  21.182  0.00  0.00    +0.000 HD
ATOM     33  H   UNL     1       1.882   2.002  22.573  0.00  0.00    +0.000 HD
ENDBRANCH  30  31
ENDBRANCH   6  30
TORSDOF 7
ENDMDL
