MODEL 1
REMARK VINA RESULT:      -7.7      0.000      0.000
REMARK  Name = 
REMARK  5 active torsions:
REMARK  status: ('A' for Active; 'I' for Inactive)
REMARK    1  A    between atoms: C_1  and  C_2
REMARK    2  A    between atoms: C_2  and  C_3
REMARK    3  A    between atoms: C_7  and  C_8
REMARK    4  A    between atoms: C_12  and  O_13
REMARK    5  A    between atoms: C_15  and  O_16
REMARK                            x       y       z     vdW  Elec       q    Type
REMARK                         _______ _______ _______ _____ _____    ______ ____
ROOT
ATOM      1  C   UNL     1       5.130   5.051  17.143  0.00  0.00    +0.000 A 
ATOM      2  C   UNL     1       4.447   3.986  16.530  0.00  0.00    +0.000 A 
ATOM      3  C   UNL     1       3.160   3.630  16.937  0.00  0.00    +0.000 A 
ATOM      4  C   UNL     1       2.551   4.304  17.992  0.00  0.00    +0.000 A 
ATOM      5  C   UNL     1       3.213   5.363  18.623  0.00  0.00    +0.000 A 
ATOM      6  C   UNL     1       4.449   5.788  18.129  0.00  0.00    +0.000 A 
ENDROOT
BRANCH   1   8
ATOM      7  C   UNL     1       7.047   4.575  15.588  0.00  0.00    +0.000 C 
ATOM      8  C   UNL     1       6.559   5.423  16.754  0.00  0.00    +0.000 C 
ATOM      9  N   UNL     1       6.672   6.844  16.469  0.00  0.00    +0.000 N 
ATOM     10  C   UNL     1       7.327   7.541  17.456  0.00  0.00    +0.000 C 
ATOM     11  O   UNL     1       7.474   8.748  17.470  0.00  0.00    +0.000 OA
ATOM     12  N   UNL     1       7.796   6.659  18.362  0.00  0.00    +0.000 N 
ATOM     13  C   UNL     1       7.541   5.384  17.956  0.00  0.00    +0.000 C 
ATOM     14  O   UNL     1       8.001   4.387  18.495  0.00  0.00    +0.000 OA
ATOM     15  H   UNL     1       6.231   7.338  15.708  0.00  0.00    +0.000 HD
ATOM     16  H   UNL     1       8.390   6.911  19.132  0.00  0.00    +0.000 HD
ENDBRANCH   1   8
BRANCH   5  17
ATOM     17  C   UNL     1       2.551   6.017  19.782  0.00  0.00    +0.000 C 
ATOM     18  O   UNL     1       2.718   5.490  20.881  0.00  0.00    +0.000 OA
ATOM     19  N   UNL     1       1.818   7.200  19.623  0.00  0.00    +0.000 N 
ATOM     20  C   UNL     1       1.622   7.970  18.387  0.00  0.00    +0.000 C 
ATOM     21  C   UNL     1       1.984   9.454  18.533  0.00  0.00    +0.000 C 
ATOM     22  C   UNL     1       1.360  10.077  19.775  0.00  0.00    +0.000 C 
ATOM     23  C   UNL     1       1.678   9.245  21.015  0.00  0.00    +0.000 C 
ATOM     24  C   UNL     1       1.213   7.794  20.818  0.00  0.00    +0.000 C 
BRANCH  21  25
ATOM     25  O   UNL     1       1.571  10.175  17.375  0.00  0.00    +0.000 OA
ATOM     26  H   UNL     1       1.596  11.129  17.565  0.00  0.00    +0.000 HD
ENDBRANCH  21  25
BRANCH  23  27
ATOM     27  O   UNL     1       1.057   9.836  22.153  0.00  0.00    +0.000 OA
ATOM     28  H   UNL     1       1.629  10.547  22.487  0.00  0.00    +0.000 HD
ENDBRANCH  23  27
ENDBRANCH   5  17
TORSDOF 4
ENDMDL
MODEL 2
REMARK VINA RESULT:      -7.6      2.234      6.924
REMARK  Name = 
REMARK  5 active torsions:
REMARK  status: ('A' for Active; 'I' for Inactive)
REMARK    1  A    between atoms: C_1  and  C_2
REMARK    2  A    between atoms: C_2  and  C_3
REMARK    3  A    between atoms: C_7  and  C_8
REMARK    4  A    between atoms: C_12  and  O_13
REMARK    5  A    between atoms: C_15  and  O_16
REMARK                            x       y       z     vdW  Elec       q    Type
REMARK                         _______ _______ _______ _____ _____    ______ ____
ROOT
ATOM      1  C   UNL     1       1.683   8.474  19.062  0.00  0.00    +0.000 A 
ATOM      2  C   UNL     1       1.448   8.144  20.408  0.00  0.00    +0.000 A 
ATOM      3  C   UNL     1       1.785   6.884  20.907  0.00  0.00    +0.000 A 
ATOM      4  C   UNL     1       2.322   5.919  20.059  0.00  0.00    +0.000 A 
ATOM      5  C   UNL     1       2.558   6.221  18.713  0.00  0.00    +0.000 A 
ATOM      6  C   UNL     1       2.329   7.520  18.254  0.00  0.00    +0.000 A 
ENDROOT
BRANCH   1   8
ATOM      7  C   UNL     1       2.456  10.521  17.826  0.00  0.00    +0.000 C 
ATOM      8  C   UNL     1       1.271   9.824  18.479  0.00  0.00    +0.000 C 
ATOM      9  N   UNL     1       0.158   9.679  17.556  0.00  0.00    +0.000 N 
ATOM     10  C   UNL     1      -1.031  10.140  18.070  0.00  0.00    +0.000 C 
ATOM     11  O   UNL     1      -2.106  10.054  17.508  0.00  0.00    +0.000 OA
ATOM     12  N   UNL     1      -0.784  10.723  19.261  0.00  0.00    +0.000 N 
ATOM     13  C   UNL     1       0.554  10.735  19.513  0.00  0.00    +0.000 C 
ATOM     14  O   UNL     1       1.074  11.348  20.434  0.00  0.00    +0.000 OA
ATOM     15  H   UNL     1       0.172   9.190  16.674  0.00  0.00    +0.000 HD
ATOM     16  H   UNL     1      -1.476  11.219  19.795  0.00  0.00    +0.000 HD
ENDBRANCH   1   8
BRANCH   5  17
ATOM     17  C   UNL     1       3.077   5.144  17.830  0.00  0.00    +0.000 C 
ATOM     18  O   UNL     1       2.247   4.361  17.370  0.00  0.00    +0.000 OA
ATOM     19  N   UNL     1       4.438   5.066  17.510  0.00  0.00    +0.000 N 
ATOM     20  C   UNL     1       5.507   5.986  17.920  0.00  0.00    +0.000 C 
ATOM     21  C   UNL     1       6.337   6.516  16.744  0.00  0.00    +0.000 C 
ATOM     22  C   UNL     1       6.786   5.400  15.809  0.00  0.00    +0.000 C 
ATOM     23  C   UNL     1       5.597   4.542  15.382  0.00  0.00    +0.000 C 
ATOM     24  C   UNL     1       4.868   3.987  16.616  0.00  0.00    +0.000 C 
BRANCH  21  25
ATOM     25  O   UNL     1       7.476   7.223  17.228  0.00  0.00    +0.000 OA
ATOM     26  H   UNL     1       7.220   8.138  17.438  0.00  0.00    +0.000 HD
ENDBRANCH  21  25
BRANCH  23  27
ATOM     27  O   UNL     1       6.051   3.491  14.534  0.00  0.00    +0.000 OA
ATOM     28  H   UNL     1       6.443   3.882  13.735  0.00  0.00    +0.000 HD
ENDBRANCH  23  27
ENDBRANCH   5  17
TORSDOF 4
ENDMDL
MODEL 3
REMARK VINA RESULT:      -7.6      3.617      4.944
REMARK  Name = 
REMARK  5 active torsions:
REMARK  status: ('A' for Active; 'I' for Inactive)
REMARK    1  A    between atoms: C_1  and  C_2
REMARK    2  A    between atoms: C_2  and  C_3
REMARK    3  A    between atoms: C_7  and  C_8
REMARK    4  A    between atoms: C_12  and  O_13
REMARK    5  A    between atoms: C_15  and  O_16
REMARK                            x       y       z     vdW  Elec       q    Type
REMARK                         _______ _______ _______ _____ _____    ______ ____
ROOT
ATOM      1  C   UNL     1       2.547   5.796  19.078  0.00  0.00    +0.000 A 
ATOM      2  C   UNL     1       2.915   6.462  17.897  0.00  0.00    +0.000 A 
ATOM      3  C   UNL     1       2.744   7.842  17.768  0.00  0.00    +0.000 A 
ATOM      4  C   UNL     1       2.162   8.572  18.802  0.00  0.00    +0.000 A 
ATOM      5  C   UNL     1       1.780   7.929  19.985  0.00  0.00    +0.000 A 
ATOM      6  C   UNL     1       2.065   6.571  20.149  0.00  0.00    +0.000 A 
ENDROOT
BRANCH   1   8
ATOM      7  C   UNL     1       3.841   3.748  18.405  0.00  0.00    +0.000 C 
ATOM      8  C   UNL     1       2.671   4.280  19.221  0.00  0.00    +0.000 C 
ATOM      9  N   UNL     1       2.771   3.892  20.618  0.00  0.00    +0.000 N 
ATOM     10  C   UNL     1       1.622   3.308  21.098  0.00  0.00    +0.000 C 
ATOM     11  O   UNL     1       1.448   2.970  22.253  0.00  0.00    +0.000 OA
ATOM     12  N   UNL     1       0.764   3.146  20.070  0.00  0.00    +0.000 N 
ATOM     13  C   UNL     1       1.348   3.533  18.902  0.00  0.00    +0.000 C 
ATOM     14  O   UNL     1       0.865   3.338  17.795  0.00  0.00    +0.000 OA
ATOM     15  H   UNL     1       3.526   4.113  21.249  0.00  0.00    +0.000 HD
ATOM     16  H   UNL     1      -0.111   2.656  20.143  0.00  0.00    +0.000 HD
ENDBRANCH   1   8
BRANCH   5  17
ATOM     17  C   UNL     1       1.110   8.735  21.039  0.00  0.00    +0.000 C 
ATOM     18  O   UNL     1       1.492   8.556  22.196  0.00  0.00    +0.000 OA
ATOM     19  N   UNL     1       0.129   9.679  20.713  0.00  0.00    +0.000 N 
ATOM     20  C   UNL     1      -0.346  10.047  19.373  0.00  0.00    +0.000 C 
ATOM     21  C   UNL     1      -0.298  11.557  19.104  0.00  0.00    +0.000 C 
ATOM     22  C   UNL     1      -0.916  12.362  20.240  0.00  0.00    +0.000 C 
ATOM     23  C   UNL     1      -0.309  11.959  21.582  0.00  0.00    +0.000 C 
ATOM     24  C   UNL     1      -0.470  10.448  21.808  0.00  0.00    +0.000 C 
BRANCH  21  25
ATOM     25  O   UNL     1      -0.966  11.858  17.882  0.00  0.00    +0.000 OA
ATOM     26  H   UNL     1      -0.374  12.380  17.313  0.00  0.00    +0.000 HD
ENDBRANCH  21  25
BRANCH  23  27
ATOM     27  O   UNL     1      -0.927  12.707  22.624  0.00  0.00    +0.000 OA
ATOM     28  H   UNL     1      -1.857  12.863  22.388  0.00  0.00    +0.000 HD
ENDBRANCH  23  27
ENDBRANCH   5  17
TORSDOF 4
ENDMDL
MODEL 4
REMARK VINA RESULT:      -7.5      2.030      3.578
REMARK  Name = 
REMARK  5 active torsions:
REMARK  status: ('A' for Active; 'I' for Inactive)
REMARK    1  A    between atoms: C_1  and  C_2
REMARK    2  A    between atoms: C_2  and  C_3
REMARK    3  A    between atoms: C_7  and  C_8
REMARK    4  A    between atoms: C_12  and  O_13
REMARK    5  A    between atoms: C_15  and  O_16
REMARK                            x       y       z     vdW  Elec       q    Type
REMARK                         _______ _______ _______ _____ _____    ______ ____
ROOT
ATOM      1  C   UNL     1       3.751   6.225  18.561  0.00  0.00    +0.000 A 
ATOM      2  C   UNL     1       3.320   5.403  19.616  0.00  0.00    +0.000 A 
ATOM      3  C   UNL     1       2.245   5.777  20.424  0.00  0.00    +0.000 A 
ATOM      4  C   UNL     1       1.611   7.001  20.219  0.00  0.00    +0.000 A 
ATOM      5  C   UNL     1       2.028   7.840  19.180  0.00  0.00    +0.000 A 
ATOM      6  C   UNL     1       3.024   7.402  18.304  0.00  0.00    +0.000 A 
ENDROOT
BRANCH   1   8
ATOM      7  C   UNL     1       4.830   6.456  16.302  0.00  0.00    +0.000 C 
ATOM      8  C   UNL     1       4.959   5.865  17.699  0.00  0.00    +0.000 C 
ATOM      9  N   UNL     1       6.200   6.269  18.340  0.00  0.00    +0.000 N 
ATOM     10  C   UNL     1       6.915   5.208  18.844  0.00  0.00    +0.000 C 
ATOM     11  O   UNL     1       7.944   5.310  19.484  0.00  0.00    +0.000 OA
ATOM     12  N   UNL     1       6.302   4.065  18.474  0.00  0.00    +0.000 N 
ATOM     13  C   UNL     1       5.242   4.338  17.664  0.00  0.00    +0.000 C 
ATOM     14  O   UNL     1       4.612   3.490  17.048  0.00  0.00    +0.000 OA
ATOM     15  H   UNL     1       6.494   7.214  18.532  0.00  0.00    +0.000 HD
ATOM     16  H   UNL     1       6.680   3.149  18.640  0.00  0.00    +0.000 HD
ENDBRANCH   1   8
BRANCH   5  17
ATOM     17  C   UNL     1       1.363   9.162  19.033  0.00  0.00    +0.000 C 
ATOM     18  O   UNL     1       1.063   9.503  17.889  0.00  0.00    +0.000 OA
ATOM     19  N   UNL     1       1.058   9.946  20.152  0.00  0.00    +0.000 N 
ATOM     20  C   UNL     1       1.282   9.612  21.565  0.00  0.00    +0.000 C 
ATOM     21  C   UNL     1       0.023   9.756  22.430  0.00  0.00    +0.000 C 
ATOM     22  C   UNL     1      -0.684  11.085  22.197  0.00  0.00    +0.000 C 
ATOM     23  C   UNL     1      -0.936  11.310  20.708  0.00  0.00    +0.000 C 
ATOM     24  C   UNL     1       0.383  11.227  19.925  0.00  0.00    +0.000 C 
BRANCH  21  25
ATOM     25  O   UNL     1       0.360   9.627  23.809  0.00  0.00    +0.000 OA
ATOM     26  H   UNL     1       0.813   8.778  23.950  0.00  0.00    +0.000 HD
ENDBRANCH  21  25
BRANCH  23  27
ATOM     27  O   UNL     1      -1.571  12.571  20.520  0.00  0.00    +0.000 OA
ATOM     28  H   UNL     1      -1.340  12.909  19.639  0.00  0.00    +0.000 HD
ENDBRANCH  23  27
ENDBRANCH   5  17
TORSDOF 4
ENDMDL
MODEL 5
REMARK VINA RESULT:      -7.5      3.380      4.680
REMARK  Name = 
REMARK  5 active torsions:
REMARK  status: ('A' for Active; 'I' for Inactive)
REMARK    1  A    between atoms: C_1  and  C_2
REMARK    2  A    between atoms: C_2  and  C_3
REMARK    3  A    between atoms: C_7  and  C_8
REMARK    4  A    between atoms: C_12  and  O_13
REMARK    5  A    between atoms: C_15  and  O_16
REMARK                            x       y       z     vdW  Elec       q    Type
REMARK                         _______ _______ _______ _____ _____    ______ ____
ROOT
ATOM      1  C   UNL     1       2.904   5.151  18.814  0.00  0.00    +0.000 A 
ATOM      2  C   UNL     1       3.590   5.658  17.696  0.00  0.00    +0.000 A 
ATOM      3  C   UNL     1       3.620   7.028  17.433  0.00  0.00    +0.000 A 
ATOM      4  C   UNL     1       2.927   7.912  18.257  0.00  0.00    +0.000 A 
ATOM      5  C   UNL     1       2.230   7.431  19.371  0.00  0.00    +0.000 A 
ATOM      6  C   UNL     1       2.306   6.073  19.692  0.00  0.00    +0.000 A 
ENDROOT
BRANCH   1   8
ATOM      7  C   UNL     1       3.766   2.871  18.201  0.00  0.00    +0.000 C 
ATOM      8  C   UNL     1       2.809   3.652  19.091  0.00  0.00    +0.000 C 
ATOM      9  N   UNL     1       3.030   3.365  20.499  0.00  0.00    +0.000 N 
ATOM     10  C   UNL     1       1.878   3.019  21.164  0.00  0.00    +0.000 C 
ATOM     11  O   UNL     1       1.807   2.808  22.360  0.00  0.00    +0.000 OA
ATOM     12  N   UNL     1       0.878   2.921  20.265  0.00  0.00    +0.000 N 
ATOM     13  C   UNL     1       1.356   3.112  19.004  0.00  0.00    +0.000 C 
ATOM     14  O   UNL     1       0.708   2.913  17.986  0.00  0.00    +0.000 OA
ATOM     15  H   UNL     1       3.887   3.507  21.011  0.00  0.00    +0.000 HD
ATOM     16  H   UNL     1      -0.045   2.591  20.488  0.00  0.00    +0.000 HD
ENDBRANCH   1   8
BRANCH   5  17
ATOM     17  C   UNL     1       1.456   8.400  20.190  0.00  0.00    +0.000 C 
ATOM     18  O   UNL     1       1.135   8.034  21.320  0.00  0.00    +0.000 OA
ATOM     19  N   UNL     1       1.156   9.679  19.705  0.00  0.00    +0.000 N 
ATOM     20  C   UNL     1       1.558  10.263  18.418  0.00  0.00    +0.000 C 
ATOM     21  C   UNL     1       2.250  11.625  18.559  0.00  0.00    +0.000 C 
ATOM     22  C   UNL     1       1.478  12.570  19.471  0.00  0.00    +0.000 C 
ATOM     23  C   UNL     1       1.169  11.899  20.808  0.00  0.00    +0.000 C 
ATOM     24  C   UNL     1       0.407  10.584  20.582  0.00  0.00    +0.000 C 
BRANCH  21  25
ATOM     25  O   UNL     1       2.416  12.225  17.276  0.00  0.00    +0.000 OA
ATOM     26  H   UNL     1       1.603  12.705  17.040  0.00  0.00    +0.000 HD
ENDBRANCH  21  25
BRANCH  23  27
ATOM     27  O   UNL     1       0.423  12.795  21.626  0.00  0.00    +0.000 OA
ATOM     28  H   UNL     1       1.041  13.312  22.168  0.00  0.00    +0.000 HD
ENDBRANCH  23  27
ENDBRANCH   5  17
TORSDOF 4
ENDMDL
MODEL 6
REMARK VINA RESULT:      -7.5      1.814      3.381
REMARK  Name = 
REMARK  5 active torsions:
REMARK  status: ('A' for Active; 'I' for Inactive)
REMARK    1  A    between atoms: C_1  and  C_2
REMARK    2  A    between atoms: C_2  and  C_3
REMARK    3  A    between atoms: C_7  and  C_8
REMARK    4  A    between atoms: C_12  and  O_13
REMARK    5  A    between atoms: C_15  and  O_16
REMARK                            x       y       z     vdW  Elec       q    Type
REMARK                         _______ _______ _______ _____ _____    ______ ____
ROOT
ATOM      1  C   UNL     1       3.446   5.918  18.717  0.00  0.00    +0.000 A 
ATOM      2  C   UNL     1       3.005   5.172  19.823  0.00  0.00    +0.000 A 
ATOM      3  C   UNL     1       2.027   5.673  20.683  0.00  0.00    +0.000 A 
ATOM      4  C   UNL     1       1.504   6.948  20.477  0.00  0.00    +0.000 A 
ATOM      5  C   UNL     1       1.933   7.713  19.387  0.00  0.00    +0.000 A 
ATOM      6  C   UNL     1       2.822   7.154  18.466  0.00  0.00    +0.000 A 
ENDROOT
BRANCH   1   8
ATOM      7  C   UNL     1       4.053   4.290  16.900  0.00  0.00    +0.000 C 
ATOM      8  C   UNL     1       4.555   5.415  17.794  0.00  0.00    +0.000 C 
ATOM      9  N   UNL     1       5.125   6.504  17.018  0.00  0.00    +0.000 N 
ATOM     10  C   UNL     1       6.379   6.870  17.446  0.00  0.00    +0.000 C 
ATOM     11  O   UNL     1       7.018   7.802  16.996  0.00  0.00    +0.000 OA
ATOM     12  N   UNL     1       6.774   6.005  18.402  0.00  0.00    +0.000 N 
ATOM     13  C   UNL     1       5.846   5.021  18.562  0.00  0.00    +0.000 C 
ATOM     14  O   UNL     1       6.020   4.016  19.235  0.00  0.00    +0.000 OA
ATOM     15  H   UNL     1       4.651   7.050  16.315  0.00  0.00    +0.000 HD
ATOM     16  H   UNL     1       7.693   6.003  18.810  0.00  0.00    +0.000 HD
ENDBRANCH   1   8
BRANCH   5  17
ATOM     17  C   UNL     1       1.392   9.090  19.237  0.00  0.00    +0.000 C 
ATOM     18  O   UNL     1       1.186   9.478  18.087  0.00  0.00    +0.000 OA
ATOM     19  N   UNL     1       1.093   9.875  20.357  0.00  0.00    +0.000 N 
ATOM     20  C   UNL     1       1.209   9.494  21.771  0.00  0.00    +0.000 C 
ATOM     21  C   UNL     1      -0.079   9.730  22.571  0.00  0.00    +0.000 C 
ATOM     22  C   UNL     1      -0.656  11.119  22.333  0.00  0.00    +0.000 C 
ATOM     23  C   UNL     1      -0.805  11.395  20.838  0.00  0.00    +0.000 C 
ATOM     24  C   UNL     1       0.545  11.214  20.125  0.00  0.00    +0.000 C 
BRANCH  21  25
ATOM     25  O   UNL     1       0.168   9.545  23.962  0.00  0.00    +0.000 OA
ATOM     26  H   UNL     1       0.408   8.616  24.124  0.00  0.00    +0.000 HD
ENDBRANCH  21  25
BRANCH  23  27
ATOM     27  O   UNL     1      -1.318  12.710  20.648  0.00  0.00    +0.000 OA
ATOM     28  H   UNL     1      -0.887  13.104  19.872  0.00  0.00    +0.000 HD
ENDBRANCH  23  27
ENDBRANCH   5  17
TORSDOF 4
ENDMDL
MODEL 7
REMARK VINA RESULT:      -7.5      1.585      2.886
REMARK  Name = 
REMARK  5 active torsions:
REMARK  status: ('A' for Active; 'I' for Inactive)
REMARK    1  A    between atoms: C_1  and  C_2
REMARK    2  A    between atoms: C_2  and  C_3
REMARK    3  A    between atoms: C_7  and  C_8
REMARK    4  A    between atoms: C_12  and  O_13
REMARK    5  A    between atoms: C_15  and  O_16
REMARK                            x       y       z     vdW  Elec       q    Type
REMARK                         _______ _______ _______ _____ _____    ______ ____
ROOT
ATOM      1  C   UNL     1       4.329   6.113  18.111  0.00  0.00    +0.000 A 
ATOM      2  C   UNL     1       3.927   5.278  19.169  0.00  0.00    +0.000 A 
ATOM      3  C   UNL     1       2.804   5.587  19.938  0.00  0.00    +0.000 A 
ATOM      4  C   UNL     1       2.089   6.757  19.692  0.00  0.00    +0.000 A 
ATOM      5  C   UNL     1       2.475   7.608  18.650  0.00  0.00    +0.000 A 
ATOM      6  C   UNL     1       3.527   7.229  17.812  0.00  0.00    +0.000 A 
ENDROOT
BRANCH   1   8
ATOM      7  C   UNL     1       5.294   4.842  16.169  0.00  0.00    +0.000 C 
ATOM      8  C   UNL     1       5.586   5.827  17.292  0.00  0.00    +0.000 C 
ATOM      9  N   UNL     1       6.174   7.057  16.788  0.00  0.00    +0.000 N 
ATOM     10  C   UNL     1       7.329   7.410  17.445  0.00  0.00    +0.000 C 
ATOM     11  O   UNL     1       7.953   8.435  17.245  0.00  0.00    +0.000 OA
ATOM     12  N   UNL     1       7.654   6.419  18.300  0.00  0.00    +0.000 N 
ATOM     13  C   UNL     1       6.788   5.377  18.167  0.00  0.00    +0.000 C 
ATOM     14  O   UNL     1       6.943   4.283  18.692  0.00  0.00    +0.000 OA
ATOM     15  H   UNL     1       5.761   7.687  16.118  0.00  0.00    +0.000 HD
ATOM     16  H   UNL     1       8.507   6.396  18.831  0.00  0.00    +0.000 HD
ENDBRANCH   1   8
BRANCH   5  17
ATOM     17  C   UNL     1       1.721   8.874  18.458  0.00  0.00    +0.000 C 
ATOM     18  O   UNL     1       1.473   9.198  17.297  0.00  0.00    +0.000 OA
ATOM     19  N   UNL     1       1.281   9.626  19.555  0.00  0.00    +0.000 N 
ATOM     20  C   UNL     1       1.434   9.302  20.980  0.00  0.00    +0.000 C 
ATOM     21  C   UNL     1       0.113   9.343  21.757  0.00  0.00    +0.000 C 
ATOM     22  C   UNL     1      -0.678  10.614  21.478  0.00  0.00    +0.000 C 
ATOM     23  C   UNL     1      -0.846  10.827  19.975  0.00  0.00    +0.000 C 
ATOM     24  C   UNL     1       0.526  10.852  19.283  0.00  0.00    +0.000 C 
BRANCH  21  25
ATOM     25  O   UNL     1       0.364   9.232  23.156  0.00  0.00    +0.000 OA
ATOM     26  H   UNL     1      -0.265   8.600  23.545  0.00  0.00    +0.000 HD
ENDBRANCH  21  25
BRANCH  23  27
ATOM     27  O   UNL     1      -1.563  12.037  19.745  0.00  0.00    +0.000 OA
ATOM     28  H   UNL     1      -2.333  12.061  20.337  0.00  0.00    +0.000 HD
ENDBRANCH  23  27
ENDBRANCH   5  17
TORSDOF 4
ENDMDL
MODEL 8
REMARK VINA RESULT:      -7.4      3.015      7.245
REMARK  Name = 
REMARK  5 active torsions:
REMARK  status: ('A' for Active; 'I' for Inactive)
REMARK    1  A    between atoms: C_1  and  C_2
REMARK    2  A    between atoms: C_2  and  C_3
REMARK    3  A    between atoms: C_7  and  C_8
REMARK    4  A    between atoms: C_12  and  O_13
REMARK    5  A    between atoms: C_15  and  O_16
REMARK                            x       y       z     vdW  Elec       q    Type
REMARK                         _______ _______ _______ _____ _____    ______ ____
ROOT
ATOM      1  C   UNL     1       1.328   9.110  19.277  0.00  0.00    +0.000 A 
ATOM      2  C   UNL     1       0.947   8.844  20.604  0.00  0.00    +0.000 A 
ATOM      3  C   UNL     1       1.339   7.665  21.239  0.00  0.00    +0.000 A 
ATOM      4  C   UNL     1       2.081   6.712  20.546  0.00  0.00    +0.000 A 
ATOM      5  C   UNL     1       2.465   6.951  19.222  0.00  0.00    +0.000 A 
ATOM      6  C   UNL     1       2.170   8.184  18.636  0.00  0.00    +0.000 A 
ENDROOT
BRANCH   1   8
ATOM      7  C   UNL     1       2.047  11.121  17.951  0.00  0.00    +0.000 C 
ATOM      8  C   UNL     1       0.864  10.366  18.541  0.00  0.00    +0.000 C 
ATOM      9  N   UNL     1      -0.127  10.044  17.528  0.00  0.00    +0.000 N 
ATOM     10  C   UNL     1      -1.400  10.427  17.879  0.00  0.00    +0.000 C 
ATOM     11  O   UNL     1      -2.397  10.197  17.224  0.00  0.00    +0.000 OA
ATOM     12  N   UNL     1      -1.333  11.121  19.034  0.00  0.00    +0.000 N 
ATOM     13  C   UNL     1      -0.035  11.281  19.415  0.00  0.00    +0.000 C 
ATOM     14  O   UNL     1       0.328  12.010  20.327  0.00  0.00    +0.000 OA
ATOM     15  H   UNL     1       0.024   9.493  16.697  0.00  0.00    +0.000 HD
ATOM     16  H   UNL     1      -2.118  11.589  19.452  0.00  0.00    +0.000 HD
ENDBRANCH   1   8
BRANCH   5  17
ATOM     17  C   UNL     1       3.206   5.883  18.500  0.00  0.00    +0.000 C 
ATOM     18  O   UNL     1       4.371   6.133  18.192  0.00  0.00    +0.000 OA
ATOM     19  N   UNL     1       2.611   4.644  18.233  0.00  0.00    +0.000 N 
ATOM     20  C   UNL     1       1.268   4.195  18.626  0.00  0.00    +0.000 C 
ATOM     21  C   UNL     1       1.270   2.852  19.368  0.00  0.00    +0.000 C 
ATOM     22  C   UNL     1       2.105   1.800  18.649  0.00  0.00    +0.000 C 
ATOM     23  C   UNL     1       3.504   2.334  18.347  0.00  0.00    +0.000 C 
ATOM     24  C   UNL     1       3.414   3.636  17.535  0.00  0.00    +0.000 C 
BRANCH  21  25
ATOM     25  O   UNL     1      -0.065   2.378  19.526  0.00  0.00    +0.000 OA
ATOM     26  H   UNL     1      -0.063   1.405  19.513  0.00  0.00    +0.000 HD
ENDBRANCH  21  25
BRANCH  23  27
ATOM     27  O   UNL     1       4.250   1.341  17.650  0.00  0.00    +0.000 OA
ATOM     28  H   UNL     1       3.855   1.214  16.771  0.00  0.00    +0.000 HD
ENDBRANCH  23  27
ENDBRANCH   5  17
TORSDOF 4
ENDMDL
MODEL 9
REMARK VINA RESULT:      -7.4      2.824      4.112
REMARK  Name = 
REMARK  5 active torsions:
REMARK  status: ('A' for Active; 'I' for Inactive)
REMARK    1  A    between atoms: C_1  and  C_2
REMARK    2  A    between atoms: C_2  and  C_3
REMARK    3  A    between atoms: C_7  and  C_8
REMARK    4  A    between atoms: C_12  and  O_13
REMARK    5  A    between atoms: C_15  and  O_16
REMARK                            x       y       z     vdW  Elec       q    Type
REMARK                         _______ _______ _______ _____ _____    ______ ____
ROOT
ATOM      1  C   UNL     1       3.192   4.964  18.327  0.00  0.00    +0.000 A 
ATOM      2  C   UNL     1       3.999   5.594  17.364  0.00  0.00    +0.000 A 
ATOM      3  C   UNL     1       4.066   6.986  17.283  0.00  0.00    +0.000 A 
ATOM      4  C   UNL     1       3.293   7.772  18.135  0.00  0.00    +0.000 A 
ATOM      5  C   UNL     1       2.476   7.168  19.097  0.00  0.00    +0.000 A 
ATOM      6  C   UNL     1       2.509   5.780  19.248  0.00  0.00    +0.000 A 
ENDROOT
BRANCH   1   8
ATOM      7  C   UNL     1       2.551   2.878  17.081  0.00  0.00    +0.000 C 
ATOM      8  C   UNL     1       3.059   3.444  18.399  0.00  0.00    +0.000 C 
ATOM      9  N   UNL     1       4.311   2.826  18.801  0.00  0.00    +0.000 N 
ATOM     10  C   UNL     1       4.288   2.355  20.093  0.00  0.00    +0.000 C 
ATOM     11  O   UNL     1       5.242   1.868  20.668  0.00  0.00    +0.000 OA
ATOM     12  N   UNL     1       3.037   2.493  20.576  0.00  0.00    +0.000 N 
ATOM     13  C   UNL     1       2.206   2.969  19.606  0.00  0.00    +0.000 C 
ATOM     14  O   UNL     1       0.990   3.030  19.714  0.00  0.00    +0.000 OA
ATOM     15  H   UNL     1       5.173   2.826  18.278  0.00  0.00    +0.000 HD
ATOM     16  H   UNL     1       2.739   2.138  21.467  0.00  0.00    +0.000 HD
ENDBRANCH   1   8
BRANCH   5  17
ATOM     17  C   UNL     1       1.624   8.041  19.946  0.00  0.00    +0.000 C 
ATOM     18  O   UNL     1       1.296   7.592  21.044  0.00  0.00    +0.000 OA
ATOM     19  N   UNL     1       1.260   9.326  19.525  0.00  0.00    +0.000 N 
ATOM     20  C   UNL     1       1.660  10.006  18.286  0.00  0.00    +0.000 C 
ATOM     21  C   UNL     1       2.265  11.396  18.524  0.00  0.00    +0.000 C 
ATOM     22  C   UNL     1       1.414  12.239  19.464  0.00  0.00    +0.000 C 
ATOM     23  C   UNL     1       1.111  11.475  20.752  0.00  0.00    +0.000 C 
ATOM     24  C   UNL     1       0.436  10.133  20.429  0.00  0.00    +0.000 C 
BRANCH  21  25
ATOM     25  O   UNL     1       2.428  12.078  17.283  0.00  0.00    +0.000 OA
ATOM     26  H   UNL     1       2.936  11.516  16.673  0.00  0.00    +0.000 HD
ENDBRANCH  21  25
BRANCH  23  27
ATOM     27  O   UNL     1       0.291  12.277  21.596  0.00  0.00    +0.000 OA
ATOM     28  H   UNL     1       0.860  12.876  22.107  0.00  0.00    +0.000 HD
ENDBRANCH  23  27
ENDBRANCH   5  17
TORSDOF 4
ENDMDL
