MODEL 1
REMARK VINA RESULT:      -7.1      0.000      0.000
REMARK  Name = 
REMARK  5 active torsions:
REMARK  status: ('A' for Active; 'I' for Inactive)
REMARK    1  A    between atoms: C_6  and  C_7
REMARK    2  A    between atoms: C_12  and  O_13
REMARK    3  A    between atoms: C_15  and  C_16
REMARK    4  A    between atoms: N_23  and  C_24
REMARK    5  A    between atoms: C_24  and  C_25
REMARK                            x       y       z     vdW  Elec       q    Type
REMARK                         _______ _______ _______ _____ _____    ______ ____
ROOT
ATOM      1  O   UNL     1       0.404  14.150  22.568  0.00  0.00    +0.000 OA
ATOM      2  C   UNL     1       0.216  13.556  21.520  0.00  0.00    +0.000 C 
ATOM      3  C   UNL     1      -1.008  13.055  21.015  0.00  0.00    +0.000 A 
ATOM      4  N   UNL     1      -2.300  12.986  21.359  0.00  0.00    +0.000 N 
ATOM      5  N   UNL     1      -3.035  12.335  20.415  0.00  0.00    +0.000 NA
ATOM      6  C   UNL     1      -2.156  12.031  19.424  0.00  0.00    +0.000 A 
ATOM      7  C   UNL     1      -0.861  12.436  19.803  0.00  0.00    +0.000 A 
ATOM      8  C   UNL     1       0.565  12.472  19.381  0.00  0.00    +0.000 C 
ATOM      9  N   UNL     1       1.153  13.185  20.553  0.00  0.00    +0.000 N 
ATOM     10  H   UNL     1      -2.762  13.336  22.188  0.00  0.00    +0.000 HD
ENDROOT
BRANCH   8  11
ATOM     11  C   UNL     1       1.037  11.040  19.257  0.00  0.00    +0.000 A 
ATOM     12  C   UNL     1       0.677  10.048  20.187  0.00  0.00    +0.000 A 
ATOM     13  C   UNL     1       1.108   8.731  20.039  0.00  0.00    +0.000 A 
ATOM     14  C   UNL     1       1.913   8.370  18.964  0.00  0.00    +0.000 A 
ATOM     15  C   UNL     1       2.297   9.338  18.040  0.00  0.00    +0.000 A 
ATOM     16  C   UNL     1       1.868  10.656  18.193  0.00  0.00    +0.000 A 
ATOM     17  F   UNL     1       2.294  11.564  17.301  0.00  0.00    +0.000 F 
ENDBRANCH   8  11
BRANCH   6  18
ATOM     18  C   UNL     1      -2.600  11.389  18.180  0.00  0.00    +0.000 A 
ATOM     19  C   UNL     1      -1.808  10.403  17.566  0.00  0.00    +0.000 A 
ATOM     20  C   UNL     1      -2.243   9.749  16.406  0.00  0.00    +0.000 A 
ATOM     21  C   UNL     1      -3.468  10.082  15.832  0.00  0.00    +0.000 A 
ATOM     22  C   UNL     1      -4.259  11.067  16.414  0.00  0.00    +0.000 A 
ATOM     23  C   UNL     1      -3.837  11.692  17.589  0.00  0.00    +0.000 A 
BRANCH  23  24
ATOM     24  O   UNL     1      -4.692  12.569  18.193  0.00  0.00    +0.000 OA
ATOM     25  H   UNL     1      -4.262  13.436  18.287  0.00  0.00    +0.000 HD
ENDBRANCH  23  24
ENDBRANCH   6  18
BRANCH   9  26
ATOM     26  C   UNL     1       2.569  13.479  20.650  0.00  0.00    +0.000 C 
BRANCH  26  27
ATOM     27  C   UNL     1       3.008  14.625  19.775  0.00  0.00    +0.000 A 
ATOM     28  C   UNL     1       3.669  14.386  18.565  0.00  0.00    +0.000 A 
ATOM     29  C   UNL     1       4.075  15.468  17.799  0.00  0.00    +0.000 A 
ATOM     30  N   UNL     1       3.862  16.756  18.144  0.00  0.00    +0.000 NA
ATOM     31  C   UNL     1       3.212  16.968  19.306  0.00  0.00    +0.000 A 
ATOM     32  C   UNL     1       2.770  15.953  20.144  0.00  0.00    +0.000 A 
ENDBRANCH  26  27
ENDBRANCH   9  26
TORSDOF 5
ENDMDL
MODEL 2
REMARK VINA RESULT:      -7.1      2.976      6.271
REMARK  Name = 
REMARK  5 active torsions:
REMARK  status: ('A' for Active; 'I' for Inactive)
REMARK    1  A    between atoms: C_6  and  C_7
REMARK    2  A    between atoms: C_12  and  O_13
REMARK    3  A    between atoms: C_15  and  C_16
REMARK    4  A    between atoms: N_23  and  C_24
REMARK    5  A    between atoms: C_24  and  C_25
REMARK                            x       y       z     vdW  Elec       q    Type
REMARK                         _______ _______ _______ _____ _____    ______ ____
ROOT
ATOM      1  O   UNL     1      -2.460  11.861  23.849  0.00  0.00    +0.000 OA
ATOM      2  C   UNL     1      -1.878  11.594  22.812  0.00  0.00    +0.000 C 
ATOM      3  C   UNL     1      -0.915  10.579  22.596  0.00  0.00    +0.000 A 
ATOM      4  N   UNL     1      -0.285   9.611  23.272  0.00  0.00    +0.000 N 
ATOM      5  N   UNL     1       0.589   8.932  22.479  0.00  0.00    +0.000 NA
ATOM      6  C   UNL     1       0.451   9.483  21.243  0.00  0.00    +0.000 A 
ATOM      7  C   UNL     1      -0.459  10.555  21.305  0.00  0.00    +0.000 A 
ATOM      8  C   UNL     1      -1.120  11.626  20.511  0.00  0.00    +0.000 C 
ATOM      9  N   UNL     1      -1.978  12.229  21.573  0.00  0.00    +0.000 N 
ATOM     10  H   UNL     1      -0.375   9.347  24.245  0.00  0.00    +0.000 HD
ENDROOT
BRANCH   8  11
ATOM     11  C   UNL     1      -0.036  12.560  20.020  0.00  0.00    +0.000 A 
ATOM     12  C   UNL     1       1.051  12.940  20.828  0.00  0.00    +0.000 A 
ATOM     13  C   UNL     1       2.047  13.786  20.345  0.00  0.00    +0.000 A 
ATOM     14  C   UNL     1       1.985  14.278  19.046  0.00  0.00    +0.000 A 
ATOM     15  C   UNL     1       0.910  13.930  18.231  0.00  0.00    +0.000 A 
ATOM     16  C   UNL     1      -0.089  13.087  18.719  0.00  0.00    +0.000 A 
ATOM     17  F   UNL     1      -1.126  12.809  17.914  0.00  0.00    +0.000 F 
ENDBRANCH   8  11
BRANCH   6  18
ATOM     18  C   UNL     1       1.182   8.951  20.085  0.00  0.00    +0.000 A 
ATOM     19  C   UNL     1       1.284   9.703  18.902  0.00  0.00    +0.000 A 
ATOM     20  C   UNL     1       2.019   9.228  17.808  0.00  0.00    +0.000 A 
ATOM     21  C   UNL     1       2.648   7.986  17.873  0.00  0.00    +0.000 A 
ATOM     22  C   UNL     1       2.544   7.218  19.028  0.00  0.00    +0.000 A 
ATOM     23  C   UNL     1       1.840   7.712  20.128  0.00  0.00    +0.000 A 
BRANCH  23  24
ATOM     24  O   UNL     1       1.857   6.981  21.282  0.00  0.00    +0.000 OA
ATOM     25  H   UNL     1       1.133   6.334  21.272  0.00  0.00    +0.000 HD
ENDBRANCH  23  24
ENDBRANCH   6  18
BRANCH   9  26
ATOM     26  C   UNL     1      -2.850  13.358  21.315  0.00  0.00    +0.000 C 
BRANCH  26  27
ATOM     27  C   UNL     1      -4.263  12.961  20.968  0.00  0.00    +0.000 A 
ATOM     28  C   UNL     1      -5.278  13.026  21.928  0.00  0.00    +0.000 A 
ATOM     29  C   UNL     1      -6.560  12.633  21.575  0.00  0.00    +0.000 A 
ATOM     30  N   UNL     1      -6.899  12.193  20.344  0.00  0.00    +0.000 NA
ATOM     31  C   UNL     1      -5.911  12.147  19.427  0.00  0.00    +0.000 A 
ATOM     32  C   UNL     1      -4.597  12.516  19.685  0.00  0.00    +0.000 A 
ENDBRANCH  26  27
ENDBRANCH   9  26
TORSDOF 5
ENDMDL
MODEL 3
REMARK VINA RESULT:      -6.8      1.204      1.659
REMARK  Name = 
REMARK  5 active torsions:
REMARK  status: ('A' for Active; 'I' for Inactive)
REMARK    1  A    between atoms: C_6  and  C_7
REMARK    2  A    between atoms: C_12  and  O_13
REMARK    3  A    between atoms: C_15  and  C_16
REMARK    4  A    between atoms: N_23  and  C_24
REMARK    5  A    between atoms: C_24  and  C_25
REMARK                            x       y       z     vdW  Elec       q    Type
REMARK                         _______ _______ _______ _____ _____    ______ ____
ROOT
ATOM      1  O   UNL     1      -1.979  14.662  22.789  0.00  0.00    +0.000 OA
ATOM      2  C   UNL     1      -1.764  13.986  21.798  0.00  0.00    +0.000 C 
ATOM      3  C   UNL     1      -2.711  13.337  20.969  0.00  0.00    +0.000 A 
ATOM      4  N   UNL     1      -4.035  13.168  20.875  0.00  0.00    +0.000 N 
ATOM      5  N   UNL     1      -4.366  12.388  19.808  0.00  0.00    +0.000 NA
ATOM      6  C   UNL     1      -3.186  12.106  19.193  0.00  0.00    +0.000 A 
ATOM      7  C   UNL     1      -2.124  12.658  19.936  0.00  0.00    +0.000 A 
ATOM      8  C   UNL     1      -0.645  12.803  20.004  0.00  0.00    +0.000 C 
ATOM      9  N   UNL     1      -0.534  13.644  21.232  0.00  0.00    +0.000 N 
ATOM     10  H   UNL     1      -4.771  13.525  21.471  0.00  0.00    +0.000 HD
ENDROOT
BRANCH   8  11
ATOM     11  C   UNL     1      -0.062  11.418  20.176  0.00  0.00    +0.000 A 
ATOM     12  C   UNL     1      -0.460  10.559  21.217  0.00  0.00    +0.000 A 
ATOM     13  C   UNL     1       0.078   9.280  21.342  0.00  0.00    +0.000 A 
ATOM     14  C   UNL     1       1.030   8.824  20.437  0.00  0.00    +0.000 A 
ATOM     15  C   UNL     1       1.454   9.662  19.408  0.00  0.00    +0.000 A 
ATOM     16  C   UNL     1       0.917  10.944  19.288  0.00  0.00    +0.000 A 
ATOM     17  F   UNL     1       1.383  11.732  18.307  0.00  0.00    +0.000 F 
ENDBRANCH   8  11
BRANCH   6  18
ATOM     18  C   UNL     1      -3.143  11.344  17.938  0.00  0.00    +0.000 A 
ATOM     19  C   UNL     1      -2.181  10.336  17.750  0.00  0.00    +0.000 A 
ATOM     20  C   UNL     1      -2.160   9.570  16.578  0.00  0.00    +0.000 A 
ATOM     21  C   UNL     1      -3.089   9.811  15.568  0.00  0.00    +0.000 A 
ATOM     22  C   UNL     1      -4.038  10.815  15.726  0.00  0.00    +0.000 A 
ATOM     23  C   UNL     1      -4.077  11.552  16.911  0.00  0.00    +0.000 A 
BRANCH  23  24
ATOM     24  O   UNL     1      -5.093  12.449  17.077  0.00  0.00    +0.000 OA
ATOM     25  H   UNL     1      -5.590  12.238  17.884  0.00  0.00    +0.000 HD
ENDBRANCH  23  24
ENDBRANCH   6  18
BRANCH   9  26
ATOM     26  C   UNL     1       0.743  14.078  21.760  0.00  0.00    +0.000 C 
BRANCH  26  27
ATOM     27  C   UNL     1       1.679  14.616  20.707  0.00  0.00    +0.000 A 
ATOM     28  C   UNL     1       1.367  15.785  20.005  0.00  0.00    +0.000 A 
ATOM     29  C   UNL     1       2.244  16.235  19.030  0.00  0.00    +0.000 A 
ATOM     30  N   UNL     1       3.402  15.614  18.715  0.00  0.00    +0.000 NA
ATOM     31  C   UNL     1       3.693  14.495  19.409  0.00  0.00    +0.000 A 
ATOM     32  C   UNL     1       2.878  13.964  20.400  0.00  0.00    +0.000 A 
ENDBRANCH  26  27
ENDBRANCH   9  26
TORSDOF 5
ENDMDL
MODEL 4
REMARK VINA RESULT:      -6.8      0.873      1.232
REMARK  Name = 
REMARK  5 active torsions:
REMARK  status: ('A' for Active; 'I' for Inactive)
REMARK    1  A    between atoms: C_6  and  C_7
REMARK    2  A    between atoms: C_12  and  O_13
REMARK    3  A    between atoms: C_15  and  C_16
REMARK    4  A    between atoms: N_23  and  C_24
REMARK    5  A    between atoms: C_24  and  C_25
REMARK                            x       y       z     vdW  Elec       q    Type
REMARK                         _______ _______ _______ _____ _____    ______ ____
ROOT
ATOM      1  O   UNL     1       0.547  14.123  22.477  0.00  0.00    +0.000 OA
ATOM      2  C   UNL     1       0.323  13.524  21.439  0.00  0.00    +0.000 C 
ATOM      3  C   UNL     1      -0.920  13.035  20.971  0.00  0.00    +0.000 A 
ATOM      4  N   UNL     1      -2.203  12.986  21.350  0.00  0.00    +0.000 N 
ATOM      5  N   UNL     1      -2.972  12.336  20.432  0.00  0.00    +0.000 NA
ATOM      6  C   UNL     1      -2.123  12.015  19.420  0.00  0.00    +0.000 A 
ATOM      7  C   UNL     1      -0.814  12.406  19.760  0.00  0.00    +0.000 A 
ATOM      8  C   UNL     1       0.600  12.421  19.300  0.00  0.00    +0.000 C 
ATOM      9  N   UNL     1       1.229  13.134  20.450  0.00  0.00    +0.000 N 
ATOM     10  H   UNL     1      -2.637  13.347  22.189  0.00  0.00    +0.000 HD
ENDROOT
BRANCH   8  11
ATOM     11  C   UNL     1       1.051  10.982  19.174  0.00  0.00    +0.000 A 
ATOM     12  C   UNL     1       1.675  10.488  18.014  0.00  0.00    +0.000 A 
ATOM     13  C   UNL     1       2.098   9.164  17.931  0.00  0.00    +0.000 A 
ATOM     14  C   UNL     1       1.908   8.295  19.000  0.00  0.00    +0.000 A 
ATOM     15  C   UNL     1       1.276   8.754  20.153  0.00  0.00    +0.000 A 
ATOM     16  C   UNL     1       0.849  10.080  20.231  0.00  0.00    +0.000 A 
ATOM     17  F   UNL     1       0.210  10.470  21.345  0.00  0.00    +0.000 F 
ENDBRANCH   8  11
BRANCH   6  18
ATOM     18  C   UNL     1      -2.609  11.369  18.193  0.00  0.00    +0.000 A 
ATOM     19  C   UNL     1      -1.861  10.349  17.581  0.00  0.00    +0.000 A 
ATOM     20  C   UNL     1      -2.337   9.692  16.439  0.00  0.00    +0.000 A 
ATOM     21  C   UNL     1      -3.559  10.057  15.880  0.00  0.00    +0.000 A 
ATOM     22  C   UNL     1      -4.308  11.077  16.459  0.00  0.00    +0.000 A 
ATOM     23  C   UNL     1      -3.845  11.704  17.618  0.00  0.00    +0.000 A 
BRANCH  23  24
ATOM     24  O   UNL     1      -4.660  12.619  18.222  0.00  0.00    +0.000 OA
ATOM     25  H   UNL     1      -4.169  13.443  18.380  0.00  0.00    +0.000 HD
ENDBRANCH  23  24
ENDBRANCH   6  18
BRANCH   9  26
ATOM     26  C   UNL     1       2.651  13.410  20.507  0.00  0.00    +0.000 C 
BRANCH  26  27
ATOM     27  C   UNL     1       3.064  14.608  19.689  0.00  0.00    +0.000 A 
ATOM     28  C   UNL     1       3.410  14.466  18.341  0.00  0.00    +0.000 A 
ATOM     29  C   UNL     1       3.805  15.589  17.630  0.00  0.00    +0.000 A 
ATOM     30  N   UNL     1       3.870  16.830  18.158  0.00  0.00    +0.000 NA
ATOM     31  C   UNL     1       3.522  16.951  19.456  0.00  0.00    +0.000 A 
ATOM     32  C   UNL     1       3.118  15.887  20.252  0.00  0.00    +0.000 A 
ENDBRANCH  26  27
ENDBRANCH   9  26
TORSDOF 5
ENDMDL
MODEL 5
REMARK VINA RESULT:      -6.6      2.923      4.958
REMARK  Name = 
REMARK  5 active torsions:
REMARK  status: ('A' for Active; 'I' for Inactive)
REMARK    1  A    between atoms: C_6  and  C_7
REMARK    2  A    between atoms: C_12  and  O_13
REMARK    3  A    between atoms: C_15  and  C_16
REMARK    4  A    between atoms: N_23  and  C_24
REMARK    5  A    between atoms: C_24  and  C_25
REMARK                            x       y       z     vdW  Elec       q    Type
REMARK                         _______ _______ _______ _____ _____    ______ ____
ROOT
ATOM      1  O   UNL     1      -2.413  11.996  23.766  0.00  0.00    +0.000 OA
ATOM      2  C   UNL     1      -1.803  11.724  22.747  0.00  0.00    +0.000 C 
ATOM      3  C   UNL     1      -0.916  10.642  22.530  0.00  0.00    +0.000 A 
ATOM      4  N   UNL     1      -0.403   9.597  23.191  0.00  0.00    +0.000 N 
ATOM      5  N   UNL     1       0.452   8.881  22.409  0.00  0.00    +0.000 NA
ATOM      6  C   UNL     1       0.422   9.492  21.195  0.00  0.00    +0.000 A 
ATOM      7  C   UNL     1      -0.400  10.633  21.262  0.00  0.00    +0.000 A 
ATOM      8  C   UNL     1      -0.930  11.787  20.487  0.00  0.00    +0.000 C 
ATOM      9  N   UNL     1      -1.788  12.416  21.534  0.00  0.00    +0.000 N 
ATOM     10  H   UNL     1      -0.562   9.302  24.145  0.00  0.00    +0.000 HD
ENDROOT
BRANCH   8  11
ATOM     11  C   UNL     1       0.250  12.647  20.091  0.00  0.00    +0.000 A 
ATOM     12  C   UNL     1       1.305  12.930  20.977  0.00  0.00    +0.000 A 
ATOM     13  C   UNL     1       2.391  13.708  20.581  0.00  0.00    +0.000 A 
ATOM     14  C   UNL     1       2.452  14.227  19.292  0.00  0.00    +0.000 A 
ATOM     15  C   UNL     1       1.412  13.976  18.401  0.00  0.00    +0.000 A 
ATOM     16  C   UNL     1       0.323  13.201  18.803  0.00  0.00    +0.000 A 
ATOM     17  F   UNL     1      -0.675  13.016  17.925  0.00  0.00    +0.000 F 
ENDBRANCH   8  11
BRANCH   6  18
ATOM     18  C   UNL     1       1.165   8.950  20.049  0.00  0.00    +0.000 A 
ATOM     19  C   UNL     1       1.278   9.689  18.860  0.00  0.00    +0.000 A 
ATOM     20  C   UNL     1       2.023   9.204  17.778  0.00  0.00    +0.000 A 
ATOM     21  C   UNL     1       2.653   7.964  17.862  0.00  0.00    +0.000 A 
ATOM     22  C   UNL     1       2.540   7.208  19.024  0.00  0.00    +0.000 A 
ATOM     23  C   UNL     1       1.824   7.711  20.112  0.00  0.00    +0.000 A 
BRANCH  23  24
ATOM     24  O   UNL     1       1.831   6.993  21.274  0.00  0.00    +0.000 OA
ATOM     25  H   UNL     1       2.131   7.556  22.006  0.00  0.00    +0.000 HD
ENDBRANCH  23  24
ENDBRANCH   6  18
BRANCH   9  26
ATOM     26  C   UNL     1      -2.551  13.623  21.287  0.00  0.00    +0.000 C 
BRANCH  26  27
ATOM     27  C   UNL     1      -1.755  14.889  21.482  0.00  0.00    +0.000 A 
ATOM     28  C   UNL     1      -1.612  15.809  20.438  0.00  0.00    +0.000 A 
ATOM     29  C   UNL     1      -0.855  16.951  20.650  0.00  0.00    +0.000 A 
ATOM     30  N   UNL     1      -0.245  17.242  21.820  0.00  0.00    +0.000 NA
ATOM     31  C   UNL     1      -0.403  16.350  22.819  0.00  0.00    +0.000 A 
ATOM     32  C   UNL     1      -1.138  15.178  22.703  0.00  0.00    +0.000 A 
ENDBRANCH  26  27
ENDBRANCH   9  26
TORSDOF 5
ENDMDL
MODEL 6
REMARK VINA RESULT:      -6.5      2.431      3.304
REMARK  Name = 
REMARK  5 active torsions:
REMARK  status: ('A' for Active; 'I' for Inactive)
REMARK    1  A    between atoms: C_6  and  C_7
REMARK    2  A    between atoms: C_12  and  O_13
REMARK    3  A    between atoms: C_15  and  C_16
REMARK    4  A    between atoms: N_23  and  C_24
REMARK    5  A    between atoms: C_24  and  C_25
REMARK                            x       y       z     vdW  Elec       q    Type
REMARK                         _______ _______ _______ _____ _____    ______ ____
ROOT
ATOM      1  O   UNL     1      -4.552  14.827  22.913  0.00  0.00    +0.000 OA
ATOM      2  C   UNL     1      -3.948  14.282  22.005  0.00  0.00    +0.000 C 
ATOM      3  C   UNL     1      -4.452  13.351  21.065  0.00  0.00    +0.000 A 
ATOM      4  N   UNL     1      -5.596  12.725  20.764  0.00  0.00    +0.000 N 
ATOM      5  N   UNL     1      -5.446  11.892  19.697  0.00  0.00    +0.000 NA
ATOM      6  C   UNL     1      -4.156  12.053  19.298  0.00  0.00    +0.000 A 
ATOM      7  C   UNL     1      -3.498  12.935  20.176  0.00  0.00    +0.000 A 
ATOM      8  C   UNL     1      -2.198  13.593  20.478  0.00  0.00    +0.000 C 
ATOM      9  N   UNL     1      -2.599  14.404  21.664  0.00  0.00    +0.000 N 
ATOM     10  H   UNL     1      -6.500  12.792  21.213  0.00  0.00    +0.000 HD
ENDROOT
BRANCH   8  11
ATOM     11  C   UNL     1      -1.205  12.502  20.811  0.00  0.00    +0.000 A 
ATOM     12  C   UNL     1      -1.407  11.600  21.872  0.00  0.00    +0.000 A 
ATOM     13  C   UNL     1      -0.487  10.591  22.146  0.00  0.00    +0.000 A 
ATOM     14  C   UNL     1       0.661  10.455  21.373  0.00  0.00    +0.000 A 
ATOM     15  C   UNL     1       0.894  11.346  20.328  0.00  0.00    +0.000 A 
ATOM     16  C   UNL     1      -0.027  12.359  20.060  0.00  0.00    +0.000 A 
ATOM     17  F   UNL     1       0.255  13.219  19.069  0.00  0.00    +0.000 F 
ENDBRANCH   8  11
BRANCH   6  18
ATOM     18  C   UNL     1      -3.635  11.370  18.106  0.00  0.00    +0.000 A 
ATOM     19  C   UNL     1      -2.441  10.631  18.173  0.00  0.00    +0.000 A 
ATOM     20  C   UNL     1      -1.960   9.936  17.057  0.00  0.00    +0.000 A 
ATOM     21  C   UNL     1      -2.655   9.983  15.850  0.00  0.00    +0.000 A 
ATOM     22  C   UNL     1      -3.830  10.722  15.757  0.00  0.00    +0.000 A 
ATOM     23  C   UNL     1      -4.324  11.385  16.882  0.00  0.00    +0.000 A 
BRANCH  23  24
ATOM     24  O   UNL     1      -5.537  12.004  16.783  0.00  0.00    +0.000 OA
ATOM     25  H   UNL     1      -5.508  12.673  16.079  0.00  0.00    +0.000 HD
ENDBRANCH  23  24
ENDBRANCH   6  18
BRANCH   9  26
ATOM     26  C   UNL     1      -1.664  15.256  22.372  0.00  0.00    +0.000 C 
BRANCH  26  27
ATOM     27  C   UNL     1      -0.800  16.089  21.461  0.00  0.00    +0.000 A 
ATOM     28  C   UNL     1      -1.356  17.124  20.700  0.00  0.00    +0.000 A 
ATOM     29  C   UNL     1      -0.530  17.854  19.858  0.00  0.00    +0.000 A 
ATOM     30  N   UNL     1       0.796  17.635  19.729  0.00  0.00    +0.000 NA
ATOM     31  C   UNL     1       1.317  16.642  20.479  0.00  0.00    +0.000 A 
ATOM     32  C   UNL     1       0.574  15.853  21.347  0.00  0.00    +0.000 A 
ENDBRANCH  26  27
ENDBRANCH   9  26
TORSDOF 5
ENDMDL
MODEL 7
REMARK VINA RESULT:      -6.4      2.903      6.655
REMARK  Name = 
REMARK  5 active torsions:
REMARK  status: ('A' for Active; 'I' for Inactive)
REMARK    1  A    between atoms: C_6  and  C_7
REMARK    2  A    between atoms: C_12  and  O_13
REMARK    3  A    between atoms: C_15  and  C_16
REMARK    4  A    between atoms: N_23  and  C_24
REMARK    5  A    between atoms: C_24  and  C_25
REMARK                            x       y       z     vdW  Elec       q    Type
REMARK                         _______ _______ _______ _____ _____    ______ ____
ROOT
ATOM      1  O   UNL     1       1.560  10.140  18.221  0.00  0.00    +0.000 OA
ATOM      2  C   UNL     1       0.878  11.050  18.660  0.00  0.00    +0.000 C 
ATOM      3  C   UNL     1       1.313  12.321  19.108  0.00  0.00    +0.000 A 
ATOM      4  N   UNL     1       2.447  13.017  19.253  0.00  0.00    +0.000 N 
ATOM      5  N   UNL     1       2.213  14.252  19.776  0.00  0.00    +0.000 NA
ATOM      6  C   UNL     1       0.863  14.332  19.913  0.00  0.00    +0.000 A 
ATOM      7  C   UNL     1       0.279  13.107  19.541  0.00  0.00    +0.000 A 
ATOM      8  C   UNL     1      -1.009  12.371  19.414  0.00  0.00    +0.000 C 
ATOM      9  N   UNL     1      -0.503  11.077  18.867  0.00  0.00    +0.000 N 
ATOM     10  H   UNL     1       3.397  12.744  19.037  0.00  0.00    +0.000 HD
ENDROOT
BRANCH   8  11
ATOM     11  C   UNL     1      -1.595  12.241  20.802  0.00  0.00    +0.000 A 
ATOM     12  C   UNL     1      -0.907  11.604  21.851  0.00  0.00    +0.000 A 
ATOM     13  C   UNL     1      -1.461  11.516  23.127  0.00  0.00    +0.000 A 
ATOM     14  C   UNL     1      -2.715  12.056  23.390  0.00  0.00    +0.000 A 
ATOM     15  C   UNL     1      -3.423  12.676  22.364  0.00  0.00    +0.000 A 
ATOM     16  C   UNL     1      -2.869  12.759  21.086  0.00  0.00    +0.000 A 
ATOM     17  F   UNL     1      -3.602  13.330  20.118  0.00  0.00    +0.000 F 
ENDBRANCH   8  11
BRANCH   6  18
ATOM     18  C   UNL     1       0.215  15.566  20.378  0.00  0.00    +0.000 A 
ATOM     19  C   UNL     1      -0.482  15.588  21.598  0.00  0.00    +0.000 A 
ATOM     20  C   UNL     1      -1.063  16.770  22.074  0.00  0.00    +0.000 A 
ATOM     21  C   UNL     1      -0.972  17.944  21.330  0.00  0.00    +0.000 A 
ATOM     22  C   UNL     1      -0.301  17.940  20.111  0.00  0.00    +0.000 A 
ATOM     23  C   UNL     1       0.306  16.768  19.657  0.00  0.00    +0.000 A 
BRANCH  23  24
ATOM     24  O   UNL     1       1.051  16.831  18.515  0.00  0.00    +0.000 OA
ATOM     25  H   UNL     1       1.637  17.605  18.547  0.00  0.00    +0.000 HD
ENDBRANCH  23  24
ENDBRANCH   6  18
BRANCH   9  26
ATOM     26  C   UNL     1      -1.385   9.969  18.560  0.00  0.00    +0.000 C 
BRANCH  26  27
ATOM     27  C   UNL     1      -2.401  10.285  17.492  0.00  0.00    +0.000 A 
ATOM     28  C   UNL     1      -2.159   9.949  16.156  0.00  0.00    +0.000 A 
ATOM     29  C   UNL     1      -3.109  10.275  15.201  0.00  0.00    +0.000 A 
ATOM     30  N   UNL     1      -4.275  10.897  15.481  0.00  0.00    +0.000 NA
ATOM     31  C   UNL     1      -4.497  11.203  16.776  0.00  0.00    +0.000 A 
ATOM     32  C   UNL     1      -3.606  10.922  17.803  0.00  0.00    +0.000 A 
ENDBRANCH  26  27
ENDBRANCH   9  26
TORSDOF 5
ENDMDL
MODEL 8
REMARK VINA RESULT:      -6.4      3.848      6.530
REMARK  Name = 
REMARK  5 active torsions:
REMARK  status: ('A' for Active; 'I' for Inactive)
REMARK    1  A    between atoms: C_6  and  C_7
REMARK    2  A    between atoms: C_12  and  O_13
REMARK    3  A    between atoms: C_15  and  C_16
REMARK    4  A    between atoms: N_23  and  C_24
REMARK    5  A    between atoms: C_24  and  C_25
REMARK                            x       y       z     vdW  Elec       q    Type
REMARK                         _______ _______ _______ _____ _____    ______ ____
ROOT
ATOM      1  O   UNL     1      -1.717  11.720  17.853  0.00  0.00    +0.000 OA
ATOM      2  C   UNL     1      -2.212  12.048  18.917  0.00  0.00    +0.000 C 
ATOM      3  C   UNL     1      -3.579  12.280  19.202  0.00  0.00    +0.000 A 
ATOM      4  N   UNL     1      -4.765  12.268  18.583  0.00  0.00    +0.000 N 
ATOM      5  N   UNL     1      -5.776  12.610  19.429  0.00  0.00    +0.000 NA
ATOM      6  C   UNL     1      -5.182  12.794  20.638  0.00  0.00    +0.000 A 
ATOM      7  C   UNL     1      -3.789  12.637  20.507  0.00  0.00    +0.000 A 
ATOM      8  C   UNL     1      -2.494  12.680  21.239  0.00  0.00    +0.000 C 
ATOM      9  N   UNL     1      -1.568  12.311  20.128  0.00  0.00    +0.000 N 
ATOM     10  H   UNL     1      -4.982  12.053  17.618  0.00  0.00    +0.000 HD
ENDROOT
BRANCH   8  11
ATOM     11  C   UNL     1      -2.299  14.097  21.731  0.00  0.00    +0.000 A 
ATOM     12  C   UNL     1      -2.520  15.215  20.906  0.00  0.00    +0.000 A 
ATOM     13  C   UNL     1      -2.352  16.512  21.388  0.00  0.00    +0.000 A 
ATOM     14  C   UNL     1      -1.958  16.728  22.704  0.00  0.00    +0.000 A 
ATOM     15  C   UNL     1      -1.716  15.637  23.536  0.00  0.00    +0.000 A 
ATOM     16  C   UNL     1      -1.879  14.340  23.048  0.00  0.00    +0.000 A 
ATOM     17  F   UNL     1      -1.599  13.319  23.872  0.00  0.00    +0.000 F 
ENDBRANCH   8  11
BRANCH   6  18
ATOM     18  C   UNL     1      -5.973  13.097  21.839  0.00  0.00    +0.000 A 
ATOM     19  C   UNL     1      -5.743  14.279  22.563  0.00  0.00    +0.000 A 
ATOM     20  C   UNL     1      -6.522  14.602  23.681  0.00  0.00    +0.000 A 
ATOM     21  C   UNL     1      -7.532  13.740  24.103  0.00  0.00    +0.000 A 
ATOM     22  C   UNL     1      -7.765  12.556  23.411  0.00  0.00    +0.000 A 
ATOM     23  C   UNL     1      -7.008  12.256  22.277  0.00  0.00    +0.000 A 
BRANCH  23  24
ATOM     24  O   UNL     1      -7.342  11.143  21.558  0.00  0.00    +0.000 OA
ATOM     25  H   UNL     1      -8.079  10.682  21.990  0.00  0.00    +0.000 HD
ENDBRANCH  23  24
ENDBRANCH   6  18
BRANCH   9  26
ATOM     26  C   UNL     1      -0.134  12.215  20.315  0.00  0.00    +0.000 C 
BRANCH  26  27
ATOM     27  C   UNL     1       0.329  10.839  20.722  0.00  0.00    +0.000 A 
ATOM     28  C   UNL     1       0.850   9.952  19.773  0.00  0.00    +0.000 A 
ATOM     29  C   UNL     1       1.246   8.689  20.184  0.00  0.00    +0.000 A 
ATOM     30  N   UNL     1       1.169   8.254  21.460  0.00  0.00    +0.000 NA
ATOM     31  C   UNL     1       0.676   9.125  22.364  0.00  0.00    +0.000 A 
ATOM     32  C   UNL     1       0.250  10.409  22.050  0.00  0.00    +0.000 A 
ENDBRANCH  26  27
ENDBRANCH   9  26
TORSDOF 5
ENDMDL
MODEL 9
REMARK VINA RESULT:      -6.4      2.861      5.996
REMARK  Name = 
REMARK  5 active torsions:
REMARK  status: ('A' for Active; 'I' for Inactive)
REMARK    1  A    between atoms: C_6  and  C_7
REMARK    2  A    between atoms: C_12  and  O_13
REMARK    3  A    between atoms: C_15  and  C_16
REMARK    4  A    between atoms: N_23  and  C_24
REMARK    5  A    between atoms: C_24  and  C_25
REMARK                            x       y       z     vdW  Elec       q    Type
REMARK                         _______ _______ _______ _____ _____    ______ ____
ROOT
ATOM      1  O   UNL     1      -1.459  10.167  16.983  0.00  0.00    +0.000 OA
ATOM      2  C   UNL     1      -1.510  10.839  17.998  0.00  0.00    +0.000 C 
ATOM      3  C   UNL     1      -2.655  11.409  18.603  0.00  0.00    +0.000 A 
ATOM      4  N   UNL     1      -3.977  11.490  18.409  0.00  0.00    +0.000 N 
ATOM      5  N   UNL     1      -4.583  12.228  19.380  0.00  0.00    +0.000 NA
ATOM      6  C   UNL     1      -3.586  12.576  20.237  0.00  0.00    +0.000 A 
ATOM      7  C   UNL     1      -2.354  12.109  19.741  0.00  0.00    +0.000 A 
ATOM      8  C   UNL     1      -0.889  12.063  19.995  0.00  0.00    +0.000 C 
ATOM      9  N   UNL     1      -0.458  11.252  18.818  0.00  0.00    +0.000 N 
ATOM     10  H   UNL     1      -4.540  11.095  17.667  0.00  0.00    +0.000 HD
ENDROOT
BRANCH   8  11
ATOM     11  C   UNL     1      -0.378  13.487  19.956  0.00  0.00    +0.000 A 
ATOM     12  C   UNL     1      -0.241  14.203  18.753  0.00  0.00    +0.000 A 
ATOM     13  C   UNL     1       0.213  15.520  18.745  0.00  0.00    +0.000 A 
ATOM     14  C   UNL     1       0.546  16.157  19.936  0.00  0.00    +0.000 A 
ATOM     15  C   UNL     1       0.436  15.464  21.139  0.00  0.00    +0.000 A 
ATOM     16  C   UNL     1      -0.014  14.143  21.142  0.00  0.00    +0.000 A 
ATOM     17  F   UNL     1      -0.068  13.501  22.319  0.00  0.00    +0.000 F 
ENDBRANCH   8  11
BRANCH   6  18
ATOM     18  C   UNL     1      -3.867  13.319  21.473  0.00  0.00    +0.000 A 
ATOM     19  C   UNL     1      -3.539  12.769  22.724  0.00  0.00    +0.000 A 
ATOM     20  C   UNL     1      -3.758  13.488  23.906  0.00  0.00    +0.000 A 
ATOM     21  C   UNL     1      -4.325  14.760  23.858  0.00  0.00    +0.000 A 
ATOM     22  C   UNL     1      -4.673  15.315  22.631  0.00  0.00    +0.000 A 
ATOM     23  C   UNL     1      -4.421  14.609  21.453  0.00  0.00    +0.000 A 
BRANCH  23  24
ATOM     24  O   UNL     1      -4.669  15.234  20.264  0.00  0.00    +0.000 OA
ATOM     25  H   UNL     1      -4.870  14.572  19.581  0.00  0.00    +0.000 HD
ENDBRANCH  23  24
ENDBRANCH   6  18
BRANCH   9  26
ATOM     26  C   UNL     1       0.931  10.912  18.579  0.00  0.00    +0.000 C 
BRANCH  26  27
ATOM     27  C   UNL     1       1.314   9.547  19.090  0.00  0.00    +0.000 A 
ATOM     28  C   UNL     1       0.991   9.158  20.395  0.00  0.00    +0.000 A 
ATOM     29  C   UNL     1       1.379   7.901  20.834  0.00  0.00    +0.000 A 
ATOM     30  N   UNL     1       2.050   7.011  20.070  0.00  0.00    +0.000 NA
ATOM     31  C   UNL     1       2.342   7.398  18.812  0.00  0.00    +0.000 A 
ATOM     32  C   UNL     1       2.000   8.635  18.282  0.00  0.00    +0.000 A 
ENDBRANCH  26  27
ENDBRANCH   9  26
TORSDOF 5
ENDMDL
