MODEL 1
REMARK VINA RESULT:      -8.1      0.000      0.000
REMARK  Name = 
REMARK  3 active torsions:
REMARK  status: ('A' for Active; 'I' for Inactive)
REMARK    1  A    between atoms: C_8  and  S_9
REMARK    2  A    between atoms: S_9  and  N_12
REMARK    3  A    between atoms: C_20  and  C_21
REMARK                            x       y       z     vdW  Elec       q    Type
REMARK                         _______ _______ _______ _____ _____    ______ ____
ROOT
ATOM      1  S   UNL     1       3.694   3.052  18.745  0.00  0.00    +0.000 S 
ATOM      2  O   UNL     1       3.073   1.987  17.989  0.00  0.00    +0.000 OA
ATOM      3  O   UNL     1       4.324   2.805  20.024  0.00  0.00    +0.000 OA
ENDROOT
BRANCH   1  11
ATOM      4  O   UNL     1       8.617   5.999  13.162  0.00  0.00    +0.000 OA
ATOM      5  C   UNL     1       7.782   5.440  13.862  0.00  0.00    +0.000 A 
ATOM      6  N   UNL     1       6.833   4.611  13.339  0.00  0.00    +0.000 N 
ATOM      7  C   UNL     1       5.825   3.987  14.035  0.00  0.00    +0.000 A 
ATOM      8  O   UNL     1       4.955   3.324  13.487  0.00  0.00    +0.000 OA
ATOM      9  C   UNL     1       5.839   4.175  15.498  0.00  0.00    +0.000 A 
ATOM     10  C   UNL     1       4.893   3.549  16.314  0.00  0.00    +0.000 A 
ATOM     11  C   UNL     1       4.933   3.777  17.690  0.00  0.00    +0.000 A 
ATOM     12  C   UNL     1       5.940   4.575  18.252  0.00  0.00    +0.000 A 
ATOM     13  C   UNL     1       6.885   5.191  17.428  0.00  0.00    +0.000 A 
ATOM     14  C   UNL     1       6.824   4.996  16.050  0.00  0.00    +0.000 A 
ATOM     15  N   UNL     1       7.754   5.618  15.217  0.00  0.00    +0.000 N 
ATOM     16  H   UNL     1       6.844   4.488  12.337  0.00  0.00    +0.000 HD
ATOM     17  H   UNL     1       8.465   6.232  15.595  0.00  0.00    +0.000 HD
ENDBRANCH   1  11
BRANCH   1  18
ATOM     18  N   UNL     1       2.602   4.303  18.962  0.00  0.00    +0.000 NA
ATOM     19  C   UNL     1       1.960   4.961  17.822  0.00  0.00    +0.000 C 
ATOM     20  C   UNL     1       2.274   6.453  17.771  0.00  0.00    +0.000 C 
ATOM     21  C   UNL     1       1.939   7.149  19.067  0.00  0.00    +0.000 A 
ATOM     22  C   UNL     1       1.980   6.384  20.254  0.00  0.00    +0.000 A 
ATOM     23  C   UNL     1       1.586   6.968  21.469  0.00  0.00    +0.000 A 
ATOM     24  C   UNL     1       1.175   8.296  21.516  0.00  0.00    +0.000 A 
ATOM     25  C   UNL     1       1.209   9.070  20.359  0.00  0.00    +0.000 A 
ATOM     26  C   UNL     1       1.615   8.525  19.124  0.00  0.00    +0.000 A 
ATOM     27  C   UNL     1       2.534   4.971  20.267  0.00  0.00    +0.000 C 
BRANCH  26  28
ATOM     28  C   UNL     1       1.693   9.480  17.947  0.00  0.00    +0.000 C 
ATOM     29  F   UNL     1       2.580   9.138  16.976  0.00  0.00    +0.000 F 
ATOM     30  F   UNL     1       0.493   9.626  17.320  0.00  0.00    +0.000 F 
ATOM     31  F   UNL     1       2.061  10.735  18.338  0.00  0.00    +0.000 F 
ENDBRANCH  26  28
ENDBRANCH   1  18
TORSDOF 3
ENDMDL
MODEL 2
REMARK VINA RESULT:      -8.1      3.577      6.715
REMARK  Name = 
REMARK  3 active torsions:
REMARK  status: ('A' for Active; 'I' for Inactive)
REMARK    1  A    between atoms: C_8  and  S_9
REMARK    2  A    between atoms: S_9  and  N_12
REMARK    3  A    between atoms: C_20  and  C_21
REMARK                            x       y       z     vdW  Elec       q    Type
REMARK                         _______ _______ _______ _____ _____    ______ ____
ROOT
ATOM      1  S   UNL     1       2.065   4.286  19.849  0.00  0.00    +0.000 S 
ATOM      2  O   UNL     1       2.168   3.756  21.190  0.00  0.00    +0.000 OA
ATOM      3  O   UNL     1       1.096   3.774  18.905  0.00  0.00    +0.000 OA
ENDROOT
BRANCH   1  11
ATOM      4  O   UNL     1       0.890  12.197  19.481  0.00  0.00    +0.000 OA
ATOM      5  C   UNL     1       1.166  11.010  19.357  0.00  0.00    +0.000 A 
ATOM      6  N   UNL     1       1.769  10.517  18.237  0.00  0.00    +0.000 N 
ATOM      7  C   UNL     1       2.063   9.198  17.985  0.00  0.00    +0.000 A 
ATOM      8  O   UNL     1       2.526   8.815  16.920  0.00  0.00    +0.000 OA
ATOM      9  C   UNL     1       1.772   8.251  19.079  0.00  0.00    +0.000 A 
ATOM     10  C   UNL     1       2.074   6.893  18.956  0.00  0.00    +0.000 A 
ATOM     11  C   UNL     1       1.758   6.034  20.009  0.00  0.00    +0.000 A 
ATOM     12  C   UNL     1       1.198   6.533  21.194  0.00  0.00    +0.000 A 
ATOM     13  C   UNL     1       0.905   7.894  21.309  0.00  0.00    +0.000 A 
ATOM     14  C   UNL     1       1.184   8.748  20.244  0.00  0.00    +0.000 A 
ATOM     15  N   UNL     1       0.882  10.106  20.343  0.00  0.00    +0.000 N 
ATOM     16  H   UNL     1       1.967  11.180  17.503  0.00  0.00    +0.000 HD
ATOM     17  H   UNL     1       0.439  10.483  21.172  0.00  0.00    +0.000 HD
ENDBRANCH   1  11
BRANCH   1  18
ATOM     18  N   UNL     1       3.563   4.231  19.102  0.00  0.00    +0.000 NA
ATOM     19  C   UNL     1       4.775   4.682  19.791  0.00  0.00    +0.000 C 
ATOM     20  C   UNL     1       5.459   5.829  19.053  0.00  0.00    +0.000 C 
ATOM     21  C   UNL     1       5.741   5.490  17.611  0.00  0.00    +0.000 A 
ATOM     22  C   UNL     1       4.895   4.550  16.979  0.00  0.00    +0.000 A 
ATOM     23  C   UNL     1       5.177   4.136  15.666  0.00  0.00    +0.000 A 
ATOM     24  C   UNL     1       6.269   4.656  14.980  0.00  0.00    +0.000 A 
ATOM     25  C   UNL     1       7.056   5.638  15.576  0.00  0.00    +0.000 A 
ATOM     26  C   UNL     1       6.794   6.092  16.883  0.00  0.00    +0.000 A 
ATOM     27  C   UNL     1       3.628   4.049  17.648  0.00  0.00    +0.000 C 
BRANCH  26  28
ATOM     28  C   UNL     1       7.663   7.223  17.402  0.00  0.00    +0.000 C 
ATOM     29  F   UNL     1       8.399   6.935  18.507  0.00  0.00    +0.000 F 
ATOM     30  F   UNL     1       8.553   7.661  16.467  0.00  0.00    +0.000 F 
ATOM     31  F   UNL     1       6.921   8.316  17.744  0.00  0.00    +0.000 F 
ENDBRANCH  26  28
ENDBRANCH   1  18
TORSDOF 3
ENDMDL
MODEL 3
REMARK VINA RESULT:      -7.9      5.123      7.227
REMARK  Name = 
REMARK  3 active torsions:
REMARK  status: ('A' for Active; 'I' for Inactive)
REMARK    1  A    between atoms: C_8  and  S_9
REMARK    2  A    between atoms: S_9  and  N_12
REMARK    3  A    between atoms: C_20  and  C_21
REMARK                            x       y       z     vdW  Elec       q    Type
REMARK                         _______ _______ _______ _____ _____    ______ ____
ROOT
ATOM      1  S   UNL     1       0.407  10.221  20.768  0.00  0.00    +0.000 S 
ATOM      2  O   UNL     1      -0.413   9.446  21.673  0.00  0.00    +0.000 OA
ATOM      3  O   UNL     1       1.326  11.227  21.253  0.00  0.00    +0.000 OA
ENDROOT
BRANCH   1  11
ATOM      4  O   UNL     1       4.387   4.238  17.239  0.00  0.00    +0.000 OA
ATOM      5  C   UNL     1       3.771   5.029  17.943  0.00  0.00    +0.000 A 
ATOM      6  N   UNL     1       3.335   4.702  19.193  0.00  0.00    +0.000 N 
ATOM      7  C   UNL     1       2.590   5.500  20.029  0.00  0.00    +0.000 A 
ATOM      8  O   UNL     1       2.159   5.109  21.105  0.00  0.00    +0.000 OA
ATOM      9  C   UNL     1       2.321   6.868  19.546  0.00  0.00    +0.000 A 
ATOM     10  C   UNL     1       1.616   7.784  20.331  0.00  0.00    +0.000 A 
ATOM     11  C   UNL     1       1.367   9.058  19.820  0.00  0.00    +0.000 A 
ATOM     12  C   UNL     1       1.863   9.433  18.563  0.00  0.00    +0.000 A 
ATOM     13  C   UNL     1       2.572   8.511  17.789  0.00  0.00    +0.000 A 
ATOM     14  C   UNL     1       2.790   7.226  18.280  0.00  0.00    +0.000 A 
ATOM     15  N   UNL     1       3.484   6.293  17.508  0.00  0.00    +0.000 N 
ATOM     16  H   UNL     1       3.534   3.765  19.510  0.00  0.00    +0.000 HD
ATOM     17  H   UNL     1       3.816   6.526  16.581  0.00  0.00    +0.000 HD
ENDBRANCH   1  11
BRANCH   1  18
ATOM     18  N   UNL     1      -0.560  10.948  19.610  0.00  0.00    +0.000 NA
ATOM     19  C   UNL     1      -1.345  12.147  19.916  0.00  0.00    +0.000 C 
ATOM     20  C   UNL     1      -2.840  11.919  19.714  0.00  0.00    +0.000 C 
ATOM     21  C   UNL     1      -3.154  11.394  18.336  0.00  0.00    +0.000 A 
ATOM     22  C   UNL     1      -2.155  10.644  17.674  0.00  0.00    +0.000 A 
ATOM     23  C   UNL     1      -2.370  10.216  16.353  0.00  0.00    +0.000 A 
ATOM     24  C   UNL     1      -3.564  10.506  15.701  0.00  0.00    +0.000 A 
ATOM     25  C   UNL     1      -4.577  11.177  16.381  0.00  0.00    +0.000 A 
ATOM     26  C   UNL     1      -4.406  11.607  17.712  0.00  0.00    +0.000 A 
ATOM     27  C   UNL     1      -0.889  10.205  18.388  0.00  0.00    +0.000 C 
BRANCH  26  28
ATOM     28  C   UNL     1      -5.604  12.254  18.382  0.00  0.00    +0.000 C 
ATOM     29  F   UNL     1      -6.141  11.557  19.418  0.00  0.00    +0.000 F 
ATOM     30  F   UNL     1      -5.315  13.490  18.876  0.00  0.00    +0.000 F 
ATOM     31  F   UNL     1      -6.634  12.438  17.506  0.00  0.00    +0.000 F 
ENDBRANCH  26  28
ENDBRANCH   1  18
TORSDOF 3
ENDMDL
MODEL 4
REMARK VINA RESULT:      -7.9      3.408      6.787
REMARK  Name = 
REMARK  3 active torsions:
REMARK  status: ('A' for Active; 'I' for Inactive)
REMARK    1  A    between atoms: C_8  and  S_9
REMARK    2  A    between atoms: S_9  and  N_12
REMARK    3  A    between atoms: C_20  and  C_21
REMARK                            x       y       z     vdW  Elec       q    Type
REMARK                         _______ _______ _______ _____ _____    ______ ____
ROOT
ATOM      1  S   UNL     1       2.260   3.666  19.057  0.00  0.00    +0.000 S 
ATOM      2  O   UNL     1       2.239   2.820  20.230  0.00  0.00    +0.000 OA
ATOM      3  O   UNL     1       1.415   3.396  17.915  0.00  0.00    +0.000 OA
ENDROOT
BRANCH   1  11
ATOM      4  O   UNL     1       0.658  11.382  20.466  0.00  0.00    +0.000 OA
ATOM      5  C   UNL     1       0.985  10.268  20.073  0.00  0.00    +0.000 A 
ATOM      6  N   UNL     1       1.524  10.062  18.838  0.00  0.00    +0.000 N 
ATOM      7  C   UNL     1       1.865   8.848  18.291  0.00  0.00    +0.000 A 
ATOM      8  O   UNL     1       2.265   8.729  17.142  0.00  0.00    +0.000 OA
ATOM      9  C   UNL     1       1.707   7.676  19.174  0.00  0.00    +0.000 A 
ATOM     10  C   UNL     1       2.068   6.396  18.743  0.00  0.00    +0.000 A 
ATOM     11  C   UNL     1       1.877   5.317  19.606  0.00  0.00    +0.000 A 
ATOM     12  C   UNL     1       1.384   5.518  20.903  0.00  0.00    +0.000 A 
ATOM     13  C   UNL     1       1.032   6.802  21.325  0.00  0.00    +0.000 A 
ATOM     14  C   UNL     1       1.185   7.877  20.453  0.00  0.00    +0.000 A 
ATOM     15  N   UNL     1       0.822   9.161  20.859  0.00  0.00    +0.000 N 
ATOM     16  H   UNL     1       1.632  10.877  18.251  0.00  0.00    +0.000 HD
ATOM     17  H   UNL     1       0.425   9.326  21.775  0.00  0.00    +0.000 HD
ENDBRANCH   1  11
BRANCH   1  18
ATOM     18  N   UNL     1       3.830   3.809  18.490  0.00  0.00    +0.000 NA
ATOM     19  C   UNL     1       4.901   4.338  19.338  0.00  0.00    +0.000 C 
ATOM     20  C   UNL     1       5.536   5.591  18.744  0.00  0.00    +0.000 C 
ATOM     21  C   UNL     1       6.013   5.371  17.330  0.00  0.00    +0.000 A 
ATOM     22  C   UNL     1       5.349   4.391  16.557  0.00  0.00    +0.000 A 
ATOM     23  C   UNL     1       5.820   4.089  15.269  0.00  0.00    +0.000 A 
ATOM     24  C   UNL     1       6.919   4.758  14.742  0.00  0.00    +0.000 A 
ATOM     25  C   UNL     1       7.524   5.777  15.474  0.00  0.00    +0.000 A 
ATOM     26  C   UNL     1       7.070   6.121  16.762  0.00  0.00    +0.000 A 
ATOM     27  C   UNL     1       4.076   3.724  17.046  0.00  0.00    +0.000 C 
BRANCH  26  28
ATOM     28  C   UNL     1       7.748   7.301  17.435  0.00  0.00    +0.000 C 
ATOM     29  F   UNL     1       6.927   8.325  17.786  0.00  0.00    +0.000 F 
ATOM     30  F   UNL     1       8.400   6.940  18.575  0.00  0.00    +0.000 F 
ATOM     31  F   UNL     1       8.695   7.865  16.631  0.00  0.00    +0.000 F 
ENDBRANCH  26  28
ENDBRANCH   1  18
TORSDOF 3
ENDMDL
MODEL 5
REMARK VINA RESULT:      -7.8      2.087      2.741
REMARK  Name = 
REMARK  3 active torsions:
REMARK  status: ('A' for Active; 'I' for Inactive)
REMARK    1  A    between atoms: C_8  and  S_9
REMARK    2  A    between atoms: S_9  and  N_12
REMARK    3  A    between atoms: C_20  and  C_21
REMARK                            x       y       z     vdW  Elec       q    Type
REMARK                         _______ _______ _______ _____ _____    ______ ____
ROOT
ATOM      1  S   UNL     1       3.196   4.658  18.208  0.00  0.00    +0.000 S 
ATOM      2  O   UNL     1       2.058   4.370  17.363  0.00  0.00    +0.000 OA
ATOM      3  O   UNL     1       3.611   3.750  19.255  0.00  0.00    +0.000 OA
ENDROOT
BRANCH   1  11
ATOM      4  O   UNL     1       8.821   5.300  12.548  0.00  0.00    +0.000 OA
ATOM      5  C   UNL     1       7.863   5.082  13.278  0.00  0.00    +0.000 A 
ATOM      6  N   UNL     1       6.777   4.371  12.860  0.00  0.00    +0.000 N 
ATOM      7  C   UNL     1       5.635   4.126  13.586  0.00  0.00    +0.000 A 
ATOM      8  O   UNL     1       4.662   3.553  13.115  0.00  0.00    +0.000 OA
ATOM      9  C   UNL     1       5.640   4.611  14.979  0.00  0.00    +0.000 A 
ATOM     10  C   UNL     1       4.554   4.378  15.827  0.00  0.00    +0.000 A 
ATOM     11  C   UNL     1       4.596   4.878  17.129  0.00  0.00    +0.000 A 
ATOM     12  C   UNL     1       5.732   5.555  17.597  0.00  0.00    +0.000 A 
ATOM     13  C   UNL     1       6.814   5.778  16.743  0.00  0.00    +0.000 A 
ATOM     14  C   UNL     1       6.759   5.314  15.430  0.00  0.00    +0.000 A 
ATOM     15  N   UNL     1       7.828   5.544  14.565  0.00  0.00    +0.000 N 
ATOM     16  H   UNL     1       6.794   4.040  11.906  0.00  0.00    +0.000 HD
ATOM     17  H   UNL     1       8.641   6.066  14.866  0.00  0.00    +0.000 HD
ENDBRANCH   1  11
BRANCH   1  18
ATOM     18  N   UNL     1       3.015   6.170  18.906  0.00  0.00    +0.000 NA
ATOM     19  C   UNL     1       2.931   6.334  20.359  0.00  0.00    +0.000 C 
ATOM     20  C   UNL     1       1.617   6.978  20.789  0.00  0.00    +0.000 C 
ATOM     21  C   UNL     1       1.363   8.282  20.074  0.00  0.00    +0.000 A 
ATOM     22  C   UNL     1       1.932   8.450  18.790  0.00  0.00    +0.000 A 
ATOM     23  C   UNL     1       1.800   9.683  18.129  0.00  0.00    +0.000 A 
ATOM     24  C   UNL     1       1.097  10.729  18.718  0.00  0.00    +0.000 A 
ATOM     25  C   UNL     1       0.472  10.537  19.947  0.00  0.00    +0.000 A 
ATOM     26  C   UNL     1       0.568   9.310  20.633  0.00  0.00    +0.000 A 
ATOM     27  C   UNL     1       2.602   7.298  18.064  0.00  0.00    +0.000 C 
BRANCH  26  28
ATOM     28  C   UNL     1      -0.221   9.183  21.923  0.00  0.00    +0.000 C 
ATOM     29  F   UNL     1      -1.045   8.106  22.001  0.00  0.00    +0.000 F 
ATOM     30  F   UNL     1       0.587   9.114  23.018  0.00  0.00    +0.000 F 
ATOM     31  F   UNL     1      -1.029  10.263  22.129  0.00  0.00    +0.000 F 
ENDBRANCH  26  28
ENDBRANCH   1  18
TORSDOF 3
ENDMDL
MODEL 6
REMARK VINA RESULT:      -7.6      7.881      9.943
REMARK  Name = 
REMARK  3 active torsions:
REMARK  status: ('A' for Active; 'I' for Inactive)
REMARK    1  A    between atoms: C_8  and  S_9
REMARK    2  A    between atoms: S_9  and  N_12
REMARK    3  A    between atoms: C_20  and  C_21
REMARK                            x       y       z     vdW  Elec       q    Type
REMARK                         _______ _______ _______ _____ _____    ______ ____
ROOT
ATOM      1  S   UNL     1       0.034  11.606  21.492  0.00  0.00    +0.000 S 
ATOM      2  O   UNL     1      -1.084  11.879  22.368  0.00  0.00    +0.000 OA
ATOM      3  O   UNL     1       1.054  10.642  21.845  0.00  0.00    +0.000 OA
ENDROOT
BRANCH   1  11
ATOM      4  O   UNL     1      -3.833  10.023  14.663  0.00  0.00    +0.000 OA
ATOM      5  C   UNL     1      -3.418  10.353  15.768  0.00  0.00    +0.000 A 
ATOM      6  N   UNL     1      -4.167  11.093  16.634  0.00  0.00    +0.000 N 
ATOM      7  C   UNL     1      -3.766  11.557  17.865  0.00  0.00    +0.000 A 
ATOM      8  O   UNL     1      -4.461  12.291  18.554  0.00  0.00    +0.000 OA
ATOM      9  C   UNL     1      -2.426  11.129  18.311  0.00  0.00    +0.000 A 
ATOM     10  C   UNL     1      -1.932  11.498  19.565  0.00  0.00    +0.000 A 
ATOM     11  C   UNL     1      -0.650  11.088  19.931  0.00  0.00    +0.000 A 
ATOM     12  C   UNL     1       0.110  10.272  19.080  0.00  0.00    +0.000 A 
ATOM     13  C   UNL     1      -0.396   9.904  17.831  0.00  0.00    +0.000 A 
ATOM     14  C   UNL     1      -1.661  10.344  17.446  0.00  0.00    +0.000 A 
ATOM     15  N   UNL     1      -2.170   9.994  16.195  0.00  0.00    +0.000 N 
ATOM     16  H   UNL     1      -5.083  11.371  16.316  0.00  0.00    +0.000 HD
ATOM     17  H   UNL     1      -1.624   9.441  15.546  0.00  0.00    +0.000 HD
ENDBRANCH   1  11
BRANCH   1  18
ATOM     18  N   UNL     1       0.815  13.037  21.108  0.00  0.00    +0.000 NA
ATOM     19  C   UNL     1       0.187  14.338  21.353  0.00  0.00    +0.000 C 
ATOM     20  C   UNL     1       0.017  15.142  20.068  0.00  0.00    +0.000 C 
ATOM     21  C   UNL     1       1.316  15.293  19.316  0.00  0.00    +0.000 A 
ATOM     22  C   UNL     1       2.293  14.284  19.481  0.00  0.00    +0.000 A 
ATOM     23  C   UNL     1       3.551  14.431  18.874  0.00  0.00    +0.000 A 
ATOM     24  C   UNL     1       3.835  15.549  18.097  0.00  0.00    +0.000 A 
ATOM     25  C   UNL     1       2.846  16.503  17.871  0.00  0.00    +0.000 A 
ATOM     26  C   UNL     1       1.566  16.382  18.448  0.00  0.00    +0.000 A 
ATOM     27  C   UNL     1       1.983  12.995  20.221  0.00  0.00    +0.000 C 
BRANCH  26  28
ATOM     28  C   UNL     1       0.542  17.435  18.068  0.00  0.00    +0.000 C 
ATOM     29  F   UNL     1      -0.656  16.957  17.641  0.00  0.00    +0.000 F 
ATOM     30  F   UNL     1       0.259  18.277  19.101  0.00  0.00    +0.000 F 
ATOM     31  F   UNL     1       0.988  18.232  17.054  0.00  0.00    +0.000 F 
ENDBRANCH  26  28
ENDBRANCH   1  18
TORSDOF 3
ENDMDL
MODEL 7
REMARK VINA RESULT:      -7.6      6.481      9.573
REMARK  Name = 
REMARK  3 active torsions:
REMARK  status: ('A' for Active; 'I' for Inactive)
REMARK    1  A    between atoms: C_8  and  S_9
REMARK    2  A    between atoms: S_9  and  N_12
REMARK    3  A    between atoms: C_20  and  C_21
REMARK                            x       y       z     vdW  Elec       q    Type
REMARK                         _______ _______ _______ _____ _____    ______ ____
ROOT
ATOM      1  S   UNL     1       0.501  10.975  20.899  0.00  0.00    +0.000 S 
ATOM      2  O   UNL     1       1.491  11.884  20.366  0.00  0.00    +0.000 OA
ATOM      3  O   UNL     1       0.371  10.746  22.321  0.00  0.00    +0.000 OA
ENDROOT
BRANCH   1  11
ATOM      4  O   UNL     1      -6.448  12.889  17.414  0.00  0.00    +0.000 OA
ATOM      5  C   UNL     1      -5.328  12.531  17.760  0.00  0.00    +0.000 A 
ATOM      6  N   UNL     1      -4.472  11.899  16.908  0.00  0.00    +0.000 N 
ATOM      7  C   UNL     1      -3.225  11.412  17.221  0.00  0.00    +0.000 A 
ATOM      8  O   UNL     1      -2.544  10.778  16.427  0.00  0.00    +0.000 OA
ATOM      9  C   UNL     1      -2.750  11.686  18.591  0.00  0.00    +0.000 A 
ATOM     10  C   UNL     1      -1.479  11.282  19.007  0.00  0.00    +0.000 A 
ATOM     11  C   UNL     1      -1.085  11.543  20.319  0.00  0.00    +0.000 A 
ATOM     12  C   UNL     1      -1.927  12.249  21.191  0.00  0.00    +0.000 A 
ATOM     13  C   UNL     1      -3.194  12.654  20.763  0.00  0.00    +0.000 A 
ATOM     14  C   UNL     1      -3.605  12.360  19.464  0.00  0.00    +0.000 A 
ATOM     15  N   UNL     1      -4.874  12.747  19.031  0.00  0.00    +0.000 N 
ATOM     16  H   UNL     1      -4.811  11.727  15.973  0.00  0.00    +0.000 HD
ATOM     17  H   UNL     1      -5.516  13.220  19.654  0.00  0.00    +0.000 HD
ENDBRANCH   1  11
BRANCH   1  18
ATOM     18  N   UNL     1       0.656   9.476  20.166  0.00  0.00    +0.000 NA
ATOM     19  C   UNL     1      -0.033   8.295  20.693  0.00  0.00    +0.000 C 
ATOM     20  C   UNL     1       0.943   7.193  21.091  0.00  0.00    +0.000 C 
ATOM     21  C   UNL     1       1.877   6.826  19.965  0.00  0.00    +0.000 A 
ATOM     22  C   UNL     1       2.175   7.822  19.007  0.00  0.00    +0.000 A 
ATOM     23  C   UNL     1       2.965   7.497  17.892  0.00  0.00    +0.000 A 
ATOM     24  C   UNL     1       3.473   6.212  17.735  0.00  0.00    +0.000 A 
ATOM     25  C   UNL     1       3.243   5.253  18.719  0.00  0.00    +0.000 A 
ATOM     26  C   UNL     1       2.470   5.546  19.860  0.00  0.00    +0.000 A 
ATOM     27  C   UNL     1       1.741   9.264  19.202  0.00  0.00    +0.000 C 
BRANCH  26  28
ATOM     28  C   UNL     1       2.354   4.454  20.907  0.00  0.00    +0.000 C 
ATOM     29  F   UNL     1       2.655   4.828  22.178  0.00  0.00    +0.000 F 
ATOM     30  F   UNL     1       1.101   3.922  20.963  0.00  0.00    +0.000 F 
ATOM     31  F   UNL     1       3.187   3.406  20.639  0.00  0.00    +0.000 F 
ENDBRANCH  26  28
ENDBRANCH   1  18
TORSDOF 3
ENDMDL
MODEL 8
REMARK VINA RESULT:      -7.5      8.868     10.877
REMARK  Name = 
REMARK  3 active torsions:
REMARK  status: ('A' for Active; 'I' for Inactive)
REMARK    1  A    between atoms: C_8  and  S_9
REMARK    2  A    between atoms: S_9  and  N_12
REMARK    3  A    between atoms: C_20  and  C_21
REMARK                            x       y       z     vdW  Elec       q    Type
REMARK                         _______ _______ _______ _____ _____    ______ ____
ROOT
ATOM      1  S   UNL     1       0.087  11.745  21.296  0.00  0.00    +0.000 S 
ATOM      2  O   UNL     1      -0.138  11.738  22.724  0.00  0.00    +0.000 OA
ATOM      3  O   UNL     1       0.676  10.612  20.617  0.00  0.00    +0.000 OA
ENDROOT
BRANCH   1  11
ATOM      4  O   UNL     1      -6.635  12.474  17.009  0.00  0.00    +0.000 OA
ATOM      5  C   UNL     1      -5.520  12.304  17.488  0.00  0.00    +0.000 A 
ATOM      6  N   UNL     1      -4.484  11.803  16.756  0.00  0.00    +0.000 N 
ATOM      7  C   UNL     1      -3.220  11.525  17.220  0.00  0.00    +0.000 A 
ATOM      8  O   UNL     1      -2.363  10.995  16.527  0.00  0.00    +0.000 OA
ATOM      9  C   UNL     1      -2.952  11.894  18.623  0.00  0.00    +0.000 A 
ATOM     10  C   UNL     1      -1.689  11.704  19.190  0.00  0.00    +0.000 A 
ATOM     11  C   UNL     1      -1.492  12.045  20.528  0.00  0.00    +0.000 A 
ATOM     12  C   UNL     1      -2.528  12.622  21.277  0.00  0.00    +0.000 A 
ATOM     13  C   UNL     1      -3.786  12.813  20.700  0.00  0.00    +0.000 A 
ATOM     14  C   UNL     1      -3.996  12.437  19.375  0.00  0.00    +0.000 A 
ATOM     15  N   UNL     1      -5.252  12.610  18.793  0.00  0.00    +0.000 N 
ATOM     16  H   UNL     1      -4.684  11.564  15.796  0.00  0.00    +0.000 HD
ATOM     17  H   UNL     1      -6.027  12.985  19.326  0.00  0.00    +0.000 HD
ENDBRANCH   1  11
BRANCH   1  18
ATOM     18  N   UNL     1       0.978  13.098  20.870  0.00  0.00    +0.000 NA
ATOM     19  C   UNL     1       0.519  14.449  21.202  0.00  0.00    +0.000 C 
ATOM     20  C   UNL     1       0.318  15.308  19.957  0.00  0.00    +0.000 C 
ATOM     21  C   UNL     1       1.550  15.345  19.087  0.00  0.00    +0.000 A 
ATOM     22  C   UNL     1       2.424  14.234  19.136  0.00  0.00    +0.000 A 
ATOM     23  C   UNL     1       3.628  14.267  18.414  0.00  0.00    +0.000 A 
ATOM     24  C   UNL     1       3.957  15.373  17.638  0.00  0.00    +0.000 A 
ATOM     25  C   UNL     1       3.060  16.433  17.529  0.00  0.00    +0.000 A 
ATOM     26  C   UNL     1       1.835  16.429  18.224  0.00  0.00    +0.000 A 
ATOM     27  C   UNL     1       2.047  12.962  19.874  0.00  0.00    +0.000 C 
BRANCH  26  28
ATOM     28  C   UNL     1       0.899  17.595  17.968  0.00  0.00    +0.000 C 
ATOM     29  F   UNL     1      -0.362  17.260  17.587  0.00  0.00    +0.000 F 
ATOM     30  F   UNL     1       0.757  18.394  19.062  0.00  0.00    +0.000 F 
ATOM     31  F   UNL     1       1.364  18.409  16.976  0.00  0.00    +0.000 F 
ENDBRANCH  26  28
ENDBRANCH   1  18
TORSDOF 3
ENDMDL
MODEL 9
REMARK VINA RESULT:      -7.5      8.718     11.819
REMARK  Name = 
REMARK  3 active torsions:
REMARK  status: ('A' for Active; 'I' for Inactive)
REMARK    1  A    between atoms: C_8  and  S_9
REMARK    2  A    between atoms: S_9  and  N_12
REMARK    3  A    between atoms: C_20  and  C_21
REMARK                            x       y       z     vdW  Elec       q    Type
REMARK                         _______ _______ _______ _____ _____    ______ ____
ROOT
ATOM      1  S   UNL     1      -3.413  13.059  23.448  0.00  0.00    +0.000 S 
ATOM      2  O   UNL     1      -3.157  14.262  24.209  0.00  0.00    +0.000 OA
ATOM      3  O   UNL     1      -4.123  11.937  24.021  0.00  0.00    +0.000 OA
ENDROOT
BRANCH   1  11
ATOM      4  O   UNL     1      -7.887  14.257  16.918  0.00  0.00    +0.000 OA
ATOM      5  C   UNL     1      -7.232  13.874  17.880  0.00  0.00    +0.000 A 
ATOM      6  N   UNL     1      -7.143  12.556  18.220  0.00  0.00    +0.000 N 
ATOM      7  C   UNL     1      -6.484  12.039  19.310  0.00  0.00    +0.000 A 
ATOM      8  O   UNL     1      -6.518  10.852  19.602  0.00  0.00    +0.000 OA
ATOM      9  C   UNL     1      -5.734  13.010  20.130  0.00  0.00    +0.000 A 
ATOM     10  C   UNL     1      -4.986  12.594  21.234  0.00  0.00    +0.000 A 
ATOM     11  C   UNL     1      -4.313  13.553  21.992  0.00  0.00    +0.000 A 
ATOM     12  C   UNL     1      -4.341  14.905  21.621  0.00  0.00    +0.000 A 
ATOM     13  C   UNL     1      -5.087  15.309  20.511  0.00  0.00    +0.000 A 
ATOM     14  C   UNL     1      -5.791  14.359  19.775  0.00  0.00    +0.000 A 
ATOM     15  N   UNL     1      -6.551  14.754  18.674  0.00  0.00    +0.000 N 
ATOM     16  H   UNL     1      -7.657  11.906  17.643  0.00  0.00    +0.000 HD
ATOM     17  H   UNL     1      -6.621  15.729  18.411  0.00  0.00    +0.000 HD
ENDBRANCH   1  11
BRANCH   1  18
ATOM     18  N   UNL     1      -1.975  12.470  22.822  0.00  0.00    +0.000 NA
ATOM     19  C   UNL     1      -1.367  13.056  21.626  0.00  0.00    +0.000 C 
ATOM     20  C   UNL     1      -1.223  12.039  20.499  0.00  0.00    +0.000 C 
ATOM     21  C   UNL     1      -0.481  10.802  20.941  0.00  0.00    +0.000 A 
ATOM     22  C   UNL     1      -0.549  10.448  22.308  0.00  0.00    +0.000 A 
ATOM     23  C   UNL     1       0.201   9.358  22.780  0.00  0.00    +0.000 A 
ATOM     24  C   UNL     1       0.992   8.615  21.911  0.00  0.00    +0.000 A 
ATOM     25  C   UNL     1       0.998   8.917  20.552  0.00  0.00    +0.000 A 
ATOM     26  C   UNL     1       0.245   9.991  20.037  0.00  0.00    +0.000 A 
ATOM     27  C   UNL     1      -1.491  11.157  23.264  0.00  0.00    +0.000 C 
BRANCH  26  28
ATOM     28  C   UNL     1       0.260  10.178  18.531  0.00  0.00    +0.000 C 
ATOM     29  F   UNL     1       0.999   9.274  17.838  0.00  0.00    +0.000 F 
ATOM     30  F   UNL     1      -0.991  10.127  17.993  0.00  0.00    +0.000 F 
ATOM     31  F   UNL     1       0.764  11.396  18.178  0.00  0.00    +0.000 F 
ENDBRANCH  26  28
ENDBRANCH   1  18
TORSDOF 3
ENDMDL
