MODEL 1
REMARK VINA RESULT:      -8.6      0.000      0.000
REMARK  Name = 
REMARK  7 active torsions:
REMARK  status: ('A' for Active; 'I' for Inactive)
REMARK    1  A    between atoms: C_1  and  C_2
REMARK    2  A    between atoms: C_5  and  C_6
REMARK    3  A    between atoms: C_9  and  C_10
REMARK    4  A    between atoms: C_10  and  C_11
REMARK    5  A    between atoms: C_10  and  N_12
REMARK    6  A    between atoms: C_16  and  C_17
REMARK    7  A    between atoms: N_19  and  C_20
REMARK                            x       y       z     vdW  Elec       q    Type
REMARK                         _______ _______ _______ _____ _____    ______ ____
ROOT
ATOM      1  N   UNL     1       4.801   5.455  16.925  0.00  0.00    +0.000 NA
ATOM      2  C   UNL     1       4.952   4.391  17.929  0.00  0.00    +0.000 C 
ATOM      3  C   UNL     1       3.617   3.985  18.556  0.00  0.00    +0.000 C 
ATOM      4  C   UNL     1       2.907   5.182  19.181  0.00  0.00    +0.000 C 
ATOM      5  C   UNL     1       2.709   6.279  18.134  0.00  0.00    +0.000 C 
ATOM      6  C   UNL     1       4.056   6.610  17.462  0.00  0.00    +0.000 C 
ENDROOT
BRANCH   5   7
ATOM      7  C   UNL     1       2.170   7.592  18.716  0.00  0.00    +0.000 C 
ATOM      8  O   UNL     1       2.062   7.729  19.932  0.00  0.00    +0.000 OA
ATOM      9  N   UNL     1       1.857   8.569  17.790  0.00  0.00    +0.000 N 
ATOM     10  H   UNL     1       1.837   8.310  16.811  0.00  0.00    +0.000 HD
BRANCH   9  11
ATOM     11  C   UNL     1       1.395   9.870  18.106  0.00  0.00    +0.000 A 
ATOM     12  C   UNL     1       2.247  10.973  18.241  0.00  0.00    +0.000 A 
ATOM     13  C   UNL     1       1.748  12.226  18.596  0.00  0.00    +0.000 A 
ATOM     14  C   UNL     1       0.386  12.395  18.817  0.00  0.00    +0.000 A 
ATOM     15  C   UNL     1      -0.479  11.314  18.656  0.00  0.00    +0.000 A 
ATOM     16  C   UNL     1       0.021  10.058  18.289  0.00  0.00    +0.000 A 
ENDBRANCH   9  11
ENDBRANCH   5   7
BRANCH   1  17
ATOM     17  C   UNL     1       6.113   5.940  16.365  0.00  0.00    +0.000 C 
ATOM     18  C   UNL     1       7.002   4.780  15.909  0.00  0.00    +0.000 C 
BRANCH  17  22
ATOM     19  C   UNL     1       8.019   8.395  18.152  0.00  0.00    +0.000 A 
ATOM     20  N   UNL     1       8.421   7.298  18.813  0.00  0.00    +0.000 NA
ATOM     21  O   UNL     1       7.677   6.268  18.230  0.00  0.00    +0.000 OA
ATOM     22  C   UNL     1       6.887   6.852  17.283  0.00  0.00    +0.000 A 
ATOM     23  N   UNL     1       7.020   8.159  17.238  0.00  0.00    +0.000 NA
BRANCH  19  28
ATOM     24  C   UNL     1      10.287  13.687  18.646  0.00  0.00    +0.000 C 
ATOM     25  C   UNL     1       9.714  12.308  18.542  0.00  0.00    +0.000 A 
ATOM     26  C   UNL     1      10.211  11.249  19.311  0.00  0.00    +0.000 A 
ATOM     27  C   UNL     1       9.657   9.968  19.193  0.00  0.00    +0.000 A 
ATOM     28  C   UNL     1       8.596   9.725  18.310  0.00  0.00    +0.000 A 
ATOM     29  C   UNL     1       8.104  10.788  17.540  0.00  0.00    +0.000 A 
ATOM     30  C   UNL     1       8.660  12.057  17.662  0.00  0.00    +0.000 A 
ATOM     31  F   UNL     1       8.167  13.053  16.911  0.00  0.00    +0.000 F 
ENDBRANCH  19  28
ENDBRANCH  17  22
ENDBRANCH   1  17
TORSDOF 5
ENDMDL
MODEL 2
REMARK VINA RESULT:      -8.5      1.094      1.589
REMARK  Name = 
REMARK  7 active torsions:
REMARK  status: ('A' for Active; 'I' for Inactive)
REMARK    1  A    between atoms: C_1  and  C_2
REMARK    2  A    between atoms: C_5  and  C_6
REMARK    3  A    between atoms: C_9  and  C_10
REMARK    4  A    between atoms: C_10  and  C_11
REMARK    5  A    between atoms: C_10  and  N_12
REMARK    6  A    between atoms: C_16  and  C_17
REMARK    7  A    between atoms: N_19  and  C_20
REMARK                            x       y       z     vdW  Elec       q    Type
REMARK                         _______ _______ _______ _____ _____    ______ ____
ROOT
ATOM      1  N   UNL     1       4.984   5.319  16.474  0.00  0.00    +0.000 NA
ATOM      2  C   UNL     1       5.008   4.043  17.205  0.00  0.00    +0.000 C 
ATOM      3  C   UNL     1       3.618   3.612  17.677  0.00  0.00    +0.000 C 
ATOM      4  C   UNL     1       2.966   4.686  18.544  0.00  0.00    +0.000 C 
ATOM      5  C   UNL     1       2.899   6.008  17.777  0.00  0.00    +0.000 C 
ATOM      6  C   UNL     1       4.298   6.375  17.244  0.00  0.00    +0.000 C 
ENDROOT
BRANCH   5   7
ATOM      7  C   UNL     1       2.427   7.190  18.634  0.00  0.00    +0.000 C 
ATOM      8  O   UNL     1       2.372   7.081  19.857  0.00  0.00    +0.000 OA
ATOM      9  N   UNL     1       2.111   8.341  17.937  0.00  0.00    +0.000 N 
ATOM     10  H   UNL     1       2.044   8.284  16.929  0.00  0.00    +0.000 HD
BRANCH   9  11
ATOM     11  C   UNL     1       1.706   9.563  18.528  0.00  0.00    +0.000 A 
ATOM     12  C   UNL     1       0.809   9.634  19.600  0.00  0.00    +0.000 A 
ATOM     13  C   UNL     1       0.407  10.865  20.119  0.00  0.00    +0.000 A 
ATOM     14  C   UNL     1       0.903  12.045  19.575  0.00  0.00    +0.000 A 
ATOM     15  C   UNL     1       1.822  11.989  18.528  0.00  0.00    +0.000 A 
ATOM     16  C   UNL     1       2.233  10.752  18.014  0.00  0.00    +0.000 A 
ENDBRANCH   9  11
ENDBRANCH   5   7
BRANCH   1  17
ATOM     17  C   UNL     1       6.353   5.812  16.085  0.00  0.00    +0.000 C 
ATOM     18  C   UNL     1       7.301   4.657  15.752  0.00  0.00    +0.000 C 
BRANCH  17  22
ATOM     19  C   UNL     1       7.990   8.291  18.092  0.00  0.00    +0.000 A 
ATOM     20  N   UNL     1       8.328   7.198  18.795  0.00  0.00    +0.000 NA
ATOM     21  O   UNL     1       7.676   6.159  18.125  0.00  0.00    +0.000 OA
ATOM     22  C   UNL     1       6.997   6.734  17.091  0.00  0.00    +0.000 A 
ATOM     23  N   UNL     1       7.112   8.042  17.064  0.00  0.00    +0.000 NA
BRANCH  19  28
ATOM     24  C   UNL     1      10.090  13.573  19.130  0.00  0.00    +0.000 C 
ATOM     25  C   UNL     1       9.537  12.214  18.835  0.00  0.00    +0.000 A 
ATOM     26  C   UNL     1       8.687  11.991  17.746  0.00  0.00    +0.000 A 
ATOM     27  C   UNL     1       8.182  10.708  17.492  0.00  0.00    +0.000 A 
ATOM     28  C   UNL     1       8.523   9.630  18.320  0.00  0.00    +0.000 A 
ATOM     29  C   UNL     1       9.371   9.860  19.412  0.00  0.00    +0.000 A 
ATOM     30  C   UNL     1       9.867  11.136  19.656  0.00  0.00    +0.000 A 
ATOM     31  F   UNL     1      10.677  11.323  20.709  0.00  0.00    +0.000 F 
ENDBRANCH  19  28
ENDBRANCH  17  22
ENDBRANCH   1  17
TORSDOF 5
ENDMDL
MODEL 3
REMARK VINA RESULT:      -8.5      1.000      1.324
REMARK  Name = 
REMARK  7 active torsions:
REMARK  status: ('A' for Active; 'I' for Inactive)
REMARK    1  A    between atoms: C_1  and  C_2
REMARK    2  A    between atoms: C_5  and  C_6
REMARK    3  A    between atoms: C_9  and  C_10
REMARK    4  A    between atoms: C_10  and  C_11
REMARK    5  A    between atoms: C_10  and  N_12
REMARK    6  A    between atoms: C_16  and  C_17
REMARK    7  A    between atoms: N_19  and  C_20
REMARK                            x       y       z     vdW  Elec       q    Type
REMARK                         _______ _______ _______ _____ _____    ______ ____
ROOT
ATOM      1  N   UNL     1       4.793   5.843  17.060  0.00  0.00    +0.000 NA
ATOM      2  C   UNL     1       5.012   4.817  18.091  0.00  0.00    +0.000 C 
ATOM      3  C   UNL     1       3.711   4.380  18.766  0.00  0.00    +0.000 C 
ATOM      4  C   UNL     1       2.972   5.568  19.376  0.00  0.00    +0.000 C 
ATOM      5  C   UNL     1       2.705   6.624  18.303  0.00  0.00    +0.000 C 
ATOM      6  C   UNL     1       4.019   6.985  17.585  0.00  0.00    +0.000 C 
ENDROOT
BRANCH   5   7
ATOM      7  C   UNL     1       2.131   7.933  18.861  0.00  0.00    +0.000 C 
ATOM      8  O   UNL     1       2.015   8.087  20.074  0.00  0.00    +0.000 OA
ATOM      9  N   UNL     1       1.798   8.887  17.918  0.00  0.00    +0.000 N 
ATOM     10  H   UNL     1       1.788   8.611  16.943  0.00  0.00    +0.000 HD
BRANCH   9  11
ATOM     11  C   UNL     1       1.304  10.182  18.210  0.00  0.00    +0.000 A 
ATOM     12  C   UNL     1       2.116  11.320  18.250  0.00  0.00    +0.000 A 
ATOM     13  C   UNL     1       1.589  12.567  18.586  0.00  0.00    +0.000 A 
ATOM     14  C   UNL     1       0.237  12.693  18.883  0.00  0.00    +0.000 A 
ATOM     15  C   UNL     1      -0.591  11.574  18.817  0.00  0.00    +0.000 A 
ATOM     16  C   UNL     1      -0.064  10.324  18.470  0.00  0.00    +0.000 A 
ENDBRANCH   9  11
ENDBRANCH   5   7
BRANCH   1  17
ATOM     17  C   UNL     1       6.070   6.360  16.450  0.00  0.00    +0.000 C 
ATOM     18  C   UNL     1       6.918   5.229  15.861  0.00  0.00    +0.000 C 
BRANCH  17  22
ATOM     19  C   UNL     1       8.111   8.681  18.267  0.00  0.00    +0.000 A 
ATOM     20  N   UNL     1       8.534   7.541  18.837  0.00  0.00    +0.000 NA
ATOM     21  O   UNL     1       7.741   6.557  18.238  0.00  0.00    +0.000 OA
ATOM     22  C   UNL     1       6.909   7.206  17.374  0.00  0.00    +0.000 A 
ATOM     23  N   UNL     1       7.058   8.511  17.399  0.00  0.00    +0.000 NA
BRANCH  19  28
ATOM     24  C   UNL     1      10.496  13.859  19.206  0.00  0.00    +0.000 C 
ATOM     25  C   UNL     1       9.870  12.527  18.935  0.00  0.00    +0.000 A 
ATOM     26  C   UNL     1       9.031  12.322  17.834  0.00  0.00    +0.000 A 
ATOM     27  C   UNL     1       8.458  11.064  17.605  0.00  0.00    +0.000 A 
ATOM     28  C   UNL     1       8.716   9.992  18.470  0.00  0.00    +0.000 A 
ATOM     29  C   UNL     1       9.553  10.204  19.573  0.00  0.00    +0.000 A 
ATOM     30  C   UNL     1      10.118  11.455  19.794  0.00  0.00    +0.000 A 
ATOM     31  F   UNL     1      10.916  11.626  20.859  0.00  0.00    +0.000 F 
ENDBRANCH  19  28
ENDBRANCH  17  22
ENDBRANCH   1  17
TORSDOF 5
ENDMDL
MODEL 4
REMARK VINA RESULT:      -8.4      0.708      1.031
REMARK  Name = 
REMARK  7 active torsions:
REMARK  status: ('A' for Active; 'I' for Inactive)
REMARK    1  A    between atoms: C_1  and  C_2
REMARK    2  A    between atoms: C_5  and  C_6
REMARK    3  A    between atoms: C_9  and  C_10
REMARK    4  A    between atoms: C_10  and  C_11
REMARK    5  A    between atoms: C_10  and  N_12
REMARK    6  A    between atoms: C_16  and  C_17
REMARK    7  A    between atoms: N_19  and  C_20
REMARK                            x       y       z     vdW  Elec       q    Type
REMARK                         _______ _______ _______ _____ _____    ______ ____
ROOT
ATOM      1  N   UNL     1       4.987   5.313  16.341  0.00  0.00    +0.000 NA
ATOM      2  C   UNL     1       4.765   3.989  16.942  0.00  0.00    +0.000 C 
ATOM      3  C   UNL     1       3.291   3.732  17.262  0.00  0.00    +0.000 C 
ATOM      4  C   UNL     1       2.721   4.813  18.177  0.00  0.00    +0.000 C 
ATOM      5  C   UNL     1       2.913   6.190  17.541  0.00  0.00    +0.000 C 
ATOM      6  C   UNL     1       4.391   6.388  17.156  0.00  0.00    +0.000 C 
ENDROOT
BRANCH   5   7
ATOM      7  C   UNL     1       2.538   7.352  18.471  0.00  0.00    +0.000 C 
ATOM      8  O   UNL     1       2.764   7.274  19.676  0.00  0.00    +0.000 OA
ATOM      9  N   UNL     1       1.973   8.451  17.852  0.00  0.00    +0.000 N 
ATOM     10  H   UNL     1       1.690   8.360  16.885  0.00  0.00    +0.000 HD
BRANCH   9  11
ATOM     11  C   UNL     1       1.601   9.651  18.508  0.00  0.00    +0.000 A 
ATOM     12  C   UNL     1       0.743   9.684  19.613  0.00  0.00    +0.000 A 
ATOM     13  C   UNL     1       0.372  10.895  20.198  0.00  0.00    +0.000 A 
ATOM     14  C   UNL     1       0.859  12.092  19.686  0.00  0.00    +0.000 A 
ATOM     15  C   UNL     1       1.739  12.073  18.605  0.00  0.00    +0.000 A 
ATOM     16  C   UNL     1       2.120  10.857  18.025  0.00  0.00    +0.000 A 
ENDBRANCH   9  11
ENDBRANCH   5   7
BRANCH   1  17
ATOM     17  C   UNL     1       6.442   5.627  16.108  0.00  0.00    +0.000 C 
ATOM     18  C   UNL     1       7.293   4.357  16.023  0.00  0.00    +0.000 C 
BRANCH  17  22
ATOM     19  C   UNL     1       7.981   8.186  18.092  0.00  0.00    +0.000 A 
ATOM     20  N   UNL     1       8.329   7.116  18.826  0.00  0.00    +0.000 NA
ATOM     21  O   UNL     1       7.715   6.048  18.166  0.00  0.00    +0.000 OA
ATOM     22  C   UNL     1       7.044   6.584  17.106  0.00  0.00    +0.000 A 
ATOM     23  N   UNL     1       7.130   7.894  17.053  0.00  0.00    +0.000 NA
BRANCH  19  28
ATOM     24  C   UNL     1       9.934  13.579  18.789  0.00  0.00    +0.000 C 
ATOM     25  C   UNL     1       9.443  12.174  18.633  0.00  0.00    +0.000 A 
ATOM     26  C   UNL     1       9.968  11.126  19.397  0.00  0.00    +0.000 A 
ATOM     27  C   UNL     1       9.489   9.819  19.231  0.00  0.00    +0.000 A 
ATOM     28  C   UNL     1       8.478   9.541  18.302  0.00  0.00    +0.000 A 
ATOM     29  C   UNL     1       7.958  10.593  17.536  0.00  0.00    +0.000 A 
ATOM     30  C   UNL     1       8.439  11.887  17.707  0.00  0.00    +0.000 A 
ATOM     31  F   UNL     1       7.921  12.873  16.959  0.00  0.00    +0.000 F 
ENDBRANCH  19  28
ENDBRANCH  17  22
ENDBRANCH   1  17
TORSDOF 5
ENDMDL
MODEL 5
REMARK VINA RESULT:      -8.4      1.742      2.102
REMARK  Name = 
REMARK  7 active torsions:
REMARK  status: ('A' for Active; 'I' for Inactive)
REMARK    1  A    between atoms: C_1  and  C_2
REMARK    2  A    between atoms: C_5  and  C_6
REMARK    3  A    between atoms: C_9  and  C_10
REMARK    4  A    between atoms: C_10  and  C_11
REMARK    5  A    between atoms: C_10  and  N_12
REMARK    6  A    between atoms: C_16  and  C_17
REMARK    7  A    between atoms: N_19  and  C_20
REMARK                            x       y       z     vdW  Elec       q    Type
REMARK                         _______ _______ _______ _____ _____    ______ ____
ROOT
ATOM      1  N   UNL     1       5.117   5.476  16.524  0.00  0.00    +0.000 NA
ATOM      2  C   UNL     1       4.918   4.226  17.272  0.00  0.00    +0.000 C 
ATOM      3  C   UNL     1       3.446   3.972  17.605  0.00  0.00    +0.000 C 
ATOM      4  C   UNL     1       2.840   5.136  18.383  0.00  0.00    +0.000 C 
ATOM      5  C   UNL     1       3.007   6.436  17.593  0.00  0.00    +0.000 C 
ATOM      6  C   UNL     1       4.485   6.624  17.202  0.00  0.00    +0.000 C 
ENDROOT
BRANCH   5   7
ATOM      7  C   UNL     1       2.593   7.687  18.378  0.00  0.00    +0.000 C 
ATOM      8  O   UNL     1       2.910   8.803  17.972  0.00  0.00    +0.000 OA
ATOM      9  N   UNL     1       1.844   7.455  19.517  0.00  0.00    +0.000 N 
ATOM     10  H   UNL     1       1.765   6.502  19.849  0.00  0.00    +0.000 HD
BRANCH   9  11
ATOM     11  C   UNL     1       1.314   8.462  20.360  0.00  0.00    +0.000 A 
ATOM     12  C   UNL     1       1.410   8.421  21.755  0.00  0.00    +0.000 A 
ATOM     13  C   UNL     1       0.833   9.417  22.544  0.00  0.00    +0.000 A 
ATOM     14  C   UNL     1       0.154  10.472  21.946  0.00  0.00    +0.000 A 
ATOM     15  C   UNL     1       0.077  10.544  20.556  0.00  0.00    +0.000 A 
ATOM     16  C   UNL     1       0.666   9.549  19.764  0.00  0.00    +0.000 A 
ENDBRANCH   9  11
ENDBRANCH   5   7
BRANCH   1  17
ATOM     17  C   UNL     1       6.566   5.797  16.270  0.00  0.00    +0.000 C 
ATOM     18  C   UNL     1       7.426   4.532  16.196  0.00  0.00    +0.000 C 
BRANCH  17  22
ATOM     19  C   UNL     1       8.123   8.391  18.195  0.00  0.00    +0.000 A 
ATOM     20  N   UNL     1       8.445   7.338  18.965  0.00  0.00    +0.000 NA
ATOM     21  O   UNL     1       7.821   6.260  18.330  0.00  0.00    +0.000 OA
ATOM     22  C   UNL     1       7.172   6.775  17.246  0.00  0.00    +0.000 A 
ATOM     23  N   UNL     1       7.280   8.081  17.155  0.00  0.00    +0.000 NA
BRANCH  19  28
ATOM     24  C   UNL     1      10.163  13.733  19.022  0.00  0.00    +0.000 C 
ATOM     25  C   UNL     1       9.624  12.357  18.781  0.00  0.00    +0.000 A 
ATOM     26  C   UNL     1       8.746  12.090  17.725  0.00  0.00    +0.000 A 
ATOM     27  C   UNL     1       8.256  10.793  17.523  0.00  0.00    +0.000 A 
ATOM     28  C   UNL     1       8.639   9.744  18.370  0.00  0.00    +0.000 A 
ATOM     29  C   UNL     1       9.515  10.018  19.428  0.00  0.00    +0.000 A 
ATOM     30  C   UNL     1       9.997  11.308  19.622  0.00  0.00    +0.000 A 
ATOM     31  F   UNL     1      10.835  11.538  20.644  0.00  0.00    +0.000 F 
ENDBRANCH  19  28
ENDBRANCH  17  22
ENDBRANCH   1  17
TORSDOF 5
ENDMDL
MODEL 6
REMARK VINA RESULT:      -8.3      1.737      2.205
REMARK  Name = 
REMARK  7 active torsions:
REMARK  status: ('A' for Active; 'I' for Inactive)
REMARK    1  A    between atoms: C_1  and  C_2
REMARK    2  A    between atoms: C_5  and  C_6
REMARK    3  A    between atoms: C_9  and  C_10
REMARK    4  A    between atoms: C_10  and  C_11
REMARK    5  A    between atoms: C_10  and  N_12
REMARK    6  A    between atoms: C_16  and  C_17
REMARK    7  A    between atoms: N_19  and  C_20
REMARK                            x       y       z     vdW  Elec       q    Type
REMARK                         _______ _______ _______ _____ _____    ______ ____
ROOT
ATOM      1  N   UNL     1       5.968   5.574  17.541  0.00  0.00    +0.000 NA
ATOM      2  C   UNL     1       5.767   4.135  17.312  0.00  0.00    +0.000 C 
ATOM      3  C   UNL     1       4.377   3.819  16.757  0.00  0.00    +0.000 C 
ATOM      4  C   UNL     1       3.277   4.350  17.672  0.00  0.00    +0.000 C 
ATOM      5  C   UNL     1       3.454   5.854  17.884  0.00  0.00    +0.000 C 
ATOM      6  C   UNL     1       4.888   6.150  18.365  0.00  0.00    +0.000 C 
ENDROOT
BRANCH   5   7
ATOM      7  C   UNL     1       2.504   6.441  18.937  0.00  0.00    +0.000 C 
ATOM      8  O   UNL     1       1.993   5.709  19.782  0.00  0.00    +0.000 OA
ATOM      9  N   UNL     1       2.308   7.807  18.866  0.00  0.00    +0.000 N 
ATOM     10  H   UNL     1       2.650   8.296  18.048  0.00  0.00    +0.000 HD
BRANCH   9  11
ATOM     11  C   UNL     1       1.516   8.562  19.766  0.00  0.00    +0.000 A 
ATOM     12  C   UNL     1       0.700   9.625  19.361  0.00  0.00    +0.000 A 
ATOM     13  C   UNL     1      -0.028  10.366  20.292  0.00  0.00    +0.000 A 
ATOM     14  C   UNL     1       0.047  10.050  21.644  0.00  0.00    +0.000 A 
ATOM     15  C   UNL     1       0.831   8.975  22.059  0.00  0.00    +0.000 A 
ATOM     16  C   UNL     1       1.554   8.224  21.123  0.00  0.00    +0.000 A 
ENDBRANCH   9  11
ENDBRANCH   5   7
BRANCH   1  17
ATOM     17  C   UNL     1       7.293   5.899  18.179  0.00  0.00    +0.000 C 
ATOM     18  C   UNL     1       7.303   5.565  19.673  0.00  0.00    +0.000 C 
BRANCH  17  22
ATOM     19  C   UNL     1       8.424   9.301  18.160  0.00  0.00    +0.000 A 
ATOM     20  N   UNL     1       7.642   9.336  17.069  0.00  0.00    +0.000 NA
ATOM     21  O   UNL     1       7.191   8.019  16.942  0.00  0.00    +0.000 OA
ATOM     22  C   UNL     1       7.760   7.317  17.965  0.00  0.00    +0.000 A 
ATOM     23  N   UNL     1       8.568   8.046  18.701  0.00  0.00    +0.000 NA
BRANCH  19  28
ATOM     24  C   UNL     1      10.929  13.941  20.523  0.00  0.00    +0.000 C 
ATOM     25  C   UNL     1      10.276  12.728  19.938  0.00  0.00    +0.000 A 
ATOM     26  C   UNL     1      10.031  11.585  20.708  0.00  0.00    +0.000 A 
ATOM     27  C   UNL     1       9.419  10.463  20.135  0.00  0.00    +0.000 A 
ATOM     28  C   UNL     1       9.040  10.466  18.786  0.00  0.00    +0.000 A 
ATOM     29  C   UNL     1       9.291  11.611  18.018  0.00  0.00    +0.000 A 
ATOM     30  C   UNL     1       9.899  12.721  18.594  0.00  0.00    +0.000 A 
ATOM     31  F   UNL     1      10.126  13.802  17.833  0.00  0.00    +0.000 F 
ENDBRANCH  19  28
ENDBRANCH  17  22
ENDBRANCH   1  17
TORSDOF 5
ENDMDL
MODEL 7
REMARK VINA RESULT:      -8.3      3.753      4.745
REMARK  Name = 
REMARK  7 active torsions:
REMARK  status: ('A' for Active; 'I' for Inactive)
REMARK    1  A    between atoms: C_1  and  C_2
REMARK    2  A    between atoms: C_5  and  C_6
REMARK    3  A    between atoms: C_9  and  C_10
REMARK    4  A    between atoms: C_10  and  C_11
REMARK    5  A    between atoms: C_10  and  N_12
REMARK    6  A    between atoms: C_16  and  C_17
REMARK    7  A    between atoms: N_19  and  C_20
REMARK                            x       y       z     vdW  Elec       q    Type
REMARK                         _______ _______ _______ _____ _____    ______ ____
ROOT
ATOM      1  N   UNL     1       6.927   5.826  16.830  0.00  0.00    +0.000 NA
ATOM      2  C   UNL     1       7.584   4.869  15.927  0.00  0.00    +0.000 C 
ATOM      3  C   UNL     1       6.623   4.296  14.883  0.00  0.00    +0.000 C 
ATOM      4  C   UNL     1       5.415   3.634  15.540  0.00  0.00    +0.000 C 
ATOM      5  C   UNL     1       4.701   4.634  16.450  0.00  0.00    +0.000 C 
ATOM      6  C   UNL     1       5.709   5.255  17.437  0.00  0.00    +0.000 C 
ENDROOT
BRANCH   5   7
ATOM      7  C   UNL     1       3.585   4.006  17.294  0.00  0.00    +0.000 C 
ATOM      8  O   UNL     1       2.688   3.365  16.751  0.00  0.00    +0.000 OA
ATOM      9  N   UNL     1       3.690   4.198  18.659  0.00  0.00    +0.000 N 
ATOM     10  H   UNL     1       4.376   4.863  18.995  0.00  0.00    +0.000 HD
BRANCH   9  11
ATOM     11  C   UNL     1       2.803   3.664  19.626  0.00  0.00    +0.000 A 
ATOM     12  C   UNL     1       1.425   3.907  19.617  0.00  0.00    +0.000 A 
ATOM     13  C   UNL     1       0.599   3.394  20.616  0.00  0.00    +0.000 A 
ATOM     14  C   UNL     1       1.141   2.625  21.639  0.00  0.00    +0.000 A 
ATOM     15  C   UNL     1       2.506   2.347  21.645  0.00  0.00    +0.000 A 
ATOM     16  C   UNL     1       3.334   2.854  20.635  0.00  0.00    +0.000 A 
ENDBRANCH   9  11
ENDBRANCH   5   7
BRANCH   1  17
ATOM     17  C   UNL     1       7.828   6.329  17.927  0.00  0.00    +0.000 C 
ATOM     18  C   UNL     1       7.330   5.906  19.312  0.00  0.00    +0.000 C 
BRANCH  17  22
ATOM     19  C   UNL     1       8.496   9.826  18.351  0.00  0.00    +0.000 A 
ATOM     20  N   UNL     1       7.587   9.906  17.366  0.00  0.00    +0.000 NA
ATOM     21  O   UNL     1       7.299   8.569  17.072  0.00  0.00    +0.000 OA
ATOM     22  C   UNL     1       8.077   7.816  17.902  0.00  0.00    +0.000 A 
ATOM     23  N   UNL     1       8.868   8.539  18.661  0.00  0.00    +0.000 NA
BRANCH  19  28
ATOM     24  C   UNL     1      10.671  14.371  21.178  0.00  0.00    +0.000 C 
ATOM     25  C   UNL     1      10.104  13.180  20.472  0.00  0.00    +0.000 A 
ATOM     26  C   UNL     1       9.910  11.961  21.132  0.00  0.00    +0.000 A 
ATOM     27  C   UNL     1       9.377  10.861  20.446  0.00  0.00    +0.000 A 
ATOM     28  C   UNL     1       9.028  10.963  19.093  0.00  0.00    +0.000 A 
ATOM     29  C   UNL     1       9.229  12.184  18.435  0.00  0.00    +0.000 A 
ATOM     30  C   UNL     1       9.758  13.271  19.123  0.00  0.00    +0.000 A 
ATOM     31  F   UNL     1       9.938  14.426  18.465  0.00  0.00    +0.000 F 
ENDBRANCH  19  28
ENDBRANCH  17  22
ENDBRANCH   1  17
TORSDOF 5
ENDMDL
MODEL 8
REMARK VINA RESULT:      -8.2      1.420      1.787
REMARK  Name = 
REMARK  7 active torsions:
REMARK  status: ('A' for Active; 'I' for Inactive)
REMARK    1  A    between atoms: C_1  and  C_2
REMARK    2  A    between atoms: C_5  and  C_6
REMARK    3  A    between atoms: C_9  and  C_10
REMARK    4  A    between atoms: C_10  and  C_11
REMARK    5  A    between atoms: C_10  and  N_12
REMARK    6  A    between atoms: C_16  and  C_17
REMARK    7  A    between atoms: N_19  and  C_20
REMARK                            x       y       z     vdW  Elec       q    Type
REMARK                         _______ _______ _______ _____ _____    ______ ____
ROOT
ATOM      1  N   UNL     1       5.065   5.790  17.376  0.00  0.00    +0.000 NA
ATOM      2  C   UNL     1       5.152   5.129  18.687  0.00  0.00    +0.000 C 
ATOM      3  C   UNL     1       3.776   4.881  19.309  0.00  0.00    +0.000 C 
ATOM      4  C   UNL     1       2.981   6.177  19.440  0.00  0.00    +0.000 C 
ATOM      5  C   UNL     1       2.851   6.852  18.074  0.00  0.00    +0.000 C 
ATOM      6  C   UNL     1       4.245   7.014  17.436  0.00  0.00    +0.000 C 
ENDROOT
BRANCH   5   7
ATOM      7  C   UNL     1       2.228   8.252  18.138  0.00  0.00    +0.000 C 
ATOM      8  O   UNL     1       2.436   9.062  17.238  0.00  0.00    +0.000 OA
ATOM      9  N   UNL     1       1.426   8.496  19.238  0.00  0.00    +0.000 N 
ATOM     10  H   UNL     1       1.438   7.824  19.995  0.00  0.00    +0.000 HD
BRANCH   9  11
ATOM     11  C   UNL     1       0.712   9.697  19.472  0.00  0.00    +0.000 A 
ATOM     12  C   UNL     1      -0.268  10.187  18.601  0.00  0.00    +0.000 A 
ATOM     13  C   UNL     1      -0.913  11.398  18.854  0.00  0.00    +0.000 A 
ATOM     14  C   UNL     1      -0.590  12.134  19.987  0.00  0.00    +0.000 A 
ATOM     15  C   UNL     1       0.361  11.644  20.881  0.00  0.00    +0.000 A 
ATOM     16  C   UNL     1       1.002  10.423  20.631  0.00  0.00    +0.000 A 
ENDBRANCH   9  11
ENDBRANCH   5   7
BRANCH   1  17
ATOM     17  C   UNL     1       6.409   6.132  16.789  0.00  0.00    +0.000 C 
ATOM     18  C   UNL     1       7.297   4.894  16.638  0.00  0.00    +0.000 C 
BRANCH  17  22
ATOM     19  C   UNL     1       8.230   8.928  18.101  0.00  0.00    +0.000 A 
ATOM     20  N   UNL     1       8.697   7.973  18.921  0.00  0.00    +0.000 NA
ATOM     21  O   UNL     1       7.991   6.830  18.534  0.00  0.00    +0.000 OA
ATOM     22  C   UNL     1       7.157   7.216  17.525  0.00  0.00    +0.000 A 
ATOM     23  N   UNL     1       7.227   8.502  17.265  0.00  0.00    +0.000 NA
BRANCH  19  28
ATOM     24  C   UNL     1      10.348  14.301  17.911  0.00  0.00    +0.000 C 
ATOM     25  C   UNL     1       9.776  12.918  17.945  0.00  0.00    +0.000 A 
ATOM     26  C   UNL     1       8.456  12.663  17.557  0.00  0.00    +0.000 A 
ATOM     27  C   UNL     1       7.945  11.358  17.599  0.00  0.00    +0.000 A 
ATOM     28  C   UNL     1       8.746  10.290  18.025  0.00  0.00    +0.000 A 
ATOM     29  C   UNL     1      10.066  10.552  18.416  0.00  0.00    +0.000 A 
ATOM     30  C   UNL     1      10.565  11.850  18.372  0.00  0.00    +0.000 A 
ATOM     31  F   UNL     1      11.833  12.068  18.752  0.00  0.00    +0.000 F 
ENDBRANCH  19  28
ENDBRANCH  17  22
ENDBRANCH   1  17
TORSDOF 5
ENDMDL
MODEL 9
REMARK VINA RESULT:      -8.1      1.494      1.857
REMARK  Name = 
REMARK  7 active torsions:
REMARK  status: ('A' for Active; 'I' for Inactive)
REMARK    1  A    between atoms: C_1  and  C_2
REMARK    2  A    between atoms: C_5  and  C_6
REMARK    3  A    between atoms: C_9  and  C_10
REMARK    4  A    between atoms: C_10  and  C_11
REMARK    5  A    between atoms: C_10  and  N_12
REMARK    6  A    between atoms: C_16  and  C_17
REMARK    7  A    between atoms: N_19  and  C_20
REMARK                            x       y       z     vdW  Elec       q    Type
REMARK                         _______ _______ _______ _____ _____    ______ ____
ROOT
ATOM      1  N   UNL     1       5.720   5.512  17.657  0.00  0.00    +0.000 NA
ATOM      2  C   UNL     1       5.199   4.167  17.944  0.00  0.00    +0.000 C 
ATOM      3  C   UNL     1       3.770   3.972  17.435  0.00  0.00    +0.000 C 
ATOM      4  C   UNL     1       2.824   5.022  18.011  0.00  0.00    +0.000 C 
ATOM      5  C   UNL     1       3.336   6.425  17.682  0.00  0.00    +0.000 C 
ATOM      6  C   UNL     1       4.803   6.565  18.133  0.00  0.00    +0.000 C 
ENDROOT
BRANCH   5   7
ATOM      7  C   UNL     1       2.550   7.543  18.377  0.00  0.00    +0.000 C 
ATOM      8  O   UNL     1       2.311   7.473  19.581  0.00  0.00    +0.000 OA
ATOM      9  N   UNL     1       2.176   8.600  17.568  0.00  0.00    +0.000 N 
ATOM     10  H   UNL     1       2.286   8.496  16.567  0.00  0.00    +0.000 HD
BRANCH   9  11
ATOM     11  C   UNL     1       1.492   9.759  18.010  0.00  0.00    +0.000 A 
ATOM     12  C   UNL     1       2.140  10.963  18.308  0.00  0.00    +0.000 A 
ATOM     13  C   UNL     1       1.427  12.065  18.781  0.00  0.00    +0.000 A 
ATOM     14  C   UNL     1       0.051  11.978  18.959  0.00  0.00    +0.000 A 
ATOM     15  C   UNL     1      -0.613  10.795  18.636  0.00  0.00    +0.000 A 
ATOM     16  C   UNL     1       0.102   9.693  18.151  0.00  0.00    +0.000 A 
ENDBRANCH   9  11
ENDBRANCH   5   7
BRANCH   1  17
ATOM     17  C   UNL     1       7.088   5.760  18.235  0.00  0.00    +0.000 C 
ATOM     18  C   UNL     1       7.137   5.455  19.735  0.00  0.00    +0.000 C 
BRANCH  17  22
ATOM     19  C   UNL     1       8.423   9.085  18.098  0.00  0.00    +0.000 A 
ATOM     20  N   UNL     1       7.643   9.128  17.005  0.00  0.00    +0.000 NA
ATOM     21  O   UNL     1       7.114   7.836  16.925  0.00  0.00    +0.000 OA
ATOM     22  C   UNL     1       7.640   7.138  17.972  0.00  0.00    +0.000 A 
ATOM     23  N   UNL     1       8.491   7.843  18.683  0.00  0.00    +0.000 NA
BRANCH  19  28
ATOM     24  C   UNL     1      11.035  13.642  20.506  0.00  0.00    +0.000 C 
ATOM     25  C   UNL     1      10.372  12.467  19.856  0.00  0.00    +0.000 A 
ATOM     26  C   UNL     1      10.436  12.263  18.473  0.00  0.00    +0.000 A 
ATOM     27  C   UNL     1       9.806  11.154  17.892  0.00  0.00    +0.000 A 
ATOM     28  C   UNL     1       9.107  10.232  18.683  0.00  0.00    +0.000 A 
ATOM     29  C   UNL     1       9.043  10.444  20.066  0.00  0.00    +0.000 A 
ATOM     30  C   UNL     1       9.671  11.546  20.636  0.00  0.00    +0.000 A 
ATOM     31  F   UNL     1       9.591  11.721  21.964  0.00  0.00    +0.000 F 
ENDBRANCH  19  28
ENDBRANCH  17  22
ENDBRANCH   1  17
TORSDOF 5
ENDMDL
