MODEL 1
REMARK VINA RESULT:      -9.6      0.000      0.000
REMARK  Name = 
REMARK  8 active torsions:
REMARK  status: ('A' for Active; 'I' for Inactive)
REMARK    1  A    between atoms: C_1  and  C_2
REMARK    2  A    between atoms: C_6  and  C_7
REMARK    3  A    between atoms: N_12  and  C_13
REMARK    4  A    between atoms: C_17  and  C_18
REMARK    5  A    between atoms: C_18  and  C_19
REMARK    6  A    between atoms: C_18  and  C_20
REMARK    7  A    between atoms: C_20  and  C_21
REMARK    8  A    between atoms: N_25  and  C_26
REMARK                            x       y       z     vdW  Elec       q    Type
REMARK                         _______ _______ _______ _____ _____    ______ ____
ROOT
ATOM      1  C   UNL     1       3.092   6.106  18.870  0.00  0.00    +0.000 A 
ATOM      2  C   UNL     1       2.807   4.904  19.538  0.00  0.00    +0.000 A 
ATOM      3  C   UNL     1       3.565   3.755  19.339  0.00  0.00    +0.000 A 
ATOM      4  C   UNL     1       4.639   3.788  18.465  0.00  0.00    +0.000 A 
ATOM      5  C   UNL     1       4.934   4.956  17.741  0.00  0.00    +0.000 A 
ATOM      6  C   UNL     1       4.125   6.102  17.921  0.00  0.00    +0.000 A 
ENDROOT
BRANCH   1  15
ATOM      7  C   UNL     1      -0.569  12.552  18.763  0.00  0.00    +0.000 C 
ATOM      8  C   UNL     1       0.007  11.272  19.294  0.00  0.00    +0.000 A 
ATOM      9  C   UNL     1       0.806  10.477  18.480  0.00  0.00    +0.000 A 
ATOM     10  C   UNL     1       1.301   9.300  19.012  0.00  0.00    +0.000 A 
ATOM     11  C   UNL     1       1.035   8.851  20.300  0.00  0.00    +0.000 A 
ATOM     12  C   UNL     1       0.259   9.642  21.144  0.00  0.00    +0.000 A 
ATOM     13  C   UNL     1      -0.246  10.861  20.622  0.00  0.00    +0.000 A 
ATOM     14  C   UNL     1       1.675   7.499  20.488  0.00  0.00    +0.000 C 
ATOM     15  N   UNL     1       2.385   7.287  19.229  0.00  0.00    +0.000 N 
ATOM     16  C   UNL     1       2.157   8.337  18.334  0.00  0.00    +0.000 C 
ATOM     17  O   UNL     1       2.516   8.505  17.184  0.00  0.00    +0.000 OA
BRANCH  12  18
ATOM     18  C   UNL     1      -0.007   9.284  22.580  0.00  0.00    +0.000 C 
ATOM     19  F   UNL     1       1.105   9.369  23.362  0.00  0.00    +0.000 F 
ATOM     20  F   UNL     1      -0.937  10.087  23.166  0.00  0.00    +0.000 F 
ENDBRANCH  12  18
ENDBRANCH   1  15
BRANCH   5  21
ATOM     21  C   UNL     1       6.175   5.003  16.855  0.00  0.00    +0.000 C 
ATOM     22  C   UNL     1       7.400   4.582  17.687  0.00  0.00    +0.000 C 
BRANCH  21  23
ATOM     23  C   UNL     1       6.070   4.117  15.596  0.00  0.00    +0.000 C 
BRANCH  23  24
ATOM     24  C   UNL     1       6.843   4.653  14.438  0.00  0.00    +0.000 A 
ATOM     25  N   UNL     1       7.823   5.532  14.515  0.00  0.00    +0.000 NA
ATOM     26  N   UNL     1       8.327   5.729  13.253  0.00  0.00    +0.000 NA
ATOM     27  C   UNL     1       7.646   4.967  12.432  0.00  0.00    +0.000 A 
ATOM     28  N   UNL     1       6.699   4.278  13.127  0.00  0.00    +0.000 N 
ATOM     29  C   UNL     1       5.766   3.346  12.558  0.00  0.00    +0.000 C 
ENDBRANCH  23  24
ENDBRANCH  21  23
ENDBRANCH   5  21
TORSDOF 5
ENDMDL
MODEL 2
REMARK VINA RESULT:      -9.1      1.653      2.615
REMARK  Name = 
REMARK  8 active torsions:
REMARK  status: ('A' for Active; 'I' for Inactive)
REMARK    1  A    between atoms: C_1  and  C_2
REMARK    2  A    between atoms: C_6  and  C_7
REMARK    3  A    between atoms: N_12  and  C_13
REMARK    4  A    between atoms: C_17  and  C_18
REMARK    5  A    between atoms: C_18  and  C_19
REMARK    6  A    between atoms: C_18  and  C_20
REMARK    7  A    between atoms: C_20  and  C_21
REMARK    8  A    between atoms: N_25  and  C_26
REMARK                            x       y       z     vdW  Elec       q    Type
REMARK                         _______ _______ _______ _____ _____    ______ ____
ROOT
ATOM      1  C   UNL     1       2.911   6.025  19.031  0.00  0.00    +0.000 A 
ATOM      2  C   UNL     1       2.875   4.999  19.990  0.00  0.00    +0.000 A 
ATOM      3  C   UNL     1       3.596   3.820  19.833  0.00  0.00    +0.000 A 
ATOM      4  C   UNL     1       4.382   3.646  18.707  0.00  0.00    +0.000 A 
ATOM      5  C   UNL     1       4.415   4.625  17.699  0.00  0.00    +0.000 A 
ATOM      6  C   UNL     1       3.639   5.799  17.853  0.00  0.00    +0.000 A 
ENDROOT
BRANCH   1  15
ATOM      7  C   UNL     1      -0.231  12.722  18.538  0.00  0.00    +0.000 C 
ATOM      8  C   UNL     1       0.219  11.422  19.138  0.00  0.00    +0.000 A 
ATOM      9  C   UNL     1       0.991  10.539  18.389  0.00  0.00    +0.000 A 
ATOM     10  C   UNL     1       1.369   9.349  18.982  0.00  0.00    +0.000 A 
ATOM     11  C   UNL     1       1.010   8.968  20.270  0.00  0.00    +0.000 A 
ATOM     12  C   UNL     1       0.260   9.846  21.049  0.00  0.00    +0.000 A 
ATOM     13  C   UNL     1      -0.124  11.080  20.464  0.00  0.00    +0.000 A 
ATOM     14  C   UNL     1       1.534   7.579  20.533  0.00  0.00    +0.000 C 
ATOM     15  N   UNL     1       2.283   7.269  19.317  0.00  0.00    +0.000 N 
ATOM     16  C   UNL     1       2.177   8.299  18.378  0.00  0.00    +0.000 C 
ATOM     17  O   UNL     1       2.599   8.398  17.242  0.00  0.00    +0.000 OA
BRANCH  12  18
ATOM     18  C   UNL     1      -0.098   9.561  22.482  0.00  0.00    +0.000 C 
ATOM     19  F   UNL     1      -0.871   8.447  22.623  0.00  0.00    +0.000 F 
ATOM     20  F   UNL     1       0.991   9.361  23.274  0.00  0.00    +0.000 F 
ENDBRANCH  12  18
ENDBRANCH   1  15
BRANCH   5  21
ATOM     21  C   UNL     1       5.357   4.459  16.512  0.00  0.00    +0.000 C 
ATOM     22  C   UNL     1       5.083   5.582  15.495  0.00  0.00    +0.000 C 
BRANCH  21  23
ATOM     23  C   UNL     1       6.850   4.462  16.902  0.00  0.00    +0.000 C 
BRANCH  23  24
ATOM     24  C   UNL     1       7.355   5.816  17.270  0.00  0.00    +0.000 A 
ATOM     25  N   UNL     1       7.518   6.824  16.436  0.00  0.00    +0.000 NA
ATOM     26  N   UNL     1       7.936   7.917  17.153  0.00  0.00    +0.000 NA
ATOM     27  C   UNL     1       8.021   7.555  18.411  0.00  0.00    +0.000 A 
ATOM     28  N   UNL     1       7.673   6.244  18.534  0.00  0.00    +0.000 N 
ATOM     29  C   UNL     1       7.647   5.504  19.765  0.00  0.00    +0.000 C 
ENDBRANCH  23  24
ENDBRANCH  21  23
ENDBRANCH   5  21
TORSDOF 5
ENDMDL
MODEL 3
REMARK VINA RESULT:      -9.0      4.194      9.094
REMARK  Name = 
REMARK  8 active torsions:
REMARK  status: ('A' for Active; 'I' for Inactive)
REMARK    1  A    between atoms: C_1  and  C_2
REMARK    2  A    between atoms: C_6  and  C_7
REMARK    3  A    between atoms: N_12  and  C_13
REMARK    4  A    between atoms: C_17  and  C_18
REMARK    5  A    between atoms: C_18  and  C_19
REMARK    6  A    between atoms: C_18  and  C_20
REMARK    7  A    between atoms: C_20  and  C_21
REMARK    8  A    between atoms: N_25  and  C_26
REMARK                            x       y       z     vdW  Elec       q    Type
REMARK                         _______ _______ _______ _____ _____    ______ ____
ROOT
ATOM      1  C   UNL     1       1.520   8.437  20.155  0.00  0.00    +0.000 A 
ATOM      2  C   UNL     1       1.448   8.495  21.556  0.00  0.00    +0.000 A 
ATOM      3  C   UNL     1       0.667   9.439  22.214  0.00  0.00    +0.000 A 
ATOM      4  C   UNL     1      -0.071  10.348  21.475  0.00  0.00    +0.000 A 
ATOM      5  C   UNL     1       0.004  10.357  20.072  0.00  0.00    +0.000 A 
ATOM      6  C   UNL     1       0.839   9.420  19.420  0.00  0.00    +0.000 A 
ENDROOT
BRANCH   1  15
ATOM      7  C   UNL     1       3.748   1.723  17.938  0.00  0.00    +0.000 C 
ATOM      8  C   UNL     1       3.647   3.218  18.003  0.00  0.00    +0.000 A 
ATOM      9  C   UNL     1       2.853   3.821  18.974  0.00  0.00    +0.000 A 
ATOM     10  C   UNL     1       2.782   5.202  18.983  0.00  0.00    +0.000 A 
ATOM     11  C   UNL     1       3.435   6.026  18.074  0.00  0.00    +0.000 A 
ATOM     12  C   UNL     1       4.258   5.448  17.110  0.00  0.00    +0.000 A 
ATOM     13  C   UNL     1       4.357   4.033  17.093  0.00  0.00    +0.000 A 
ATOM     14  C   UNL     1       3.053   7.458  18.349  0.00  0.00    +0.000 C 
ATOM     15  N   UNL     1       2.207   7.356  19.536  0.00  0.00    +0.000 N 
ATOM     16  C   UNL     1       2.019   6.023  19.913  0.00  0.00    +0.000 C 
ATOM     17  O   UNL     1       1.348   5.524  20.797  0.00  0.00    +0.000 OA
BRANCH  12  18
ATOM     18  C   UNL     1       5.075   6.260  16.143  0.00  0.00    +0.000 C 
ATOM     19  F   UNL     1       6.353   6.463  16.570  0.00  0.00    +0.000 F 
ATOM     20  F   UNL     1       5.180   5.680  14.916  0.00  0.00    +0.000 F 
ENDBRANCH  12  18
ENDBRANCH   1  15
BRANCH   5  21
ATOM     21  C   UNL     1      -0.886  11.302  19.272  0.00  0.00    +0.000 C 
ATOM     22  C   UNL     1      -0.068  12.545  18.875  0.00  0.00    +0.000 C 
BRANCH  21  23
ATOM     23  C   UNL     1      -1.498  10.656  18.011  0.00  0.00    +0.000 C 
BRANCH  23  24
ATOM     24  C   UNL     1      -2.893  11.108  17.740  0.00  0.00    +0.000 A 
ATOM     25  N   UNL     1      -3.715  11.625  18.632  0.00  0.00    +0.000 NA
ATOM     26  N   UNL     1      -4.880  11.976  17.996  0.00  0.00    +0.000 NA
ATOM     27  C   UNL     1      -4.746  11.667  16.729  0.00  0.00    +0.000 A 
ATOM     28  N   UNL     1      -3.519  11.114  16.520  0.00  0.00    +0.000 N 
ATOM     29  C   UNL     1      -3.020  10.654  15.253  0.00  0.00    +0.000 C 
ENDBRANCH  23  24
ENDBRANCH  21  23
ENDBRANCH   5  21
TORSDOF 5
ENDMDL
MODEL 4
REMARK VINA RESULT:      -9.0      1.868      2.581
REMARK  Name = 
REMARK  8 active torsions:
REMARK  status: ('A' for Active; 'I' for Inactive)
REMARK    1  A    between atoms: C_1  and  C_2
REMARK    2  A    between atoms: C_6  and  C_7
REMARK    3  A    between atoms: N_12  and  C_13
REMARK    4  A    between atoms: C_17  and  C_18
REMARK    5  A    between atoms: C_18  and  C_19
REMARK    6  A    between atoms: C_18  and  C_20
REMARK    7  A    between atoms: C_20  and  C_21
REMARK    8  A    between atoms: N_25  and  C_26
REMARK                            x       y       z     vdW  Elec       q    Type
REMARK                         _______ _______ _______ _____ _____    ______ ____
ROOT
ATOM      1  C   UNL     1       2.974   6.165  18.000  0.00  0.00    +0.000 A 
ATOM      2  C   UNL     1       2.415   4.883  17.860  0.00  0.00    +0.000 A 
ATOM      3  C   UNL     1       3.125   3.831  17.291  0.00  0.00    +0.000 A 
ATOM      4  C   UNL     1       4.423   4.039  16.856  0.00  0.00    +0.000 A 
ATOM      5  C   UNL     1       5.007   5.315  16.935  0.00  0.00    +0.000 A 
ATOM      6  C   UNL     1       4.255   6.385  17.473  0.00  0.00    +0.000 A 
ENDROOT
BRANCH   1  15
ATOM      7  C   UNL     1      -0.397  10.085  23.313  0.00  0.00    +0.000 C 
ATOM      8  C   UNL     1       0.197   9.752  21.977  0.00  0.00    +0.000 A 
ATOM      9  C   UNL     1       0.683   8.472  21.730  0.00  0.00    +0.000 A 
ATOM     10  C   UNL     1       1.234   8.219  20.487  0.00  0.00    +0.000 A 
ATOM     11  C   UNL     1       1.353   9.166  19.476  0.00  0.00    +0.000 A 
ATOM     12  C   UNL     1       0.850  10.447  19.690  0.00  0.00    +0.000 A 
ATOM     13  C   UNL     1       0.267  10.722  20.953  0.00  0.00    +0.000 A 
ATOM     14  C   UNL     1       2.075   8.546  18.307  0.00  0.00    +0.000 C 
ATOM     15  N   UNL     1       2.262   7.159  18.728  0.00  0.00    +0.000 N 
ATOM     16  C   UNL     1       1.788   6.953  20.027  0.00  0.00    +0.000 C 
ATOM     17  O   UNL     1       1.810   5.972  20.745  0.00  0.00    +0.000 OA
BRANCH  12  18
ATOM     18  C   UNL     1       0.851  11.510  18.626  0.00  0.00    +0.000 C 
ATOM     19  F   UNL     1      -0.095  12.469  18.833  0.00  0.00    +0.000 F 
ATOM     20  F   UNL     1       2.037  12.173  18.536  0.00  0.00    +0.000 F 
ENDBRANCH  12  18
ENDBRANCH   1  15
BRANCH   5  21
ATOM     21  C   UNL     1       6.467   5.505  16.538  0.00  0.00    +0.000 C 
ATOM     22  C   UNL     1       7.321   5.625  17.814  0.00  0.00    +0.000 C 
BRANCH  21  23
ATOM     23  C   UNL     1       7.019   4.372  15.647  0.00  0.00    +0.000 C 
BRANCH  23  24
ATOM     24  C   UNL     1       7.319   4.817  14.255  0.00  0.00    +0.000 A 
ATOM     25  N   UNL     1       8.251   5.685  13.915  0.00  0.00    +0.000 NA
ATOM     26  N   UNL     1       8.268   5.788  12.546  0.00  0.00    +0.000 NA
ATOM     27  C   UNL     1       7.347   4.981  12.078  0.00  0.00    +0.000 A 
ATOM     28  N   UNL     1       6.720   4.354  13.112  0.00  0.00    +0.000 N 
ATOM     29  C   UNL     1       5.656   3.398  12.980  0.00  0.00    +0.000 C 
ENDBRANCH  23  24
ENDBRANCH  21  23
ENDBRANCH   5  21
TORSDOF 5
ENDMDL
MODEL 5
REMARK VINA RESULT:      -9.0      3.736      8.826
REMARK  Name = 
REMARK  8 active torsions:
REMARK  status: ('A' for Active; 'I' for Inactive)
REMARK    1  A    between atoms: C_1  and  C_2
REMARK    2  A    between atoms: C_6  and  C_7
REMARK    3  A    between atoms: N_12  and  C_13
REMARK    4  A    between atoms: C_17  and  C_18
REMARK    5  A    between atoms: C_18  and  C_19
REMARK    6  A    between atoms: C_18  and  C_20
REMARK    7  A    between atoms: C_20  and  C_21
REMARK    8  A    between atoms: N_25  and  C_26
REMARK                            x       y       z     vdW  Elec       q    Type
REMARK                         _______ _______ _______ _____ _____    ______ ____
ROOT
ATOM      1  C   UNL     1       1.544   8.211  19.995  0.00  0.00    +0.000 A 
ATOM      2  C   UNL     1       1.491   8.209  21.399  0.00  0.00    +0.000 A 
ATOM      3  C   UNL     1       0.758   9.155  22.107  0.00  0.00    +0.000 A 
ATOM      4  C   UNL     1       0.049  10.125  21.418  0.00  0.00    +0.000 A 
ATOM      5  C   UNL     1       0.108  10.193  20.016  0.00  0.00    +0.000 A 
ATOM      6  C   UNL     1       0.896   9.251  19.313  0.00  0.00    +0.000 A 
ENDROOT
BRANCH   1  15
ATOM      7  C   UNL     1       5.852   4.071  15.606  0.00  0.00    +0.000 C 
ATOM      8  C   UNL     1       4.876   4.420  16.690  0.00  0.00    +0.000 A 
ATOM      9  C   UNL     1       4.454   5.736  16.850  0.00  0.00    +0.000 A 
ATOM     10  C   UNL     1       3.564   6.009  17.872  0.00  0.00    +0.000 A 
ATOM     11  C   UNL     1       3.080   5.059  18.763  0.00  0.00    +0.000 A 
ATOM     12  C   UNL     1       3.466   3.729  18.607  0.00  0.00    +0.000 A 
ATOM     13  C   UNL     1       4.367   3.426  17.554  0.00  0.00    +0.000 A 
ATOM     14  C   UNL     1       2.204   5.743  19.781  0.00  0.00    +0.000 C 
ATOM     15  N   UNL     1       2.179   7.130  19.321  0.00  0.00    +0.000 N 
ATOM     16  C   UNL     1       2.997   7.310  18.202  0.00  0.00    +0.000 C 
ATOM     17  O   UNL     1       3.285   8.306  17.568  0.00  0.00    +0.000 OA
BRANCH  12  18
ATOM     18  C   UNL     1       2.926   2.618  19.464  0.00  0.00    +0.000 C 
ATOM     19  F   UNL     1       2.919   1.413  18.827  0.00  0.00    +0.000 F 
ATOM     20  F   UNL     1       3.641   2.430  20.607  0.00  0.00    +0.000 F 
ENDBRANCH  12  18
ENDBRANCH   1  15
BRANCH   5  21
ATOM     21  C   UNL     1      -0.752  11.207  19.269  0.00  0.00    +0.000 C 
ATOM     22  C   UNL     1       0.093  12.461  18.978  0.00  0.00    +0.000 C 
BRANCH  21  23
ATOM     23  C   UNL     1      -1.348  10.664  17.954  0.00  0.00    +0.000 C 
BRANCH  23  24
ATOM     24  C   UNL     1      -2.760  11.091  17.732  0.00  0.00    +0.000 A 
ATOM     25  N   UNL     1      -3.556  11.604  18.649  0.00  0.00    +0.000 NA
ATOM     26  N   UNL     1      -4.749  11.929  18.054  0.00  0.00    +0.000 NA
ATOM     27  C   UNL     1      -4.658  11.608  16.785  0.00  0.00    +0.000 A 
ATOM     28  N   UNL     1      -3.431  11.072  16.536  0.00  0.00    +0.000 N 
ATOM     29  C   UNL     1      -2.973  10.606  15.257  0.00  0.00    +0.000 C 
ENDBRANCH  23  24
ENDBRANCH  21  23
ENDBRANCH   5  21
TORSDOF 5
ENDMDL
MODEL 6
REMARK VINA RESULT:      -8.9      1.953      2.906
REMARK  Name = 
REMARK  8 active torsions:
REMARK  status: ('A' for Active; 'I' for Inactive)
REMARK    1  A    between atoms: C_1  and  C_2
REMARK    2  A    between atoms: C_6  and  C_7
REMARK    3  A    between atoms: N_12  and  C_13
REMARK    4  A    between atoms: C_17  and  C_18
REMARK    5  A    between atoms: C_18  and  C_19
REMARK    6  A    between atoms: C_18  and  C_20
REMARK    7  A    between atoms: C_20  and  C_21
REMARK    8  A    between atoms: N_25  and  C_26
REMARK                            x       y       z     vdW  Elec       q    Type
REMARK                         _______ _______ _______ _____ _____    ______ ____
ROOT
ATOM      1  C   UNL     1       2.765   5.836  18.054  0.00  0.00    +0.000 A 
ATOM      2  C   UNL     1       2.073   4.646  18.334  0.00  0.00    +0.000 A 
ATOM      3  C   UNL     1       2.534   3.409  17.897  0.00  0.00    +0.000 A 
ATOM      4  C   UNL     1       3.712   3.335  17.173  0.00  0.00    +0.000 A 
ATOM      5  C   UNL     1       4.414   4.504  16.831  0.00  0.00    +0.000 A 
ATOM      6  C   UNL     1       3.907   5.758  17.244  0.00  0.00    +0.000 A 
ENDROOT
BRANCH   1  15
ATOM      7  C   UNL     1       0.609  12.818  19.308  0.00  0.00    +0.000 C 
ATOM      8  C   UNL     1       0.888  11.367  19.566  0.00  0.00    +0.000 A 
ATOM      9  C   UNL     1       1.496  10.589  18.585  0.00  0.00    +0.000 A 
ATOM     10  C   UNL     1       1.719   9.253  18.866  0.00  0.00    +0.000 A 
ATOM     11  C   UNL     1       1.356   8.633  20.056  0.00  0.00    +0.000 A 
ATOM     12  C   UNL     1       0.771   9.396  21.064  0.00  0.00    +0.000 A 
ATOM     13  C   UNL     1       0.548  10.772  20.801  0.00  0.00    +0.000 A 
ATOM     14  C   UNL     1       1.684   7.165  19.961  0.00  0.00    +0.000 C 
ATOM     15  N   UNL     1       2.334   7.050  18.657  0.00  0.00    +0.000 N 
ATOM     16  C   UNL     1       2.344   8.277  17.985  0.00  0.00    +0.000 C 
ATOM     17  O   UNL     1       2.734   8.582  16.875  0.00  0.00    +0.000 OA
BRANCH  12  18
ATOM     18  C   UNL     1       0.429   8.834  22.416  0.00  0.00    +0.000 C 
ATOM     19  F   UNL     1       0.718   9.691  23.435  0.00  0.00    +0.000 F 
ATOM     20  F   UNL     1      -0.892   8.531  22.549  0.00  0.00    +0.000 F 
ENDBRANCH  12  18
ENDBRANCH   1  15
BRANCH   5  21
ATOM     21  C   UNL     1       5.756   4.398  16.116  0.00  0.00    +0.000 C 
ATOM     22  C   UNL     1       5.506   4.139  14.619  0.00  0.00    +0.000 C 
BRANCH  21  23
ATOM     23  C   UNL     1       6.648   5.645  16.286  0.00  0.00    +0.000 C 
BRANCH  23  24
ATOM     24  C   UNL     1       7.275   5.736  17.636  0.00  0.00    +0.000 A 
ATOM     25  N   UNL     1       7.477   4.722  18.454  0.00  0.00    +0.000 NA
ATOM     26  N   UNL     1       8.132   5.187  19.568  0.00  0.00    +0.000 NA
ATOM     27  C   UNL     1       8.317   6.475  19.408  0.00  0.00    +0.000 A 
ATOM     28  N   UNL     1       7.791   6.868  18.214  0.00  0.00    +0.000 N 
ATOM     29  C   UNL     1       7.807   8.209  17.701  0.00  0.00    +0.000 C 
ENDBRANCH  23  24
ENDBRANCH  21  23
ENDBRANCH   5  21
TORSDOF 5
ENDMDL
MODEL 7
REMARK VINA RESULT:      -8.9      0.935      1.333
REMARK  Name = 
REMARK  8 active torsions:
REMARK  status: ('A' for Active; 'I' for Inactive)
REMARK    1  A    between atoms: C_1  and  C_2
REMARK    2  A    between atoms: C_6  and  C_7
REMARK    3  A    between atoms: N_12  and  C_13
REMARK    4  A    between atoms: C_17  and  C_18
REMARK    5  A    between atoms: C_18  and  C_19
REMARK    6  A    between atoms: C_18  and  C_20
REMARK    7  A    between atoms: C_20  and  C_21
REMARK    8  A    between atoms: N_25  and  C_26
REMARK                            x       y       z     vdW  Elec       q    Type
REMARK                         _______ _______ _______ _____ _____    ______ ____
ROOT
ATOM      1  C   UNL     1       3.238   6.461  19.113  0.00  0.00    +0.000 A 
ATOM      2  C   UNL     1       2.804   5.177  19.482  0.00  0.00    +0.000 A 
ATOM      3  C   UNL     1       3.643   4.070  19.410  0.00  0.00    +0.000 A 
ATOM      4  C   UNL     1       4.946   4.228  18.971  0.00  0.00    +0.000 A 
ATOM      5  C   UNL     1       5.410   5.485  18.549  0.00  0.00    +0.000 A 
ATOM      6  C   UNL     1       4.531   6.592  18.585  0.00  0.00    +0.000 A 
ENDROOT
BRANCH   1  15
ATOM      7  C   UNL     1      -1.134  12.404  18.381  0.00  0.00    +0.000 C 
ATOM      8  C   UNL     1      -0.430  11.250  19.032  0.00  0.00    +0.000 A 
ATOM      9  C   UNL     1       0.477  10.486  18.303  0.00  0.00    +0.000 A 
ATOM     10  C   UNL     1       1.089   9.425  18.945  0.00  0.00    +0.000 A 
ATOM     11  C   UNL     1       0.843   9.060  20.263  0.00  0.00    +0.000 A 
ATOM     12  C   UNL     1      -0.040   9.825  21.022  0.00  0.00    +0.000 A 
ATOM     13  C   UNL     1      -0.667  10.927  20.387  0.00  0.00    +0.000 A 
ATOM     14  C   UNL     1       1.629   7.813  20.580  0.00  0.00    +0.000 C 
ATOM     15  N   UNL     1       2.391   7.578  19.355  0.00  0.00    +0.000 N 
ATOM     16  C   UNL     1       2.067   8.513  18.368  0.00  0.00    +0.000 C 
ATOM     17  O   UNL     1       2.433   8.624  17.214  0.00  0.00    +0.000 OA
BRANCH  12  18
ATOM     18  C   UNL     1      -0.300   9.562  22.479  0.00  0.00    +0.000 C 
ATOM     19  F   UNL     1      -0.976   8.399  22.695  0.00  0.00    +0.000 F 
ATOM     20  F   UNL     1       0.840   9.472  23.217  0.00  0.00    +0.000 F 
ENDBRANCH  12  18
ENDBRANCH   1  15
BRANCH   5  21
ATOM     21  C   UNL     1       6.874   5.660  18.158  0.00  0.00    +0.000 C 
ATOM     22  C   UNL     1       7.719   5.811  19.436  0.00  0.00    +0.000 C 
BRANCH  21  23
ATOM     23  C   UNL     1       7.428   4.502  17.301  0.00  0.00    +0.000 C 
BRANCH  23  24
ATOM     24  C   UNL     1       7.060   4.612  15.860  0.00  0.00    +0.000 A 
ATOM     25  N   UNL     1       7.680   5.360  14.969  0.00  0.00    +0.000 NA
ATOM     26  N   UNL     1       7.095   5.149  13.745  0.00  0.00    +0.000 NA
ATOM     27  C   UNL     1       6.130   4.277  13.913  0.00  0.00    +0.000 A 
ATOM     28  N   UNL     1       6.065   3.915  15.225  0.00  0.00    +0.000 N 
ATOM     29  C   UNL     1       5.130   2.977  15.781  0.00  0.00    +0.000 C 
ENDBRANCH  23  24
ENDBRANCH  21  23
ENDBRANCH   5  21
TORSDOF 5
ENDMDL
MODEL 8
REMARK VINA RESULT:      -8.9      2.585      3.850
REMARK  Name = 
REMARK  8 active torsions:
REMARK  status: ('A' for Active; 'I' for Inactive)
REMARK    1  A    between atoms: C_1  and  C_2
REMARK    2  A    between atoms: C_6  and  C_7
REMARK    3  A    between atoms: N_12  and  C_13
REMARK    4  A    between atoms: C_17  and  C_18
REMARK    5  A    between atoms: C_18  and  C_19
REMARK    6  A    between atoms: C_18  and  C_20
REMARK    7  A    between atoms: C_20  and  C_21
REMARK    8  A    between atoms: N_25  and  C_26
REMARK                            x       y       z     vdW  Elec       q    Type
REMARK                         _______ _______ _______ _____ _____    ______ ____
ROOT
ATOM      1  C   UNL     1       3.031   5.094  18.075  0.00  0.00    +0.000 A 
ATOM      2  C   UNL     1       2.664   3.792  18.455  0.00  0.00    +0.000 A 
ATOM      3  C   UNL     1       3.329   2.671  17.972  0.00  0.00    +0.000 A 
ATOM      4  C   UNL     1       4.391   2.830  17.098  0.00  0.00    +0.000 A 
ATOM      5  C   UNL     1       4.766   4.110  16.656  0.00  0.00    +0.000 A 
ATOM      6  C   UNL     1       4.049   5.238  17.120  0.00  0.00    +0.000 A 
ENDROOT
BRANCH   1  15
ATOM      7  C   UNL     1       0.129   9.755  23.056  0.00  0.00    +0.000 C 
ATOM      8  C   UNL     1       0.658   9.252  21.746  0.00  0.00    +0.000 A 
ATOM      9  C   UNL     1       1.035   7.918  21.612  0.00  0.00    +0.000 A 
ATOM     10  C   UNL     1       1.529   7.506  20.389  0.00  0.00    +0.000 A 
ATOM     11  C   UNL     1       1.695   8.342  19.290  0.00  0.00    +0.000 A 
ATOM     12  C   UNL     1       1.300   9.674  19.390  0.00  0.00    +0.000 A 
ATOM     13  C   UNL     1       0.776  10.113  20.632  0.00  0.00    +0.000 A 
ATOM     14  C   UNL     1       2.332   7.558  18.172  0.00  0.00    +0.000 C 
ATOM     15  N   UNL     1       2.421   6.206  18.719  0.00  0.00    +0.000 N 
ATOM     16  C   UNL     1       1.968   6.162  20.041  0.00  0.00    +0.000 C 
ATOM     17  O   UNL     1       1.933   5.254  20.849  0.00  0.00    +0.000 OA
BRANCH  12  18
ATOM     18  C   UNL     1       1.356  10.629  18.229  0.00  0.00    +0.000 C 
ATOM     19  F   UNL     1       0.798  11.840  18.512  0.00  0.00    +0.000 F 
ATOM     20  F   UNL     1       2.626  10.892  17.817  0.00  0.00    +0.000 F 
ENDBRANCH  12  18
ENDBRANCH   1  15
BRANCH   5  21
ATOM     21  C   UNL     1       5.995   4.274  15.768  0.00  0.00    +0.000 C 
ATOM     22  C   UNL     1       5.556   4.242  14.293  0.00  0.00    +0.000 C 
BRANCH  21  23
ATOM     23  C   UNL     1       6.790   5.567  16.046  0.00  0.00    +0.000 C 
BRANCH  23  24
ATOM     24  C   UNL     1       7.321   5.640  17.438  0.00  0.00    +0.000 A 
ATOM     25  N   UNL     1       7.548   4.606  18.224  0.00  0.00    +0.000 NA
ATOM     26  N   UNL     1       8.092   5.065  19.398  0.00  0.00    +0.000 NA
ATOM     27  C   UNL     1       8.187   6.370  19.305  0.00  0.00    +0.000 A 
ATOM     28  N   UNL     1       7.710   6.778  18.097  0.00  0.00    +0.000 N 
ATOM     29  C   UNL     1       7.656   8.141  17.643  0.00  0.00    +0.000 C 
ENDBRANCH  23  24
ENDBRANCH  21  23
ENDBRANCH   5  21
TORSDOF 5
ENDMDL
MODEL 9
REMARK VINA RESULT:      -8.6      3.808      8.998
REMARK  Name = 
REMARK  8 active torsions:
REMARK  status: ('A' for Active; 'I' for Inactive)
REMARK    1  A    between atoms: C_1  and  C_2
REMARK    2  A    between atoms: C_6  and  C_7
REMARK    3  A    between atoms: N_12  and  C_13
REMARK    4  A    between atoms: C_17  and  C_18
REMARK    5  A    between atoms: C_18  and  C_19
REMARK    6  A    between atoms: C_18  and  C_20
REMARK    7  A    between atoms: C_20  and  C_21
REMARK    8  A    between atoms: N_25  and  C_26
REMARK                            x       y       z     vdW  Elec       q    Type
REMARK                         _______ _______ _______ _____ _____    ______ ____
ROOT
ATOM      1  C   UNL     1       1.235   8.665  20.514  0.00  0.00    +0.000 A 
ATOM      2  C   UNL     1       0.995   8.709  21.897  0.00  0.00    +0.000 A 
ATOM      3  C   UNL     1       0.346   9.783  22.496  0.00  0.00    +0.000 A 
ATOM      4  C   UNL     1      -0.089  10.841  21.715  0.00  0.00    +0.000 A 
ATOM      5  C   UNL     1       0.168  10.861  20.333  0.00  0.00    +0.000 A 
ATOM      6  C   UNL     1       0.871   9.782  19.747  0.00  0.00    +0.000 A 
ENDROOT
BRANCH   1  15
ATOM      7  C   UNL     1       5.022   3.779  16.421  0.00  0.00    +0.000 C 
ATOM      8  C   UNL     1       4.129   4.312  17.502  0.00  0.00    +0.000 A 
ATOM      9  C   UNL     1       3.805   5.665  17.535  0.00  0.00    +0.000 A 
ATOM     10  C   UNL     1       2.989   6.109  18.559  0.00  0.00    +0.000 A 
ATOM     11  C   UNL     1       2.489   5.296  19.570  0.00  0.00    +0.000 A 
ATOM     12  C   UNL     1       2.777   3.934  19.544  0.00  0.00    +0.000 A 
ATOM     13  C   UNL     1       3.599   3.455  18.493  0.00  0.00    +0.000 A 
ATOM     14  C   UNL     1       1.715   6.147  20.543  0.00  0.00    +0.000 C 
ATOM     15  N   UNL     1       1.759   7.476  19.936  0.00  0.00    +0.000 N 
ATOM     16  C   UNL     1       2.529   7.475  18.769  0.00  0.00    +0.000 C 
ATOM     17  O   UNL     1       2.850   8.375  18.017  0.00  0.00    +0.000 OA
BRANCH  12  18
ATOM     18  C   UNL     1       2.208   2.962  20.541  0.00  0.00    +0.000 C 
ATOM     19  F   UNL     1       2.565   3.249  21.825  0.00  0.00    +0.000 F 
ATOM     20  F   UNL     1       0.847   2.927  20.533  0.00  0.00    +0.000 F 
ENDBRANCH  12  18
ENDBRANCH   1  15
BRANCH   5  21
ATOM     21  C   UNL     1      -0.398  11.986  19.474  0.00  0.00    +0.000 C 
ATOM     22  C   UNL     1       0.762  12.703  18.760  0.00  0.00    +0.000 C 
BRANCH  21  23
ATOM     23  C   UNL     1      -1.434  11.509  18.434  0.00  0.00    +0.000 C 
BRANCH  23  24
ATOM     24  C   UNL     1      -2.839  11.828  18.820  0.00  0.00    +0.000 A 
ATOM     25  N   UNL     1      -3.205  12.460  19.918  0.00  0.00    +0.000 NA
ATOM     26  N   UNL     1      -4.568  12.623  19.890  0.00  0.00    +0.000 NA
ATOM     27  C   UNL     1      -5.007  12.088  18.776  0.00  0.00    +0.000 A 
ATOM     28  N   UNL     1      -3.960  11.570  18.074  0.00  0.00    +0.000 N 
ATOM     29  C   UNL     1      -4.061  10.906  16.804  0.00  0.00    +0.000 C 
ENDBRANCH  23  24
ENDBRANCH  21  23
ENDBRANCH   5  21
TORSDOF 5
ENDMDL
