MODEL 1
REMARK VINA RESULT:      -9.2      0.000      0.000
REMARK  Name = 
REMARK  4 active torsions:
REMARK  status: ('A' for Active; 'I' for Inactive)
REMARK    1  A    between atoms: C_1  and  C_2
REMARK    2  A    between atoms: C_6  and  C_7
REMARK    3  A    between atoms: N_9  and  C_10
REMARK    4  A    between atoms: N_23  and  C_24
REMARK                            x       y       z     vdW  Elec       q    Type
REMARK                         _______ _______ _______ _____ _____    ______ ____
ROOT
ATOM      1  C   UNL     1       4.407   2.732  19.297  0.00  0.00    +0.000 C 
ATOM      2  C   UNL     1       3.781   4.069  19.553  0.00  0.00    +0.000 A 
ATOM      3  N   UNL     1       2.781   4.284  20.404  0.00  0.00    +0.000 NA
ATOM      4  C   UNL     1       2.411   5.607  20.290  0.00  0.00    +0.000 A 
ATOM      5  C   UNL     1       1.395   6.421  20.887  0.00  0.00    +0.000 A 
ATOM      6  C   UNL     1       1.213   7.794  20.498  0.00  0.00    +0.000 A 
ATOM      7  C   UNL     1       1.885   8.266  19.427  0.00  0.00    +0.000 A 
ATOM      8  C   UNL     1       2.558   7.336  18.703  0.00  0.00    +0.000 A 
ATOM      9  C   UNL     1       3.131   6.171  19.254  0.00  0.00    +0.000 A 
ATOM     10  N   UNL     1       4.154   5.248  18.889  0.00  0.00    +0.000 N 
ENDROOT
BRANCH  10  11
ATOM     11  C   UNL     1       4.933   5.264  17.620  0.00  0.00    +0.000 C 
ATOM     12  C   UNL     1       6.127   4.400  17.018  0.00  0.00    +0.000 C 
ATOM     13  C   UNL     1       7.472   4.595  17.691  0.00  0.00    +0.000 C 
ATOM     14  S   UNL     1       7.288   6.060  18.574  0.00  0.00    +0.000 S 
ATOM     15  O   UNL     1       7.249   5.507  19.909  0.00  0.00    +0.000 OA
ATOM     16  O   UNL     1       8.275   7.080  18.262  0.00  0.00    +0.000 OA
ATOM     17  C   UNL     1       5.594   6.612  17.685  0.00  0.00    +0.000 C 
ENDBRANCH  10  11
BRANCH   6  18
ATOM     18  C   UNL     1       0.198   8.708  21.074  0.00  0.00    +0.000 C 
ATOM     19  O   UNL     1      -0.781   8.158  21.577  0.00  0.00    +0.000 OA
ATOM     20  N   UNL     1       0.377  10.118  20.957  0.00  0.00    +0.000 N 
ATOM     21  H   UNL     1       1.217  10.542  20.595  0.00  0.00    +0.000 HD
BRANCH  20  22
ATOM     22  C   UNL     1      -0.606  11.014  21.429  0.00  0.00    +0.000 A 
ATOM     23  C   UNL     1      -0.781  10.950  22.810  0.00  0.00    +0.000 A 
ATOM     24  C   UNL     1      -1.737  11.674  23.381  0.00  0.00    +0.000 A 
ATOM     25  C   UNL     1      -2.555  12.298  22.512  0.00  0.00    +0.000 A 
ATOM     26  N   UNL     1      -3.619  12.680  23.122  0.00  0.00    +0.000 NA
ATOM     27  C   UNL     1      -4.666  13.053  23.762  0.00  0.00    +0.000 A 
ATOM     28  C   UNL     1      -5.016  13.393  22.506  0.00  0.00    +0.000 A 
ATOM     29  C   UNL     1      -4.131  13.176  21.096  0.00  0.00    +0.000 A 
ATOM     30  C   UNL     1      -2.699  12.450  21.159  0.00  0.00    +0.000 A 
ATOM     31  C   UNL     1      -1.444  11.869  20.599  0.00  0.00    +0.000 A 
ENDBRANCH  20  22
ENDBRANCH   6  18
TORSDOF 3
ENDMDL
MODEL 2
REMARK VINA RESULT:      -9.2      1.435      1.546
REMARK  Name = 
REMARK  4 active torsions:
REMARK  status: ('A' for Active; 'I' for Inactive)
REMARK    1  A    between atoms: C_1  and  C_2
REMARK    2  A    between atoms: C_6  and  C_7
REMARK    3  A    between atoms: N_9  and  C_10
REMARK    4  A    between atoms: N_23  and  C_24
REMARK                            x       y       z     vdW  Elec       q    Type
REMARK                         _______ _______ _______ _____ _____    ______ ____
ROOT
ATOM      1  C   UNL     1       3.707   3.614  19.469  0.00  0.00    +0.000 C 
ATOM      2  C   UNL     1       3.310   5.056  19.369  0.00  0.00    +0.000 A 
ATOM      3  N   UNL     1       2.533   5.688  20.243  0.00  0.00    +0.000 NA
ATOM      4  C   UNL     1       2.311   6.962  19.764  0.00  0.00    +0.000 A 
ATOM      5  C   UNL     1       1.539   8.083  20.209  0.00  0.00    +0.000 A 
ATOM      6  C   UNL     1       1.452   9.287  19.428  0.00  0.00    +0.000 A 
ATOM      7  C   UNL     1       1.952   9.293  18.175  0.00  0.00    +0.000 A 
ATOM      8  C   UNL     1       2.351   8.086  17.700  0.00  0.00    +0.000 A 
ATOM      9  C   UNL     1       2.874   7.055  18.507  0.00  0.00    +0.000 A 
ATOM     10  N   UNL     1       3.686   5.899  18.311  0.00  0.00    +0.000 N 
ENDROOT
BRANCH  10  11
ATOM     11  C   UNL     1       4.195   5.399  17.004  0.00  0.00    +0.000 C 
ATOM     12  C   UNL     1       5.175   4.230  16.547  0.00  0.00    +0.000 C 
ATOM     13  C   UNL     1       6.637   4.440  16.886  0.00  0.00    +0.000 C 
ATOM     14  S   UNL     1       6.747   6.121  17.235  0.00  0.00    +0.000 S 
ATOM     15  O   UNL     1       6.933   6.037  18.666  0.00  0.00    +0.000 OA
ATOM     16  O   UNL     1       7.727   6.839  16.438  0.00  0.00    +0.000 OA
ATOM     17  C   UNL     1       4.957   6.591  16.498  0.00  0.00    +0.000 C 
ENDBRANCH  10  11
BRANCH   6  18
ATOM     18  C   UNL     1       0.690  10.496  19.823  0.00  0.00    +0.000 C 
ATOM     19  O   UNL     1       1.154  11.564  19.427  0.00  0.00    +0.000 OA
ATOM     20  N   UNL     1      -0.456  10.360  20.661  0.00  0.00    +0.000 N 
ATOM     21  H   UNL     1      -0.851   9.469  20.921  0.00  0.00    +0.000 HD
BRANCH  20  22
ATOM     22  C   UNL     1      -1.160  11.496  21.115  0.00  0.00    +0.000 A 
ATOM     23  C   UNL     1      -0.928  11.778  22.460  0.00  0.00    +0.000 A 
ATOM     24  C   UNL     1      -1.594  12.767  23.045  0.00  0.00    +0.000 A 
ATOM     25  C   UNL     1      -2.564  13.309  22.284  0.00  0.00    +0.000 A 
ATOM     26  N   UNL     1      -3.356  13.997  23.024  0.00  0.00    +0.000 NA
ATOM     27  C   UNL     1      -4.126  14.680  23.790  0.00  0.00    +0.000 A 
ATOM     28  C   UNL     1      -4.793  14.782  22.624  0.00  0.00    +0.000 A 
ATOM     29  C   UNL     1      -4.388  14.101  21.143  0.00  0.00    +0.000 A 
ATOM     30  C   UNL     1      -3.083  13.172  21.024  0.00  0.00    +0.000 A 
ATOM     31  C   UNL     1      -2.115  12.272  20.334  0.00  0.00    +0.000 A 
ENDBRANCH  20  22
ENDBRANCH   6  18
TORSDOF 3
ENDMDL
MODEL 3
REMARK VINA RESULT:      -9.1      1.248      1.671
REMARK  Name = 
REMARK  4 active torsions:
REMARK  status: ('A' for Active; 'I' for Inactive)
REMARK    1  A    between atoms: C_1  and  C_2
REMARK    2  A    between atoms: C_6  and  C_7
REMARK    3  A    between atoms: N_9  and  C_10
REMARK    4  A    between atoms: N_23  and  C_24
REMARK                            x       y       z     vdW  Elec       q    Type
REMARK                         _______ _______ _______ _____ _____    ______ ____
ROOT
ATOM      1  C   UNL     1       4.359   2.897  18.865  0.00  0.00    +0.000 C 
ATOM      2  C   UNL     1       3.771   4.253  19.120  0.00  0.00    +0.000 A 
ATOM      3  N   UNL     1       2.939   4.540  20.117  0.00  0.00    +0.000 NA
ATOM      4  C   UNL     1       2.537   5.850  19.964  0.00  0.00    +0.000 A 
ATOM      5  C   UNL     1       1.634   6.713  20.666  0.00  0.00    +0.000 A 
ATOM      6  C   UNL     1       1.366   8.048  20.204  0.00  0.00    +0.000 A 
ATOM      7  C   UNL     1       1.828   8.427  18.994  0.00  0.00    +0.000 A 
ATOM      8  C   UNL     1       2.371   7.439  18.239  0.00  0.00    +0.000 A 
ATOM      9  C   UNL     1       3.049   6.323  18.772  0.00  0.00    +0.000 A 
ATOM     10  N   UNL     1       4.002   5.371  18.304  0.00  0.00    +0.000 N 
ENDROOT
BRANCH  10  11
ATOM     11  C   UNL     1       4.538   5.280  16.917  0.00  0.00    +0.000 C 
ATOM     12  C   UNL     1       5.629   4.380  16.187  0.00  0.00    +0.000 C 
ATOM     13  C   UNL     1       7.067   4.655  16.583  0.00  0.00    +0.000 C 
ATOM     14  S   UNL     1       7.001   6.193  17.350  0.00  0.00    +0.000 S 
ATOM     15  O   UNL     1       7.221   5.767  18.714  0.00  0.00    +0.000 OA
ATOM     16  O   UNL     1       7.883   7.193  16.773  0.00  0.00    +0.000 OA
ATOM     17  C   UNL     1       5.157   6.637  16.740  0.00  0.00    +0.000 C 
ENDBRANCH  10  11
BRANCH   6  18
ATOM     18  C   UNL     1       0.461   9.009  20.878  0.00  0.00    +0.000 C 
ATOM     19  O   UNL     1      -0.250   8.532  21.760  0.00  0.00    +0.000 OA
ATOM     20  N   UNL     1       0.421  10.364  20.435  0.00  0.00    +0.000 N 
ATOM     21  H   UNL     1       1.058  10.742  19.750  0.00  0.00    +0.000 HD
BRANCH  20  22
ATOM     22  C   UNL     1      -0.483  11.286  21.005  0.00  0.00    +0.000 A 
ATOM     23  C   UNL     1      -1.360  11.835  20.072  0.00  0.00    +0.000 A 
ATOM     24  C   UNL     1      -2.208  12.784  20.451  0.00  0.00    +0.000 A 
ATOM     25  C   UNL     1      -2.014  13.231  21.707  0.00  0.00    +0.000 A 
ATOM     26  N   UNL     1      -2.630  14.347  21.865  0.00  0.00    +0.000 NA
ATOM     27  C   UNL     1      -3.260  15.457  21.992  0.00  0.00    +0.000 A 
ATOM     28  C   UNL     1      -2.631  15.398  23.182  0.00  0.00    +0.000 A 
ATOM     29  C   UNL     1      -1.580  14.211  23.734  0.00  0.00    +0.000 A 
ATOM     30  C   UNL     1      -1.196  12.979  22.776  0.00  0.00    +0.000 A 
ATOM     31  C   UNL     1      -0.483  11.727  22.394  0.00  0.00    +0.000 A 
ENDBRANCH  20  22
ENDBRANCH   6  18
TORSDOF 3
ENDMDL
MODEL 4
REMARK VINA RESULT:      -9.1      1.255      1.288
REMARK  Name = 
REMARK  4 active torsions:
REMARK  status: ('A' for Active; 'I' for Inactive)
REMARK    1  A    between atoms: C_1  and  C_2
REMARK    2  A    between atoms: C_6  and  C_7
REMARK    3  A    between atoms: N_9  and  C_10
REMARK    4  A    between atoms: N_23  and  C_24
REMARK                            x       y       z     vdW  Elec       q    Type
REMARK                         _______ _______ _______ _____ _____    ______ ____
ROOT
ATOM      1  C   UNL     1       4.335   3.254  19.246  0.00  0.00    +0.000 C 
ATOM      2  C   UNL     1       3.744   4.630  19.315  0.00  0.00    +0.000 A 
ATOM      3  N   UNL     1       2.939   5.059  20.283  0.00  0.00    +0.000 NA
ATOM      4  C   UNL     1       2.521   6.329  19.949  0.00  0.00    +0.000 A 
ATOM      5  C   UNL     1       1.632   7.283  20.542  0.00  0.00    +0.000 A 
ATOM      6  C   UNL     1       1.340   8.534  19.897  0.00  0.00    +0.000 A 
ATOM      7  C   UNL     1       1.762   8.732  18.631  0.00  0.00    +0.000 A 
ATOM      8  C   UNL     1       2.292   7.645  18.014  0.00  0.00    +0.000 A 
ATOM      9  C   UNL     1       2.995   6.623  18.686  0.00  0.00    +0.000 A 
ATOM     10  N   UNL     1       3.942   5.616  18.336  0.00  0.00    +0.000 N 
ENDROOT
BRANCH  10  11
ATOM     11  C   UNL     1       4.438   5.322  16.962  0.00  0.00    +0.000 C 
ATOM     12  C   UNL     1       5.470   4.286  16.334  0.00  0.00    +0.000 C 
ATOM     13  C   UNL     1       6.927   4.542  16.663  0.00  0.00    +0.000 C 
ATOM     14  S   UNL     1       6.949   6.167  17.226  0.00  0.00    +0.000 S 
ATOM     15  O   UNL     1       7.184   5.910  18.629  0.00  0.00    +0.000 OA
ATOM     16  O   UNL     1       7.860   7.042  16.507  0.00  0.00    +0.000 OA
ATOM     17  C   UNL     1       5.112   6.615  16.599  0.00  0.00    +0.000 C 
ENDBRANCH  10  11
BRANCH   6  18
ATOM     18  C   UNL     1       0.446   9.581  20.448  0.00  0.00    +0.000 C 
ATOM     19  O   UNL     1      -0.311   9.209  21.343  0.00  0.00    +0.000 OA
ATOM     20  N   UNL     1       0.468  10.891  19.884  0.00  0.00    +0.000 N 
ATOM     21  H   UNL     1       1.141  11.185  19.192  0.00  0.00    +0.000 HD
BRANCH  20  22
ATOM     22  C   UNL     1      -0.421  11.889  20.335  0.00  0.00    +0.000 A 
ATOM     23  C   UNL     1       0.060  12.587  21.440  0.00  0.00    +0.000 A 
ATOM     24  C   UNL     1      -0.711  13.495  22.027  0.00  0.00    +0.000 A 
ATOM     25  C   UNL     1      -1.974  13.535  21.560  0.00  0.00    +0.000 A 
ATOM     26  N   UNL     1      -2.717  14.176  22.388  0.00  0.00    +0.000 NA
ATOM     27  C   UNL     1      -3.431  14.827  23.232  0.00  0.00    +0.000 A 
ATOM     28  C   UNL     1      -4.384  14.422  22.370  0.00  0.00    +0.000 A 
ATOM     29  C   UNL     1      -4.195  13.481  20.994  0.00  0.00    +0.000 A 
ATOM     30  C   UNL     1      -2.740  12.922  20.605  0.00  0.00    +0.000 A 
ATOM     31  C   UNL     1      -1.754  12.143  19.802  0.00  0.00    +0.000 A 
ENDBRANCH  20  22
ENDBRANCH   6  18
TORSDOF 3
ENDMDL
MODEL 5
REMARK VINA RESULT:      -9.1      1.919      2.177
REMARK  Name = 
REMARK  4 active torsions:
REMARK  status: ('A' for Active; 'I' for Inactive)
REMARK    1  A    between atoms: C_1  and  C_2
REMARK    2  A    between atoms: C_6  and  C_7
REMARK    3  A    between atoms: N_9  and  C_10
REMARK    4  A    between atoms: N_23  and  C_24
REMARK                            x       y       z     vdW  Elec       q    Type
REMARK                         _______ _______ _______ _____ _____    ______ ____
ROOT
ATOM      1  C   UNL     1       4.101   3.437  19.368  0.00  0.00    +0.000 C 
ATOM      2  C   UNL     1       3.574   4.840  19.333  0.00  0.00    +0.000 A 
ATOM      3  N   UNL     1       2.766   5.367  20.249  0.00  0.00    +0.000 NA
ATOM      4  C   UNL     1       2.418   6.631  19.824  0.00  0.00    +0.000 A 
ATOM      5  C   UNL     1       1.561   7.661  20.330  0.00  0.00    +0.000 A 
ATOM      6  C   UNL     1       1.345   8.880  19.598  0.00  0.00    +0.000 A 
ATOM      7  C   UNL     1       1.809   8.976  18.335  0.00  0.00    +0.000 A 
ATOM      8  C   UNL     1       2.301   7.828  17.804  0.00  0.00    +0.000 A 
ATOM      9  C   UNL     1       2.937   6.820  18.558  0.00  0.00    +0.000 A 
ATOM     10  N   UNL     1       3.844   5.751  18.299  0.00  0.00    +0.000 N 
ENDROOT
BRANCH  10  11
ATOM     11  C   UNL     1       4.361   5.346  16.962  0.00  0.00    +0.000 C 
ATOM     12  C   UNL     1       5.379   4.243  16.433  0.00  0.00    +0.000 C 
ATOM     13  C   UNL     1       6.835   4.488  16.775  0.00  0.00    +0.000 C 
ATOM     14  S   UNL     1       6.886   6.148  17.220  0.00  0.00    +0.000 S 
ATOM     15  O   UNL     1       7.086   5.988  18.643  0.00  0.00    +0.000 OA
ATOM     16  O   UNL     1       7.833   6.947  16.461  0.00  0.00    +0.000 OA
ATOM     17  C   UNL     1       5.074   6.593  16.522  0.00  0.00    +0.000 C 
ENDBRANCH  10  11
BRANCH   6  18
ATOM     18  C   UNL     1       0.488   9.999  20.056  0.00  0.00    +0.000 C 
ATOM     19  O   UNL     1      -0.543  10.173  19.408  0.00  0.00    +0.000 OA
ATOM     20  N   UNL     1       0.924  10.820  21.138  0.00  0.00    +0.000 N 
ATOM     21  H   UNL     1       1.743  10.618  21.691  0.00  0.00    +0.000 HD
BRANCH  20  22
ATOM     22  C   UNL     1       0.169  11.938  21.550  0.00  0.00    +0.000 A 
ATOM     23  C   UNL     1       0.737  13.150  21.165  0.00  0.00    +0.000 A 
ATOM     24  C   UNL     1       0.180  14.288  21.562  0.00  0.00    +0.000 A 
ATOM     25  C   UNL     1      -0.822  14.136  22.448  0.00  0.00    +0.000 A 
ATOM     26  N   UNL     1      -1.064  15.260  23.020  0.00  0.00    +0.000 NA
ATOM     27  C   UNL     1      -1.284  16.399  23.569  0.00  0.00    +0.000 A 
ATOM     28  C   UNL     1      -2.120  15.620  24.284  0.00  0.00    +0.000 A 
ATOM     29  C   UNL     1      -2.358  13.964  24.143  0.00  0.00    +0.000 A 
ATOM     30  C   UNL     1      -1.499  13.124  23.075  0.00  0.00    +0.000 A 
ATOM     31  C   UNL     1      -1.033  11.893  22.373  0.00  0.00    +0.000 A 
ENDBRANCH  20  22
ENDBRANCH   6  18
TORSDOF 3
ENDMDL
MODEL 6
REMARK VINA RESULT:      -9.0      2.805      3.817
REMARK  Name = 
REMARK  4 active torsions:
REMARK  status: ('A' for Active; 'I' for Inactive)
REMARK    1  A    between atoms: C_1  and  C_2
REMARK    2  A    between atoms: C_6  and  C_7
REMARK    3  A    between atoms: N_9  and  C_10
REMARK    4  A    between atoms: N_23  and  C_24
REMARK                            x       y       z     vdW  Elec       q    Type
REMARK                         _______ _______ _______ _____ _____    ______ ____
ROOT
ATOM      1  C   UNL     1       4.223   6.051  17.317  0.00  0.00    +0.000 C 
ATOM      2  C   UNL     1       3.199   6.856  18.059  0.00  0.00    +0.000 A 
ATOM      3  N   UNL     1       2.900   8.125  17.796  0.00  0.00    +0.000 NA
ATOM      4  C   UNL     1       1.995   8.549  18.746  0.00  0.00    +0.000 A 
ATOM      5  C   UNL     1       1.343   9.792  19.029  0.00  0.00    +0.000 A 
ATOM      6  C   UNL     1       0.479   9.940  20.169  0.00  0.00    +0.000 A 
ATOM      7  C   UNL     1       0.429   8.951  21.085  0.00  0.00    +0.000 A 
ATOM      8  C   UNL     1       1.342   7.960  20.927  0.00  0.00    +0.000 A 
ATOM      9  C   UNL     1       1.839   7.539  19.676  0.00  0.00    +0.000 A 
ATOM     10  N   UNL     1       2.461   6.369  19.150  0.00  0.00    +0.000 N 
ENDROOT
BRANCH  10  11
ATOM     11  C   UNL     1       2.848   5.160  19.928  0.00  0.00    +0.000 C 
ATOM     12  C   UNL     1       3.668   3.831  19.615  0.00  0.00    +0.000 C 
ATOM     13  C   UNL     1       2.983   2.851  18.684  0.00  0.00    +0.000 C 
ATOM     14  S   UNL     1       1.337   3.352  18.688  0.00  0.00    +0.000 S 
ATOM     15  O   UNL     1       1.275   3.908  17.355  0.00  0.00    +0.000 OA
ATOM     16  O   UNL     1       0.392   2.315  19.064  0.00  0.00    +0.000 OA
ATOM     17  C   UNL     1       1.507   4.567  20.257  0.00  0.00    +0.000 C 
ENDBRANCH  10  11
BRANCH   6  18
ATOM     18  C   UNL     1      -0.245  11.184  20.525  0.00  0.00    +0.000 C 
ATOM     19  O   UNL     1       0.021  12.165  19.832  0.00  0.00    +0.000 OA
ATOM     20  N   UNL     1      -1.124  11.188  21.648  0.00  0.00    +0.000 N 
ATOM     21  H   UNL     1      -1.370  10.355  22.161  0.00  0.00    +0.000 HD
BRANCH  20  22
ATOM     22  C   UNL     1      -1.770  12.373  22.058  0.00  0.00    +0.000 A 
ATOM     23  C   UNL     1      -1.076  13.054  23.056  0.00  0.00    +0.000 A 
ATOM     24  C   UNL     1      -1.612  14.140  23.600  0.00  0.00    +0.000 A 
ATOM     25  C   UNL     1      -2.880  14.384  23.217  0.00  0.00    +0.000 A 
ATOM     26  N   UNL     1      -3.419  15.224  24.026  0.00  0.00    +0.000 NA
ATOM     27  C   UNL     1      -3.925  16.069  24.848  0.00  0.00    +0.000 A 
ATOM     28  C   UNL     1      -5.006  15.786  24.095  0.00  0.00    +0.000 A 
ATOM     29  C   UNL     1      -5.112  14.715  22.807  0.00  0.00    +0.000 A 
ATOM     30  C   UNL     1      -3.824  13.854  22.379  0.00  0.00    +0.000 A 
ATOM     31  C   UNL     1      -3.071  12.835  21.592  0.00  0.00    +0.000 A 
ENDBRANCH  20  22
ENDBRANCH   6  18
TORSDOF 3
ENDMDL
MODEL 7
REMARK VINA RESULT:      -9.0      2.824      3.732
REMARK  Name = 
REMARK  4 active torsions:
REMARK  status: ('A' for Active; 'I' for Inactive)
REMARK    1  A    between atoms: C_1  and  C_2
REMARK    2  A    between atoms: C_6  and  C_7
REMARK    3  A    between atoms: N_9  and  C_10
REMARK    4  A    between atoms: N_23  and  C_24
REMARK                            x       y       z     vdW  Elec       q    Type
REMARK                         _______ _______ _______ _____ _____    ______ ____
ROOT
ATOM      1  C   UNL     1       4.523   6.142  17.062  0.00  0.00    +0.000 C 
ATOM      2  C   UNL     1       3.455   6.805  17.879  0.00  0.00    +0.000 A 
ATOM      3  N   UNL     1       2.988   8.031  17.660  0.00  0.00    +0.000 NA
ATOM      4  C   UNL     1       2.097   8.327  18.669  0.00  0.00    +0.000 A 
ATOM      5  C   UNL     1       1.316   9.477  19.015  0.00  0.00    +0.000 A 
ATOM      6  C   UNL     1       0.510   9.502  20.206  0.00  0.00    +0.000 A 
ATOM      7  C   UNL     1       0.636   8.502  21.102  0.00  0.00    +0.000 A 
ATOM      8  C   UNL     1       1.652   7.633  20.871  0.00  0.00    +0.000 A 
ATOM      9  C   UNL     1       2.121   7.294  19.585  0.00  0.00    +0.000 A 
ATOM     10  N   UNL     1       2.849   6.216  19.000  0.00  0.00    +0.000 N 
ENDROOT
BRANCH  10  11
ATOM     11  C   UNL     1       3.427   5.053  19.730  0.00  0.00    +0.000 C 
ATOM     12  C   UNL     1       4.380   3.839  19.342  0.00  0.00    +0.000 C 
ATOM     13  C   UNL     1       3.763   2.794  18.434  0.00  0.00    +0.000 C 
ATOM     14  S   UNL     1       2.073   3.090  18.545  0.00  0.00    +0.000 S 
ATOM     15  O   UNL     1       1.862   3.652  17.230  0.00  0.00    +0.000 OA
ATOM     16  O   UNL     1       1.285   1.941  18.956  0.00  0.00    +0.000 OA
ATOM     17  C   UNL     1       2.190   4.298  20.125  0.00  0.00    +0.000 C 
ENDBRANCH  10  11
BRANCH   6  18
ATOM     18  C   UNL     1      -0.337  10.643  20.628  0.00  0.00    +0.000 C 
ATOM     19  O   UNL     1      -1.109  11.071  19.771  0.00  0.00    +0.000 OA
ATOM     20  N   UNL     1      -0.168  11.199  21.931  0.00  0.00    +0.000 N 
ATOM     21  H   UNL     1       0.429  10.790  22.634  0.00  0.00    +0.000 HD
BRANCH  20  22
ATOM     22  C   UNL     1      -0.906  12.330  22.337  0.00  0.00    +0.000 A 
ATOM     23  C   UNL     1      -0.214  13.526  22.150  0.00  0.00    +0.000 A 
ATOM     24  C   UNL     1      -0.752  14.665  22.572  0.00  0.00    +0.000 A 
ATOM     25  C   UNL     1      -1.880  14.512  23.291  0.00  0.00    +0.000 A 
ATOM     26  N   UNL     1      -2.134  15.599  23.928  0.00  0.00    +0.000 NA
ATOM     27  C   UNL     1      -2.361  16.700  24.545  0.00  0.00    +0.000 A 
ATOM     28  C   UNL     1      -3.337  15.928  25.060  0.00  0.00    +0.000 A 
ATOM     29  C   UNL     1      -3.653  14.312  24.732  0.00  0.00    +0.000 A 
ATOM     30  C   UNL     1      -2.701  13.504  23.720  0.00  0.00    +0.000 A 
ATOM     31  C   UNL     1      -2.214  12.306  22.977  0.00  0.00    +0.000 A 
ENDBRANCH  20  22
ENDBRANCH   6  18
TORSDOF 3
ENDMDL
MODEL 8
REMARK VINA RESULT:      -8.9      2.861      3.881
REMARK  Name = 
REMARK  4 active torsions:
REMARK  status: ('A' for Active; 'I' for Inactive)
REMARK    1  A    between atoms: C_1  and  C_2
REMARK    2  A    between atoms: C_6  and  C_7
REMARK    3  A    between atoms: N_9  and  C_10
REMARK    4  A    between atoms: N_23  and  C_24
REMARK                            x       y       z     vdW  Elec       q    Type
REMARK                         _______ _______ _______ _____ _____    ______ ____
ROOT
ATOM      1  C   UNL     1       3.996   6.173  17.218  0.00  0.00    +0.000 C 
ATOM      2  C   UNL     1       3.018   6.906  18.086  0.00  0.00    +0.000 A 
ATOM      3  N   UNL     1       2.678   8.183  17.931  0.00  0.00    +0.000 NA
ATOM      4  C   UNL     1       1.842   8.525  18.971  0.00  0.00    +0.000 A 
ATOM      5  C   UNL     1       1.193   9.733  19.384  0.00  0.00    +0.000 A 
ATOM      6  C   UNL     1       0.416   9.788  20.593  0.00  0.00    +0.000 A 
ATOM      7  C   UNL     1       0.452   8.741  21.443  0.00  0.00    +0.000 A 
ATOM      8  C   UNL     1       1.367   7.782  21.151  0.00  0.00    +0.000 A 
ATOM      9  C   UNL     1       1.774   7.454  19.842  0.00  0.00    +0.000 A 
ATOM     10  N   UNL     1       2.374   6.334  19.195  0.00  0.00    +0.000 N 
ENDROOT
BRANCH  10  11
ATOM     11  C   UNL     1       2.840   5.086  19.860  0.00  0.00    +0.000 C 
ATOM     12  C   UNL     1       3.708   3.828  19.417  0.00  0.00    +0.000 C 
ATOM     13  C   UNL     1       3.039   2.893  18.428  0.00  0.00    +0.000 C 
ATOM     14  S   UNL     1       1.373   3.314  18.519  0.00  0.00    +0.000 S 
ATOM     15  O   UNL     1       1.244   3.972  17.238  0.00  0.00    +0.000 OA
ATOM     16  O   UNL     1       0.488   2.206  18.835  0.00  0.00    +0.000 OA
ATOM     17  C   UNL     1       1.538   4.406  20.176  0.00  0.00    +0.000 C 
ENDBRANCH  10  11
BRANCH   6  18
ATOM     18  C   UNL     1      -0.299  10.991  21.083  0.00  0.00    +0.000 C 
ATOM     19  O   UNL     1      -0.364  11.926  20.287  0.00  0.00    +0.000 OA
ATOM     20  N   UNL     1      -0.793  11.017  22.421  0.00  0.00    +0.000 N 
ATOM     21  H   UNL     1      -0.780  10.214  23.032  0.00  0.00    +0.000 HD
BRANCH  20  22
ATOM     22  C   UNL     1      -1.412  12.173  22.942  0.00  0.00    +0.000 A 
ATOM     23  C   UNL     1      -2.686  11.925  23.448  0.00  0.00    +0.000 A 
ATOM     24  C   UNL     1      -3.423  12.939  23.890  0.00  0.00    +0.000 A 
ATOM     25  C   UNL     1      -2.892  14.154  23.652  0.00  0.00    +0.000 A 
ATOM     26  N   UNL     1      -3.798  15.053  23.796  0.00  0.00    +0.000 NA
ATOM     27  C   UNL     1      -4.725  15.926  23.953  0.00  0.00    +0.000 A 
ATOM     28  C   UNL     1      -3.725  16.711  23.507  0.00  0.00    +0.000 A 
ATOM     29  C   UNL     1      -2.175  16.249  23.057  0.00  0.00    +0.000 A 
ATOM     30  C   UNL     1      -1.764  14.696  23.097  0.00  0.00    +0.000 A 
ATOM     31  C   UNL     1      -0.865  13.523  22.897  0.00  0.00    +0.000 A 
ENDBRANCH  20  22
ENDBRANCH   6  18
TORSDOF 3
ENDMDL
MODEL 9
REMARK VINA RESULT:      -8.8      3.617      4.614
REMARK  Name = 
REMARK  4 active torsions:
REMARK  status: ('A' for Active; 'I' for Inactive)
REMARK    1  A    between atoms: C_1  and  C_2
REMARK    2  A    between atoms: C_6  and  C_7
REMARK    3  A    between atoms: N_9  and  C_10
REMARK    4  A    between atoms: N_23  and  C_24
REMARK                            x       y       z     vdW  Elec       q    Type
REMARK                         _______ _______ _______ _____ _____    ______ ____
ROOT
ATOM      1  C   UNL     1       4.691   5.208  17.526  0.00  0.00    +0.000 C 
ATOM      2  C   UNL     1       3.683   6.231  17.955  0.00  0.00    +0.000 A 
ATOM      3  N   UNL     1       3.587   7.457  17.446  0.00  0.00    +0.000 NA
ATOM      4  C   UNL     1       2.619   8.132  18.158  0.00  0.00    +0.000 A 
ATOM      5  C   UNL     1       2.096   9.465  18.128  0.00  0.00    +0.000 A 
ATOM      6  C   UNL     1       1.106   9.901  19.076  0.00  0.00    +0.000 A 
ATOM      7  C   UNL     1       0.803   9.101  20.120  0.00  0.00    +0.000 A 
ATOM      8  C   UNL     1       1.596   8.011  20.272  0.00  0.00    +0.000 A 
ATOM      9  C   UNL     1       2.207   7.326  19.201  0.00  0.00    +0.000 A 
ATOM     10  N   UNL     1       2.744   6.024  18.977  0.00  0.00    +0.000 N 
ENDROOT
BRANCH  10  11
ATOM     11  C   UNL     1       2.861   4.940  19.992  0.00  0.00    +0.000 C 
ATOM     12  C   UNL     1       3.569   3.516  20.045  0.00  0.00    +0.000 C 
ATOM     13  C   UNL     1       2.944   2.448  19.170  0.00  0.00    +0.000 C 
ATOM     14  S   UNL     1       1.386   3.074  18.797  0.00  0.00    +0.000 S 
ATOM     15  O   UNL     1       1.606   3.394  17.405  0.00  0.00    +0.000 OA
ATOM     16  O   UNL     1       0.282   2.198  19.153  0.00  0.00    +0.000 OA
ATOM     17  C   UNL     1       1.427   4.525  20.161  0.00  0.00    +0.000 C 
ENDBRANCH  10  11
BRANCH   6  18
ATOM     18  C   UNL     1       0.503  11.255  19.106  0.00  0.00    +0.000 C 
ATOM     19  O   UNL     1      -0.491  11.404  18.398  0.00  0.00    +0.000 OA
ATOM     20  N   UNL     1       1.127  12.284  19.872  0.00  0.00    +0.000 N 
ATOM     21  H   UNL     1       1.906  12.119  20.491  0.00  0.00    +0.000 HD
BRANCH  20  22
ATOM     22  C   UNL     1       0.621  13.601  19.862  0.00  0.00    +0.000 A 
ATOM     23  C   UNL     1      -0.342  13.821  20.845  0.00  0.00    +0.000 A 
ATOM     24  C   UNL     1      -0.969  14.990  20.895  0.00  0.00    +0.000 A 
ATOM     25  C   UNL     1      -0.700  15.809  19.861  0.00  0.00    +0.000 A 
ATOM     26  N   UNL     1      -1.581  16.742  19.811  0.00  0.00    +0.000 NA
ATOM     27  C   UNL     1      -2.474  17.664  19.793  0.00  0.00    +0.000 A 
ATOM     28  C   UNL     1      -1.800  17.956  18.663  0.00  0.00    +0.000 A 
ATOM     29  C   UNL     1      -0.486  17.143  18.008  0.00  0.00    +0.000 A 
ATOM     30  C   UNL     1       0.078  15.825  18.734  0.00  0.00    +0.000 A 
ATOM     31  C   UNL     1       0.962  14.635  18.893  0.00  0.00    +0.000 A 
ENDBRANCH  20  22
ENDBRANCH   6  18
TORSDOF 3
ENDMDL
