MODEL 1
REMARK VINA RESULT:      -8.3      0.000      0.000
REMARK  Name = 
REMARK  7 active torsions:
REMARK  status: ('A' for Active; 'I' for Inactive)
REMARK    1  A    between atoms: C_2  and  C_4
REMARK    2  A    between atoms: C_9  and  O_10
REMARK    3  A    between atoms: O_10  and  C_11
REMARK    4  A    between atoms: C_11  and  C_12
REMARK    5  A    between atoms: N_14  and  C_15
REMARK    6  A    between atoms: C_17  and  C_18
REMARK    7  A    between atoms: N_24  and  C_25
REMARK                            x       y       z     vdW  Elec       q    Type
REMARK                         _______ _______ _______ _____ _____    ______ ____
ROOT
ATOM      1  C   UNL     1       4.079   2.977  18.218  0.00  0.00    +0.000 C 
ATOM      2  O   UNL     1       4.036   2.440  19.315  0.00  0.00    +0.000 OA
ATOM      3  N   UNL     1       5.361   3.462  17.808  0.00  0.00    +0.000 N 
ATOM      4  H   UNL     1       6.135   3.321  18.447  0.00  0.00    +0.000 HD
ENDROOT
BRANCH   3   5
ATOM      5  C   UNL     1       5.593   4.002  16.553  0.00  0.00    +0.000 A 
ATOM      6  C   UNL     1       5.320   3.336  15.388  0.00  0.00    +0.000 A 
ATOM      7  C   UNL     1       5.820   4.164  14.359  0.00  0.00    +0.000 A 
ATOM      8  N   UNL     1       6.416   5.256  14.851  0.00  0.00    +0.000 NA
ATOM      9  N   UNL     1       6.298   5.151  16.201  0.00  0.00    +0.000 N 
BRANCH   9  10
ATOM     10  C   UNL     1       6.964   6.055  17.069  0.00  0.00    +0.000 A 
ATOM     11  C   UNL     1       7.583   5.597  18.242  0.00  0.00    +0.000 A 
ATOM     12  C   UNL     1       8.259   6.491  19.068  0.00  0.00    +0.000 A 
ATOM     13  C   UNL     1       8.334   7.840  18.729  0.00  0.00    +0.000 A 
ATOM     14  C   UNL     1       7.731   8.300  17.558  0.00  0.00    +0.000 A 
ATOM     15  C   UNL     1       7.039   7.413  16.729  0.00  0.00    +0.000 A 
ENDBRANCH   9  10
BRANCH   7  16
ATOM     16  C   UNL     1       5.798   3.898  12.886  0.00  0.00    +0.000 C 
ATOM     17  C   UNL     1       4.392   3.670  12.326  0.00  0.00    +0.000 C 
ATOM     18  C   UNL     1       4.591   2.846  11.057  0.00  0.00    +0.000 C 
ATOM     19  C   UNL     1       5.998   2.259  11.131  0.00  0.00    +0.000 C 
ATOM     20  C   UNL     1       6.524   2.605  12.516  0.00  0.00    +0.000 C 
ENDBRANCH   7  16
ENDBRANCH   3   5
BRANCH   1  21
ATOM     21  C   UNL     1       2.902   3.133  17.286  0.00  0.00    +0.000 C 
BRANCH  21  22
ATOM     22  O   UNL     1       1.731   3.608  17.955  0.00  0.00    +0.000 OA
BRANCH  22  28
ATOM     23  C   UNL     1       1.722   4.892  20.022  0.00  0.00    +0.000 A 
ATOM     24  C   UNL     1       1.828   6.149  20.647  0.00  0.00    +0.000 A 
ATOM     25  C   UNL     1       2.165   7.293  19.923  0.00  0.00    +0.000 A 
ATOM     26  C   UNL     1       2.406   7.189  18.564  0.00  0.00    +0.000 A 
ATOM     27  C   UNL     1       2.266   5.971  17.921  0.00  0.00    +0.000 A 
ATOM     28  C   UNL     1       1.899   4.805  18.622  0.00  0.00    +0.000 A 
BRANCH  23  30
ATOM     29  N   UNL     1       2.368   3.560  21.985  0.00  0.00    +0.000 N 
ATOM     30  C   UNL     1       1.487   3.731  20.957  0.00  0.00    +0.000 C 
ATOM     31  O   UNL     1       0.543   2.972  20.827  0.00  0.00    +0.000 OA
ATOM     32  H   UNL     1       2.231   2.737  22.558  0.00  0.00    +0.000 HD
ATOM     33  H   UNL     1       3.240   4.052  22.014  0.00  0.00    +0.000 HD
ENDBRANCH  23  30
ENDBRANCH  22  28
ENDBRANCH  21  22
ENDBRANCH   1  21
TORSDOF 7
ENDMDL
MODEL 2
REMARK VINA RESULT:      -8.2      5.726      9.438
REMARK  Name = 
REMARK  7 active torsions:
REMARK  status: ('A' for Active; 'I' for Inactive)
REMARK    1  A    between atoms: C_2  and  C_4
REMARK    2  A    between atoms: C_9  and  O_10
REMARK    3  A    between atoms: O_10  and  C_11
REMARK    4  A    between atoms: C_11  and  C_12
REMARK    5  A    between atoms: N_14  and  C_15
REMARK    6  A    between atoms: C_17  and  C_18
REMARK    7  A    between atoms: N_24  and  C_25
REMARK                            x       y       z     vdW  Elec       q    Type
REMARK                         _______ _______ _______ _____ _____    ______ ____
ROOT
ATOM      1  C   UNL     1       0.169   9.339  21.638  0.00  0.00    +0.000 C 
ATOM      2  O   UNL     1      -0.300   8.731  22.588  0.00  0.00    +0.000 OA
ATOM      3  N   UNL     1      -0.268  10.692  21.481  0.00  0.00    +0.000 N 
ATOM      4  H   UNL     1      -0.925  11.048  22.166  0.00  0.00    +0.000 HD
ENDROOT
BRANCH   3   5
ATOM      5  C   UNL     1       0.248  11.541  20.515  0.00  0.00    +0.000 A 
ATOM      6  C   UNL     1       1.265  12.426  20.760  0.00  0.00    +0.000 A 
ATOM      7  C   UNL     1       1.395  13.181  19.573  0.00  0.00    +0.000 A 
ATOM      8  N   UNL     1       0.484  12.827  18.661  0.00  0.00    +0.000 NA
ATOM      9  N   UNL     1      -0.238  11.834  19.243  0.00  0.00    +0.000 N 
BRANCH   9  10
ATOM     10  C   UNL     1      -1.410  11.319  18.628  0.00  0.00    +0.000 A 
ATOM     11  C   UNL     1      -2.662  11.898  18.877  0.00  0.00    +0.000 A 
ATOM     12  C   UNL     1      -3.799  11.403  18.243  0.00  0.00    +0.000 A 
ATOM     13  C   UNL     1      -3.695  10.339  17.349  0.00  0.00    +0.000 A 
ATOM     14  C   UNL     1      -2.451   9.767  17.087  0.00  0.00    +0.000 A 
ATOM     15  C   UNL     1      -1.307  10.248  17.729  0.00  0.00    +0.000 A 
ENDBRANCH   9  10
BRANCH   7  16
ATOM     16  C   UNL     1       2.351  14.303  19.310  0.00  0.00    +0.000 C 
ATOM     17  C   UNL     1       1.699  15.686  19.359  0.00  0.00    +0.000 C 
ATOM     18  C   UNL     1       2.591  16.584  18.506  0.00  0.00    +0.000 C 
ATOM     19  C   UNL     1       3.458  15.660  17.655  0.00  0.00    +0.000 C 
ATOM     20  C   UNL     1       2.935  14.253  17.898  0.00  0.00    +0.000 C 
ENDBRANCH   7  16
ENDBRANCH   3   5
BRANCH   1  21
ATOM     21  C   UNL     1       1.173   8.774  20.663  0.00  0.00    +0.000 C 
BRANCH  21  22
ATOM     22  O   UNL     1       1.317   7.356  20.783  0.00  0.00    +0.000 OA
BRANCH  22  28
ATOM     23  C   UNL     1       2.365   5.387  19.810  0.00  0.00    +0.000 A 
ATOM     24  C   UNL     1       3.227   4.853  18.832  0.00  0.00    +0.000 A 
ATOM     25  C   UNL     1       3.764   5.653  17.825  0.00  0.00    +0.000 A 
ATOM     26  C   UNL     1       3.440   6.998  17.781  0.00  0.00    +0.000 A 
ATOM     27  C   UNL     1       2.629   7.554  18.755  0.00  0.00    +0.000 A 
ATOM     28  C   UNL     1       2.094   6.774  19.801  0.00  0.00    +0.000 A 
BRANCH  23  30
ATOM     29  N   UNL     1       0.568   3.810  20.383  0.00  0.00    +0.000 N 
ATOM     30  C   UNL     1       1.756   4.373  20.747  0.00  0.00    +0.000 C 
ATOM     31  O   UNL     1       2.297   4.044  21.788  0.00  0.00    +0.000 OA
ATOM     32  H   UNL     1       0.145   3.184  21.058  0.00  0.00    +0.000 HD
ATOM     33  H   UNL     1       0.020   4.184  19.634  0.00  0.00    +0.000 HD
ENDBRANCH  23  30
ENDBRANCH  22  28
ENDBRANCH  21  22
ENDBRANCH   1  21
TORSDOF 7
ENDMDL
MODEL 3
REMARK VINA RESULT:      -8.2      0.746      1.202
REMARK  Name = 
REMARK  7 active torsions:
REMARK  status: ('A' for Active; 'I' for Inactive)
REMARK    1  A    between atoms: C_2  and  C_4
REMARK    2  A    between atoms: C_9  and  O_10
REMARK    3  A    between atoms: O_10  and  C_11
REMARK    4  A    between atoms: C_11  and  C_12
REMARK    5  A    between atoms: N_14  and  C_15
REMARK    6  A    between atoms: C_17  and  C_18
REMARK    7  A    between atoms: N_24  and  C_25
REMARK                            x       y       z     vdW  Elec       q    Type
REMARK                         _______ _______ _______ _____ _____    ______ ____
ROOT
ATOM      1  C   UNL     1       4.075   3.097  18.233  0.00  0.00    +0.000 C 
ATOM      2  O   UNL     1       3.994   2.564  19.329  0.00  0.00    +0.000 OA
ATOM      3  N   UNL     1       5.386   3.500  17.828  0.00  0.00    +0.000 N 
ATOM      4  H   UNL     1       6.147   3.312  18.470  0.00  0.00    +0.000 HD
ENDROOT
BRANCH   3   5
ATOM      5  C   UNL     1       5.656   4.024  16.574  0.00  0.00    +0.000 A 
ATOM      6  C   UNL     1       5.376   3.361  15.408  0.00  0.00    +0.000 A 
ATOM      7  C   UNL     1       5.921   4.165  14.382  0.00  0.00    +0.000 A 
ATOM      8  N   UNL     1       6.549   5.237  14.878  0.00  0.00    +0.000 NA
ATOM      9  N   UNL     1       6.408   5.144  16.225  0.00  0.00    +0.000 N 
BRANCH   9  10
ATOM     10  C   UNL     1       7.094   6.028  17.099  0.00  0.00    +0.000 A 
ATOM     11  C   UNL     1       7.212   7.391  16.790  0.00  0.00    +0.000 A 
ATOM     12  C   UNL     1       7.861   8.252  17.672  0.00  0.00    +0.000 A 
ATOM     13  C   UNL     1       8.383   7.767  18.869  0.00  0.00    +0.000 A 
ATOM     14  C   UNL     1       8.258   6.415  19.188  0.00  0.00    +0.000 A 
ATOM     15  C   UNL     1       7.621   5.541  18.303  0.00  0.00    +0.000 A 
ENDBRANCH   9  10
BRANCH   7  16
ATOM     16  C   UNL     1       5.911   3.892  12.910  0.00  0.00    +0.000 C 
ATOM     17  C   UNL     1       5.402   2.495  12.551  0.00  0.00    +0.000 C 
ATOM     18  C   UNL     1       6.015   2.178  11.190  0.00  0.00    +0.000 C 
ATOM     19  C   UNL     1       7.167   3.159  10.989  0.00  0.00    +0.000 C 
ATOM     20  C   UNL     1       7.315   3.907  12.304  0.00  0.00    +0.000 C 
ENDBRANCH   7  16
ENDBRANCH   3   5
BRANCH   1  21
ATOM     21  C   UNL     1       2.913   3.325  17.296  0.00  0.00    +0.000 C 
BRANCH  21  22
ATOM     22  O   UNL     1       1.737   3.767  17.978  0.00  0.00    +0.000 OA
BRANCH  22  28
ATOM     23  C   UNL     1       1.704   4.987  20.083  0.00  0.00    +0.000 A 
ATOM     24  C   UNL     1       1.797   6.225  20.746  0.00  0.00    +0.000 A 
ATOM     25  C   UNL     1       2.132   7.392  20.061  0.00  0.00    +0.000 A 
ATOM     26  C   UNL     1       2.383   7.332  18.701  0.00  0.00    +0.000 A 
ATOM     27  C   UNL     1       2.256   6.134  18.020  0.00  0.00    +0.000 A 
ATOM     28  C   UNL     1       1.892   4.944  18.683  0.00  0.00    +0.000 A 
BRANCH  23  30
ATOM     29  N   UNL     1       0.521   2.895  20.600  0.00  0.00    +0.000 N 
ATOM     30  C   UNL     1       1.470   3.797  20.980  0.00  0.00    +0.000 C 
ATOM     31  O   UNL     1       2.107   3.620  22.004  0.00  0.00    +0.000 OA
ATOM     32  H   UNL     1       0.333   2.142  21.250  0.00  0.00    +0.000 HD
ATOM     33  H   UNL     1      -0.132   3.100  19.869  0.00  0.00    +0.000 HD
ENDBRANCH  23  30
ENDBRANCH  22  28
ENDBRANCH  21  22
ENDBRANCH   1  21
TORSDOF 7
ENDMDL
MODEL 4
REMARK VINA RESULT:      -8.2      5.501      9.262
REMARK  Name = 
REMARK  7 active torsions:
REMARK  status: ('A' for Active; 'I' for Inactive)
REMARK    1  A    between atoms: C_2  and  C_4
REMARK    2  A    between atoms: C_9  and  O_10
REMARK    3  A    between atoms: O_10  and  C_11
REMARK    4  A    between atoms: C_11  and  C_12
REMARK    5  A    between atoms: N_14  and  C_15
REMARK    6  A    between atoms: C_17  and  C_18
REMARK    7  A    between atoms: N_24  and  C_25
REMARK                            x       y       z     vdW  Elec       q    Type
REMARK                         _______ _______ _______ _____ _____    ______ ____
ROOT
ATOM      1  C   UNL     1      -0.010   8.864  21.503  0.00  0.00    +0.000 C 
ATOM      2  O   UNL     1      -0.629   8.203  22.323  0.00  0.00    +0.000 OA
ATOM      3  N   UNL     1      -0.569  10.141  21.177  0.00  0.00    +0.000 N 
ATOM      4  H   UNL     1      -1.425  10.405  21.650  0.00  0.00    +0.000 HD
ENDROOT
BRANCH   3   5
ATOM      5  C   UNL     1       0.067  11.047  20.344  0.00  0.00    +0.000 A 
ATOM      6  C   UNL     1       1.116  11.830  20.748  0.00  0.00    +0.000 A 
ATOM      7  C   UNL     1       1.377  12.693  19.661  0.00  0.00    +0.000 A 
ATOM      8  N   UNL     1       0.512  12.500  18.660  0.00  0.00    +0.000 NA
ATOM      9  N   UNL     1      -0.309  11.504  19.083  0.00  0.00    +0.000 N 
BRANCH   9  10
ATOM     10  C   UNL     1      -1.464  11.139  18.342  0.00  0.00    +0.000 A 
ATOM     11  C   UNL     1      -1.412  10.100  17.401  0.00  0.00    +0.000 A 
ATOM     12  C   UNL     1      -2.561   9.733  16.704  0.00  0.00    +0.000 A 
ATOM     13  C   UNL     1      -3.767  10.386  16.948  0.00  0.00    +0.000 A 
ATOM     14  C   UNL     1      -3.828  11.412  17.891  0.00  0.00    +0.000 A 
ATOM     15  C   UNL     1      -2.678  11.797  18.585  0.00  0.00    +0.000 A 
ENDBRANCH   9  10
BRANCH   7  16
ATOM     16  C   UNL     1       2.417  13.768  19.583  0.00  0.00    +0.000 C 
ATOM     17  C   UNL     1       1.839  15.183  19.627  0.00  0.00    +0.000 C 
ATOM     18  C   UNL     1       2.879  16.066  18.944  0.00  0.00    +0.000 C 
ATOM     19  C   UNL     1       3.798  15.135  18.158  0.00  0.00    +0.000 C 
ATOM     20  C   UNL     1       3.174  13.751  18.254  0.00  0.00    +0.000 C 
ENDBRANCH   7  16
ENDBRANCH   3   5
BRANCH   1  21
ATOM     21  C   UNL     1       1.283   8.440  20.851  0.00  0.00    +0.000 C 
BRANCH  21  22
ATOM     22  O   UNL     1       1.433   7.018  20.801  0.00  0.00    +0.000 OA
BRANCH  22  28
ATOM     23  C   UNL     1       2.485   5.185  19.597  0.00  0.00    +0.000 A 
ATOM     24  C   UNL     1       3.319   4.774  18.538  0.00  0.00    +0.000 A 
ATOM     25  C   UNL     1       3.797   5.685  17.597  0.00  0.00    +0.000 A 
ATOM     26  C   UNL     1       3.441   7.018  17.700  0.00  0.00    +0.000 A 
ATOM     27  C   UNL     1       2.658   7.452  18.756  0.00  0.00    +0.000 A 
ATOM     28  C   UNL     1       2.183   6.559  19.738  0.00  0.00    +0.000 A 
BRANCH  23  30
ATOM     29  N   UNL     1       0.591   3.853  20.423  0.00  0.00    +0.000 N 
ATOM     30  C   UNL     1       1.938   4.067  20.450  0.00  0.00    +0.000 C 
ATOM     31  O   UNL     1       2.657   3.359  21.132  0.00  0.00    +0.000 OA
ATOM     32  H   UNL     1       0.239   3.144  21.054  0.00  0.00    +0.000 HD
ATOM     33  H   UNL     1      -0.036   4.520  20.018  0.00  0.00    +0.000 HD
ENDBRANCH  23  30
ENDBRANCH  22  28
ENDBRANCH  21  22
ENDBRANCH   1  21
TORSDOF 7
ENDMDL
MODEL 5
REMARK VINA RESULT:      -8.1      1.818      2.887
REMARK  Name = 
REMARK  7 active torsions:
REMARK  status: ('A' for Active; 'I' for Inactive)
REMARK    1  A    between atoms: C_2  and  C_4
REMARK    2  A    between atoms: C_9  and  O_10
REMARK    3  A    between atoms: O_10  and  C_11
REMARK    4  A    between atoms: C_11  and  C_12
REMARK    5  A    between atoms: N_14  and  C_15
REMARK    6  A    between atoms: C_17  and  C_18
REMARK    7  A    between atoms: N_24  and  C_25
REMARK                            x       y       z     vdW  Elec       q    Type
REMARK                         _______ _______ _______ _____ _____    ______ ____
ROOT
ATOM      1  C   UNL     1       3.780   6.555  17.733  0.00  0.00    +0.000 C 
ATOM      2  O   UNL     1       2.989   7.325  18.256  0.00  0.00    +0.000 OA
ATOM      3  N   UNL     1       4.295   6.955  16.459  0.00  0.00    +0.000 N 
ATOM      4  H   UNL     1       3.975   7.842  16.088  0.00  0.00    +0.000 HD
ENDROOT
BRANCH   3   5
ATOM      5  C   UNL     1       5.274   6.241  15.787  0.00  0.00    +0.000 A 
ATOM      6  C   UNL     1       4.996   5.330  14.802  0.00  0.00    +0.000 A 
ATOM      7  C   UNL     1       6.238   4.738  14.481  0.00  0.00    +0.000 A 
ATOM      8  N   UNL     1       7.223   5.209  15.253  0.00  0.00    +0.000 NA
ATOM      9  N   UNL     1       6.632   6.118  16.072  0.00  0.00    +0.000 N 
BRANCH   9  10
ATOM     10  C   UNL     1       7.345   6.709  17.149  0.00  0.00    +0.000 A 
ATOM     11  C   UNL     1       7.684   8.069  17.122  0.00  0.00    +0.000 A 
ATOM     12  C   UNL     1       8.355   8.642  18.199  0.00  0.00    +0.000 A 
ATOM     13  C   UNL     1       8.682   7.871  19.312  0.00  0.00    +0.000 A 
ATOM     14  C   UNL     1       8.337   6.520  19.350  0.00  0.00    +0.000 A 
ATOM     15  C   UNL     1       7.675   5.933  18.269  0.00  0.00    +0.000 A 
ENDBRANCH   9  10
BRANCH   7  16
ATOM     16  C   UNL     1       6.497   3.660  13.475  0.00  0.00    +0.000 C 
ATOM     17  C   UNL     1       7.334   4.125  12.282  0.00  0.00    +0.000 C 
ATOM     18  C   UNL     1       6.986   3.168  11.145  0.00  0.00    +0.000 C 
ATOM     19  C   UNL     1       5.688   2.470  11.543  0.00  0.00    +0.000 C 
ATOM     20  C   UNL     1       5.214   3.157  12.814  0.00  0.00    +0.000 C 
ENDBRANCH   7  16
ENDBRANCH   3   5
BRANCH   1  21
ATOM     21  C   UNL     1       4.254   5.258  18.342  0.00  0.00    +0.000 C 
BRANCH  21  22
ATOM     22  O   UNL     1       3.349   4.177  18.104  0.00  0.00    +0.000 OA
BRANCH  22  28
ATOM     23  C   UNL     1       3.011   2.588  19.916  0.00  0.00    +0.000 A 
ATOM     24  C   UNL     1       2.217   2.164  20.999  0.00  0.00    +0.000 A 
ATOM     25  C   UNL     1       1.123   2.911  21.433  0.00  0.00    +0.000 A 
ATOM     26  C   UNL     1       0.813   4.097  20.789  0.00  0.00    +0.000 A 
ATOM     27  C   UNL     1       1.552   4.512  19.695  0.00  0.00    +0.000 A 
ATOM     28  C   UNL     1       2.647   3.763  19.219  0.00  0.00    +0.000 A 
BRANCH  23  30
ATOM     29  N   UNL     1       4.248   0.979  18.530  0.00  0.00    +0.000 N 
ATOM     30  C   UNL     1       4.237   1.749  19.655  0.00  0.00    +0.000 C 
ATOM     31  O   UNL     1       5.200   1.756  20.401  0.00  0.00    +0.000 OA
ATOM     32  H   UNL     1       5.051   0.373  18.410  0.00  0.00    +0.000 HD
ATOM     33  H   UNL     1       3.415   0.817  17.998  0.00  0.00    +0.000 HD
ENDBRANCH  23  30
ENDBRANCH  22  28
ENDBRANCH  21  22
ENDBRANCH   1  21
TORSDOF 7
ENDMDL
MODEL 6
REMARK VINA RESULT:      -8.0      5.262      8.412
REMARK  Name = 
REMARK  7 active torsions:
REMARK  status: ('A' for Active; 'I' for Inactive)
REMARK    1  A    between atoms: C_2  and  C_4
REMARK    2  A    between atoms: C_9  and  O_10
REMARK    3  A    between atoms: O_10  and  C_11
REMARK    4  A    between atoms: C_11  and  C_12
REMARK    5  A    between atoms: N_14  and  C_15
REMARK    6  A    between atoms: C_17  and  C_18
REMARK    7  A    between atoms: N_24  and  C_25
REMARK                            x       y       z     vdW  Elec       q    Type
REMARK                         _______ _______ _______ _____ _____    ______ ____
ROOT
ATOM      1  C   UNL     1       2.585   8.430  18.079  0.00  0.00    +0.000 C 
ATOM      2  O   UNL     1       3.577   8.013  17.500  0.00  0.00    +0.000 OA
ATOM      3  N   UNL     1       2.064   9.678  17.610  0.00  0.00    +0.000 N 
ATOM      4  H   UNL     1       2.547  10.118  16.835  0.00  0.00    +0.000 HD
ENDROOT
BRANCH   3   5
ATOM      5  C   UNL     1       0.890  10.230  18.094  0.00  0.00    +0.000 A 
ATOM      6  C   UNL     1      -0.352   9.738  17.789  0.00  0.00    +0.000 A 
ATOM      7  C   UNL     1      -1.265  10.652  18.361  0.00  0.00    +0.000 A 
ATOM      8  N   UNL     1      -0.636  11.679  18.942  0.00  0.00    +0.000 NA
ATOM      9  N   UNL     1       0.689  11.436  18.762  0.00  0.00    +0.000 N 
BRANCH   9  10
ATOM     10  C   UNL     1       1.667  12.405  19.106  0.00  0.00    +0.000 A 
ATOM     11  C   UNL     1       2.407  13.060  18.111  0.00  0.00    +0.000 A 
ATOM     12  C   UNL     1       3.342  14.031  18.462  0.00  0.00    +0.000 A 
ATOM     13  C   UNL     1       3.537  14.364  19.801  0.00  0.00    +0.000 A 
ATOM     14  C   UNL     1       2.797  13.725  20.794  0.00  0.00    +0.000 A 
ATOM     15  C   UNL     1       1.866  12.740  20.453  0.00  0.00    +0.000 A 
ENDBRANCH   9  10
BRANCH   7  16
ATOM     16  C   UNL     1      -2.761  10.597  18.307  0.00  0.00    +0.000 C 
ATOM     17  C   UNL     1      -3.322  10.635  16.884  0.00  0.00    +0.000 C 
ATOM     18  C   UNL     1      -4.741  11.179  17.025  0.00  0.00    +0.000 C 
ATOM     19  C   UNL     1      -4.826  11.834  18.401  0.00  0.00    +0.000 C 
ATOM     20  C   UNL     1      -3.413  11.816  18.962  0.00  0.00    +0.000 C 
ENDBRANCH   7  16
ENDBRANCH   3   5
BRANCH   1  21
ATOM     21  C   UNL     1       1.880   7.717  19.207  0.00  0.00    +0.000 C 
BRANCH  21  22
ATOM     22  O   UNL     1       2.713   6.747  19.849  0.00  0.00    +0.000 OA
BRANCH  22  28
ATOM     23  C   UNL     1       2.894   4.576  18.766  0.00  0.00    +0.000 A 
ATOM     24  C   UNL     1       2.374   3.278  18.598  0.00  0.00    +0.000 A 
ATOM     25  C   UNL     1       1.316   2.814  19.379  0.00  0.00    +0.000 A 
ATOM     26  C   UNL     1       0.770   3.644  20.343  0.00  0.00    +0.000 A 
ATOM     27  C   UNL     1       1.237   4.938  20.497  0.00  0.00    +0.000 A 
ATOM     28  C   UNL     1       2.286   5.442  19.703  0.00  0.00    +0.000 A 
BRANCH  23  30
ATOM     29  N   UNL     1       5.120   5.595  18.545  0.00  0.00    +0.000 N 
ATOM     30  C   UNL     1       4.124   4.882  17.946  0.00  0.00    +0.000 C 
ATOM     31  O   UNL     1       4.248   4.502  16.795  0.00  0.00    +0.000 OA
ATOM     32  H   UNL     1       5.905   5.847  17.956  0.00  0.00    +0.000 HD
ATOM     33  H   UNL     1       4.976   6.066  19.416  0.00  0.00    +0.000 HD
ENDBRANCH  23  30
ENDBRANCH  22  28
ENDBRANCH  21  22
ENDBRANCH   1  21
TORSDOF 7
ENDMDL
MODEL 7
REMARK VINA RESULT:      -8.0      2.226      5.784
REMARK  Name = 
REMARK  7 active torsions:
REMARK  status: ('A' for Active; 'I' for Inactive)
REMARK    1  A    between atoms: C_2  and  C_4
REMARK    2  A    between atoms: C_9  and  O_10
REMARK    3  A    between atoms: O_10  and  C_11
REMARK    4  A    between atoms: C_11  and  C_12
REMARK    5  A    between atoms: N_14  and  C_15
REMARK    6  A    between atoms: C_17  and  C_18
REMARK    7  A    between atoms: N_24  and  C_25
REMARK                            x       y       z     vdW  Elec       q    Type
REMARK                         _______ _______ _______ _____ _____    ______ ____
ROOT
ATOM      1  C   UNL     1       6.047   4.689  19.455  0.00  0.00    +0.000 C 
ATOM      2  O   UNL     1       5.916   3.568  19.924  0.00  0.00    +0.000 OA
ATOM      3  N   UNL     1       7.377   5.061  19.083  0.00  0.00    +0.000 N 
ATOM      4  H   UNL     1       8.108   4.373  19.227  0.00  0.00    +0.000 HD
ENDROOT
BRANCH   3   5
ATOM      5  C   UNL     1       7.671   6.256  18.446  0.00  0.00    +0.000 A 
ATOM      6  C   UNL     1       8.114   7.370  19.109  0.00  0.00    +0.000 A 
ATOM      7  C   UNL     1       8.163   8.390  18.133  0.00  0.00    +0.000 A 
ATOM      8  N   UNL     1       7.727   7.956  16.945  0.00  0.00    +0.000 NA
ATOM      9  N   UNL     1       7.403   6.651  17.137  0.00  0.00    +0.000 N 
BRANCH   9  10
ATOM     10  C   UNL     1       6.745   5.900  16.127  0.00  0.00    +0.000 A 
ATOM     11  C   UNL     1       5.486   6.293  15.649  0.00  0.00    +0.000 A 
ATOM     12  C   UNL     1       4.866   5.565  14.637  0.00  0.00    +0.000 A 
ATOM     13  C   UNL     1       5.498   4.452  14.086  0.00  0.00    +0.000 A 
ATOM     14  C   UNL     1       6.755   4.063  14.549  0.00  0.00    +0.000 A 
ATOM     15  C   UNL     1       7.379   4.779  15.574  0.00  0.00    +0.000 A 
ENDBRANCH   9  10
BRANCH   7  16
ATOM     16  C   UNL     1       8.563   9.819  18.330  0.00  0.00    +0.000 C 
ATOM     17  C   UNL     1       9.651  10.289  17.362  0.00  0.00    +0.000 C 
ATOM     18  C   UNL     1      10.337  11.458  18.063  0.00  0.00    +0.000 C 
ATOM     19  C   UNL     1       9.952  11.374  19.537  0.00  0.00    +0.000 C 
ATOM     20  C   UNL     1       9.198  10.063  19.699  0.00  0.00    +0.000 C 
ENDBRANCH   7  16
ENDBRANCH   3   5
BRANCH   1  21
ATOM     21  C   UNL     1       4.919   5.666  19.228  0.00  0.00    +0.000 C 
BRANCH  21  22
ATOM     22  O   UNL     1       3.903   5.141  18.369  0.00  0.00    +0.000 OA
BRANCH  22  28
ATOM     23  C   UNL     1       2.711   3.077  18.855  0.00  0.00    +0.000 A 
ATOM     24  C   UNL     1       1.618   2.449  19.483  0.00  0.00    +0.000 A 
ATOM     25  C   UNL     1       0.752   3.159  20.313  0.00  0.00    +0.000 A 
ATOM     26  C   UNL     1       0.975   4.508  20.530  0.00  0.00    +0.000 A 
ATOM     27  C   UNL     1       2.017   5.156  19.891  0.00  0.00    +0.000 A 
ATOM     28  C   UNL     1       2.891   4.469  19.024  0.00  0.00    +0.000 A 
BRANCH  23  30
ATOM     29  N   UNL     1       4.412   2.694  17.122  0.00  0.00    +0.000 N 
ATOM     30  C   UNL     1       3.634   2.151  18.102  0.00  0.00    +0.000 C 
ATOM     31  O   UNL     1       3.709   0.961  18.355  0.00  0.00    +0.000 OA
ATOM     32  H   UNL     1       4.972   2.044  16.585  0.00  0.00    +0.000 HD
ATOM     33  H   UNL     1       4.247   3.619  16.776  0.00  0.00    +0.000 HD
ENDBRANCH  23  30
ENDBRANCH  22  28
ENDBRANCH  21  22
ENDBRANCH   1  21
TORSDOF 7
ENDMDL
MODEL 8
REMARK VINA RESULT:      -8.0      5.747      9.538
REMARK  Name = 
REMARK  7 active torsions:
REMARK  status: ('A' for Active; 'I' for Inactive)
REMARK    1  A    between atoms: C_2  and  C_4
REMARK    2  A    between atoms: C_9  and  O_10
REMARK    3  A    between atoms: O_10  and  C_11
REMARK    4  A    between atoms: C_11  and  C_12
REMARK    5  A    between atoms: N_14  and  C_15
REMARK    6  A    between atoms: C_17  and  C_18
REMARK    7  A    between atoms: N_24  and  C_25
REMARK                            x       y       z     vdW  Elec       q    Type
REMARK                         _______ _______ _______ _____ _____    ______ ____
ROOT
ATOM      1  C   UNL     1       0.332   9.126  21.154  0.00  0.00    +0.000 C 
ATOM      2  O   UNL     1      -0.048   8.413  22.071  0.00  0.00    +0.000 OA
ATOM      3  N   UNL     1      -0.105  10.488  21.196  0.00  0.00    +0.000 N 
ATOM      4  H   UNL     1      -0.688  10.763  21.979  0.00  0.00    +0.000 HD
ENDROOT
BRANCH   3   5
ATOM      5  C   UNL     1       0.322  11.442  20.287  0.00  0.00    +0.000 A 
ATOM      6  C   UNL     1       1.341  12.321  20.546  0.00  0.00    +0.000 A 
ATOM      7  C   UNL     1       1.368  13.196  19.437  0.00  0.00    +0.000 A 
ATOM      8  N   UNL     1       0.395  12.915  18.563  0.00  0.00    +0.000 NA
ATOM      9  N   UNL     1      -0.265  11.851  19.092  0.00  0.00    +0.000 N 
BRANCH   9  10
ATOM     10  C   UNL     1      -1.472  11.375  18.516  0.00  0.00    +0.000 A 
ATOM     11  C   UNL     1      -1.467  10.269  17.654  0.00  0.00    +0.000 A 
ATOM     12  C   UNL     1      -2.663   9.794  17.122  0.00  0.00    +0.000 A 
ATOM     13  C   UNL     1      -3.870  10.407  17.452  0.00  0.00    +0.000 A 
ATOM     14  C   UNL     1      -3.883  11.500  18.318  0.00  0.00    +0.000 A 
ATOM     15  C   UNL     1      -2.687  11.992  18.847  0.00  0.00    +0.000 A 
ENDBRANCH   9  10
BRANCH   7  16
ATOM     16  C   UNL     1       2.283  14.361  19.220  0.00  0.00    +0.000 C 
ATOM     17  C   UNL     1       1.573  15.606  18.686  0.00  0.00    +0.000 C 
ATOM     18  C   UNL     1       2.653  16.413  17.973  0.00  0.00    +0.000 C 
ATOM     19  C   UNL     1       3.823  15.463  17.730  0.00  0.00    +0.000 C 
ATOM     20  C   UNL     1       3.335  14.084  18.145  0.00  0.00    +0.000 C 
ENDBRANCH   7  16
ENDBRANCH   3   5
BRANCH   1  21
ATOM     21  C   UNL     1       1.230   8.677  20.027  0.00  0.00    +0.000 C 
BRANCH  21  22
ATOM     22  O   UNL     1       2.203   7.717  20.449  0.00  0.00    +0.000 OA
BRANCH  22  28
ATOM     23  C   UNL     1       2.550   6.116  18.651  0.00  0.00    +0.000 A 
ATOM     24  C   UNL     1       2.279   4.840  18.119  0.00  0.00    +0.000 A 
ATOM     25  C   UNL     1       1.561   3.890  18.844  0.00  0.00    +0.000 A 
ATOM     26  C   UNL     1       1.110   4.204  20.114  0.00  0.00    +0.000 A 
ATOM     27  C   UNL     1       1.328   5.466  20.641  0.00  0.00    +0.000 A 
ATOM     28  C   UNL     1       2.027   6.454  19.919  0.00  0.00    +0.000 A 
BRANCH  23  30
ATOM     29  N   UNL     1       4.723   6.536  17.580  0.00  0.00    +0.000 N 
ATOM     30  C   UNL     1       3.454   6.981  17.807  0.00  0.00    +0.000 C 
ATOM     31  O   UNL     1       3.078   8.034  17.322  0.00  0.00    +0.000 OA
ATOM     32  H   UNL     1       5.331   7.164  17.069  0.00  0.00    +0.000 HD
ATOM     33  H   UNL     1       5.112   5.775  18.102  0.00  0.00    +0.000 HD
ENDBRANCH  23  30
ENDBRANCH  22  28
ENDBRANCH  21  22
ENDBRANCH   1  21
TORSDOF 7
ENDMDL
MODEL 9
REMARK VINA RESULT:      -7.9      3.914      6.046
REMARK  Name = 
REMARK  7 active torsions:
REMARK  status: ('A' for Active; 'I' for Inactive)
REMARK    1  A    between atoms: C_2  and  C_4
REMARK    2  A    between atoms: C_9  and  O_10
REMARK    3  A    between atoms: O_10  and  C_11
REMARK    4  A    between atoms: C_11  and  C_12
REMARK    5  A    between atoms: N_14  and  C_15
REMARK    6  A    between atoms: C_17  and  C_18
REMARK    7  A    between atoms: N_24  and  C_25
REMARK                            x       y       z     vdW  Elec       q    Type
REMARK                         _______ _______ _______ _____ _____    ______ ____
ROOT
ATOM      1  C   UNL     1       2.115   7.922  19.501  0.00  0.00    +0.000 C 
ATOM      2  O   UNL     1       1.695   8.478  20.505  0.00  0.00    +0.000 OA
ATOM      3  N   UNL     1       3.162   6.968  19.705  0.00  0.00    +0.000 N 
ATOM      4  H   UNL     1       3.473   6.819  20.658  0.00  0.00    +0.000 HD
ENDROOT
BRANCH   3   5
ATOM      5  C   UNL     1       3.671   6.183  18.683  0.00  0.00    +0.000 A 
ATOM      6  C   UNL     1       4.479   6.675  17.691  0.00  0.00    +0.000 A 
ATOM      7  C   UNL     1       4.660   5.600  16.792  0.00  0.00    +0.000 A 
ATOM      8  N   UNL     1       3.967   4.520  17.169  0.00  0.00    +0.000 NA
ATOM      9  N   UNL     1       3.340   4.880  18.319  0.00  0.00    +0.000 N 
BRANCH   9  10
ATOM     10  C   UNL     1       2.375   4.034  18.926  0.00  0.00    +0.000 A 
ATOM     11  C   UNL     1       1.608   3.151  18.151  0.00  0.00    +0.000 A 
ATOM     12  C   UNL     1       0.687   2.305  18.764  0.00  0.00    +0.000 A 
ATOM     13  C   UNL     1       0.533   2.322  20.148  0.00  0.00    +0.000 A 
ATOM     14  C   UNL     1       1.301   3.188  20.925  0.00  0.00    +0.000 A 
ATOM     15  C   UNL     1       2.218   4.051  20.319  0.00  0.00    +0.000 A 
ENDBRANCH   9  10
BRANCH   7  16
ATOM     16  C   UNL     1       5.447   5.604  15.518  0.00  0.00    +0.000 C 
ATOM     17  C   UNL     1       5.105   4.441  14.585  0.00  0.00    +0.000 C 
ATOM     18  C   UNL     1       6.341   4.246  13.712  0.00  0.00    +0.000 C 
ATOM     19  C   UNL     1       7.490   4.969  14.410  0.00  0.00    +0.000 C 
ATOM     20  C   UNL     1       6.946   5.418  15.758  0.00  0.00    +0.000 C 
ENDBRANCH   7  16
ENDBRANCH   3   5
BRANCH   1  21
ATOM     21  C   UNL     1       1.593   8.154  18.104  0.00  0.00    +0.000 C 
BRANCH  21  22
ATOM     22  O   UNL     1       1.479   9.543  17.784  0.00  0.00    +0.000 OA
BRANCH  22  28
ATOM     23  C   UNL     1       0.112  11.143  19.004  0.00  0.00    +0.000 A 
ATOM     24  C   UNL     1      -1.176  11.621  19.315  0.00  0.00    +0.000 A 
ATOM     25  C   UNL     1      -2.309  11.125  18.670  0.00  0.00    +0.000 A 
ATOM     26  C   UNL     1      -2.164  10.148  17.700  0.00  0.00    +0.000 A 
ATOM     27  C   UNL     1      -0.913   9.633  17.408  0.00  0.00    +0.000 A 
ATOM     28  C   UNL     1       0.246  10.095  18.065  0.00  0.00    +0.000 A 
BRANCH  23  30
ATOM     29  N   UNL     1       2.157  12.502  18.889  0.00  0.00    +0.000 N 
ATOM     30  C   UNL     1       1.245  11.872  19.684  0.00  0.00    +0.000 C 
ATOM     31  O   UNL     1       1.351  11.922  20.896  0.00  0.00    +0.000 OA
ATOM     32  H   UNL     1       2.945  12.926  19.363  0.00  0.00    +0.000 HD
ATOM     33  H   UNL     1       2.197  12.333  17.903  0.00  0.00    +0.000 HD
ENDBRANCH  23  30
ENDBRANCH  22  28
ENDBRANCH  21  22
ENDBRANCH   1  21
TORSDOF 7
ENDMDL
