MODEL 1
REMARK VINA RESULT:      -8.6      0.000      0.000
REMARK  Name = 
REMARK  6 active torsions:
REMARK  status: ('A' for Active; 'I' for Inactive)
REMARK    1  A    between atoms: C_1  and  C_2
REMARK    2  A    between atoms: C_4  and  O_5
REMARK    3  A    between atoms: O_5  and  C_6
REMARK    4  A    between atoms: C_9  and  N_10
REMARK    5  A    between atoms: C_11  and  C_13
REMARK    6  A    between atoms: C_15  and  C_16
REMARK                            x       y       z     vdW  Elec       q    Type
REMARK                         _______ _______ _______ _____ _____    ______ ____
ROOT
ATOM      1  C   UNL     1       0.834   9.657  19.344  0.00  0.00    +0.000 A 
ATOM      2  C   UNL     1       1.536   9.380  18.176  0.00  0.00    +0.000 A 
ATOM      3  C   UNL     1       2.300   8.216  18.070  0.00  0.00    +0.000 A 
ATOM      4  C   UNL     1       2.423   7.322  19.138  0.00  0.00    +0.000 A 
ATOM      5  C   UNL     1       1.797   7.661  20.346  0.00  0.00    +0.000 A 
ATOM      6  C   UNL     1       1.006   8.822  20.449  0.00  0.00    +0.000 A 
ENDROOT
BRANCH   4   7
ATOM      7  N   UNL     1       3.130   6.090  19.043  0.00  0.00    +0.000 N 
ATOM      8  C   UNL     1       2.632   4.923  18.488  0.00  0.00    +0.000 C 
ATOM      9  O   UNL     1       1.534   4.797  17.959  0.00  0.00    +0.000 OA
ATOM     10  H   UNL     1       4.046   6.054  19.470  0.00  0.00    +0.000 HD
BRANCH   8  11
ATOM     11  C   UNL     1       3.440   3.676  18.560  0.00  0.00    +0.000 C 
ATOM     12  C   UNL     1       4.768   3.673  19.273  0.00  0.00    +0.000 C 
ATOM     13  C   UNL     1       4.674   3.224  17.837  0.00  0.00    +0.000 C 
BRANCH  13  14
ATOM     14  C   UNL     1       5.407   3.940  16.740  0.00  0.00    +0.000 A 
ATOM     15  C   UNL     1       6.728   4.396  16.914  0.00  0.00    +0.000 A 
ATOM     16  C   UNL     1       7.480   4.876  15.840  0.00  0.00    +0.000 A 
ATOM     17  C   UNL     1       6.919   4.902  14.573  0.00  0.00    +0.000 A 
ATOM     18  F   UNL     1       7.656   5.312  13.533  0.00  0.00    +0.000 F 
ATOM     19  C   UNL     1       5.613   4.483  14.366  0.00  0.00    +0.000 A 
ATOM     20  C   UNL     1       4.861   4.012  15.446  0.00  0.00    +0.000 A 
ENDBRANCH  13  14
ENDBRANCH   8  11
ENDBRANCH   4   7
BRANCH   1  21
ATOM     21  O   UNL     1       0.013  10.756  19.464  0.00  0.00    +0.000 OA
BRANCH  21  25
ATOM     22  C   UNL     1      -3.435  10.750  15.864  0.00  0.00    +0.000 C 
ATOM     23  C   UNL     1      -2.427  11.032  16.909  0.00  0.00    +0.000 A 
ATOM     24  C   UNL     1      -1.853  10.226  17.869  0.00  0.00    +0.000 A 
ATOM     25  C   UNL     1      -0.899  11.047  18.503  0.00  0.00    +0.000 A 
ATOM     26  N   UNL     1      -0.922  12.303  18.052  0.00  0.00    +0.000 NA
ATOM     27  N   UNL     1      -1.851  12.266  17.078  0.00  0.00    +0.000 N 
ATOM     28  H   UNL     1      -2.031  13.116  16.554  0.00  0.00    +0.000 HD
ENDBRANCH  21  25
ENDBRANCH   1  21
TORSDOF 5
ENDMDL
MODEL 2
REMARK VINA RESULT:      -8.6      1.700      2.343
REMARK  Name = 
REMARK  6 active torsions:
REMARK  status: ('A' for Active; 'I' for Inactive)
REMARK    1  A    between atoms: C_1  and  C_2
REMARK    2  A    between atoms: C_4  and  O_5
REMARK    3  A    between atoms: O_5  and  C_6
REMARK    4  A    between atoms: C_9  and  N_10
REMARK    5  A    between atoms: C_11  and  C_13
REMARK    6  A    between atoms: C_15  and  C_16
REMARK                            x       y       z     vdW  Elec       q    Type
REMARK                         _______ _______ _______ _____ _____    ______ ____
ROOT
ATOM      1  C   UNL     1       0.946   9.696  19.454  0.00  0.00    +0.000 A 
ATOM      2  C   UNL     1       1.111   8.738  20.449  0.00  0.00    +0.000 A 
ATOM      3  C   UNL     1       1.875   7.595  20.210  0.00  0.00    +0.000 A 
ATOM      4  C   UNL     1       2.456   7.351  18.962  0.00  0.00    +0.000 A 
ATOM      5  C   UNL     1       2.199   8.269  17.933  0.00  0.00    +0.000 A 
ATOM      6  C   UNL     1       1.448   9.436  18.179  0.00  0.00    +0.000 A 
ENDROOT
BRANCH   4   7
ATOM      7  N   UNL     1       3.301   6.236  18.703  0.00  0.00    +0.000 N 
ATOM      8  C   UNL     1       2.900   5.047  18.117  0.00  0.00    +0.000 C 
ATOM      9  O   UNL     1       1.775   4.803  17.696  0.00  0.00    +0.000 OA
ATOM     10  H   UNL     1       4.256   6.299  19.028  0.00  0.00    +0.000 HD
BRANCH   8  11
ATOM     11  C   UNL     1       3.865   3.920  18.011  0.00  0.00    +0.000 C 
ATOM     12  C   UNL     1       4.660   3.487  19.216  0.00  0.00    +0.000 C 
ATOM     13  C   UNL     1       5.363   3.871  17.938  0.00  0.00    +0.000 C 
BRANCH  13  14
ATOM     14  C   UNL     1       6.315   5.030  17.882  0.00  0.00    +0.000 A 
ATOM     15  C   UNL     1       6.162   6.063  16.937  0.00  0.00    +0.000 A 
ATOM     16  C   UNL     1       6.917   7.236  17.012  0.00  0.00    +0.000 A 
ATOM     17  C   UNL     1       7.835   7.391  18.039  0.00  0.00    +0.000 A 
ATOM     18  F   UNL     1       8.521   8.536  18.143  0.00  0.00    +0.000 F 
ATOM     19  C   UNL     1       8.030   6.386  18.975  0.00  0.00    +0.000 A 
ATOM     20  C   UNL     1       7.279   5.210  18.891  0.00  0.00    +0.000 A 
ENDBRANCH  13  14
ENDBRANCH   8  11
ENDBRANCH   4   7
BRANCH   1  21
ATOM     21  O   UNL     1       0.261  10.871  19.671  0.00  0.00    +0.000 OA
BRANCH  21  25
ATOM     22  C   UNL     1      -3.704  11.266  16.676  0.00  0.00    +0.000 C 
ATOM     23  C   UNL     1      -2.490  11.422  17.507  0.00  0.00    +0.000 A 
ATOM     24  C   UNL     1      -1.926  10.608  18.466  0.00  0.00    +0.000 A 
ATOM     25  C   UNL     1      -0.731  11.258  18.831  0.00  0.00    +0.000 A 
ATOM     26  N   UNL     1      -0.583  12.438  18.225  0.00  0.00    +0.000 NA
ATOM     27  N   UNL     1      -1.659  12.510  17.419  0.00  0.00    +0.000 N 
ATOM     28  H   UNL     1      -1.758  13.324  16.820  0.00  0.00    +0.000 HD
ENDBRANCH  21  25
ENDBRANCH   1  21
TORSDOF 5
ENDMDL
MODEL 3
REMARK VINA RESULT:      -8.2      2.618      3.806
REMARK  Name = 
REMARK  6 active torsions:
REMARK  status: ('A' for Active; 'I' for Inactive)
REMARK    1  A    between atoms: C_1  and  C_2
REMARK    2  A    between atoms: C_4  and  O_5
REMARK    3  A    between atoms: O_5  and  C_6
REMARK    4  A    between atoms: C_9  and  N_10
REMARK    5  A    between atoms: C_11  and  C_13
REMARK    6  A    between atoms: C_15  and  C_16
REMARK                            x       y       z     vdW  Elec       q    Type
REMARK                         _______ _______ _______ _____ _____    ______ ____
ROOT
ATOM      1  C   UNL     1       0.999   9.624  19.193  0.00  0.00    +0.000 A 
ATOM      2  C   UNL     1       1.686   9.499  17.990  0.00  0.00    +0.000 A 
ATOM      3  C   UNL     1       2.491   8.385  17.749  0.00  0.00    +0.000 A 
ATOM      4  C   UNL     1       2.672   7.390  18.714  0.00  0.00    +0.000 A 
ATOM      5  C   UNL     1       2.060   7.574  19.962  0.00  0.00    +0.000 A 
ATOM      6  C   UNL     1       1.227   8.686  20.200  0.00  0.00    +0.000 A 
ENDROOT
BRANCH   4   7
ATOM      7  N   UNL     1       3.424   6.205  18.478  0.00  0.00    +0.000 N 
ATOM      8  C   UNL     1       4.396   6.056  17.504  0.00  0.00    +0.000 C 
ATOM      9  O   UNL     1       4.782   6.933  16.740  0.00  0.00    +0.000 OA
ATOM     10  H   UNL     1       3.183   5.391  19.028  0.00  0.00    +0.000 HD
BRANCH   8  11
ATOM     11  C   UNL     1       5.023   4.723  17.293  0.00  0.00    +0.000 C 
ATOM     12  C   UNL     1       4.363   3.709  16.394  0.00  0.00    +0.000 C 
ATOM     13  C   UNL     1       4.703   3.357  17.821  0.00  0.00    +0.000 C 
BRANCH  13  14
ATOM     14  C   UNL     1       3.640   2.984  18.812  0.00  0.00    +0.000 A 
ATOM     15  C   UNL     1       3.918   2.896  20.190  0.00  0.00    +0.000 A 
ATOM     16  C   UNL     1       2.897   2.752  21.132  0.00  0.00    +0.000 A 
ATOM     17  C   UNL     1       1.579   2.697  20.705  0.00  0.00    +0.000 A 
ATOM     18  F   UNL     1       0.595   2.612  21.609  0.00  0.00    +0.000 F 
ATOM     19  C   UNL     1       1.267   2.756  19.354  0.00  0.00    +0.000 A 
ATOM     20  C   UNL     1       2.294   2.892  18.415  0.00  0.00    +0.000 A 
ENDBRANCH  13  14
ENDBRANCH   8  11
ENDBRANCH   4   7
BRANCH   1  21
ATOM     21  O   UNL     1       0.139  10.670  19.443  0.00  0.00    +0.000 OA
BRANCH  21  25
ATOM     22  C   UNL     1      -3.366  10.923  15.906  0.00  0.00    +0.000 C 
ATOM     23  C   UNL     1      -2.350  11.129  16.962  0.00  0.00    +0.000 A 
ATOM     24  C   UNL     1      -1.734  10.247  17.824  0.00  0.00    +0.000 A 
ATOM     25  C   UNL     1      -0.797  11.029  18.529  0.00  0.00    +0.000 A 
ATOM     26  N   UNL     1      -0.869  12.323  18.213  0.00  0.00    +0.000 NA
ATOM     27  N   UNL     1      -1.812  12.357  17.252  0.00  0.00    +0.000 N 
ATOM     28  H   UNL     1      -2.029  13.251  16.823  0.00  0.00    +0.000 HD
ENDBRANCH  21  25
ENDBRANCH   1  21
TORSDOF 5
ENDMDL
MODEL 4
REMARK VINA RESULT:      -8.1      0.668      1.152
REMARK  Name = 
REMARK  6 active torsions:
REMARK  status: ('A' for Active; 'I' for Inactive)
REMARK    1  A    between atoms: C_1  and  C_2
REMARK    2  A    between atoms: C_4  and  O_5
REMARK    3  A    between atoms: O_5  and  C_6
REMARK    4  A    between atoms: C_9  and  N_10
REMARK    5  A    between atoms: C_11  and  C_13
REMARK    6  A    between atoms: C_15  and  C_16
REMARK                            x       y       z     vdW  Elec       q    Type
REMARK                         _______ _______ _______ _____ _____    ______ ____
ROOT
ATOM      1  C   UNL     1       0.869  10.010  19.279  0.00  0.00    +0.000 A 
ATOM      2  C   UNL     1       0.855   9.194  20.404  0.00  0.00    +0.000 A 
ATOM      3  C   UNL     1       1.553   7.985  20.410  0.00  0.00    +0.000 A 
ATOM      4  C   UNL     1       2.245   7.536  19.281  0.00  0.00    +0.000 A 
ATOM      5  C   UNL     1       2.170   8.314  18.117  0.00  0.00    +0.000 A 
ATOM      6  C   UNL     1       1.485   9.546  18.116  0.00  0.00    +0.000 A 
ENDROOT
BRANCH   4   7
ATOM      7  N   UNL     1       3.029   6.348  19.272  0.00  0.00    +0.000 N 
ATOM      8  C   UNL     1       2.734   5.200  18.555  0.00  0.00    +0.000 C 
ATOM      9  O   UNL     1       1.785   5.060  17.792  0.00  0.00    +0.000 OA
ATOM     10  H   UNL     1       3.833   6.323  19.886  0.00  0.00    +0.000 HD
BRANCH   8  11
ATOM     11  C   UNL     1       3.581   3.990  18.729  0.00  0.00    +0.000 C 
ATOM     12  C   UNL     1       4.932   4.099  19.390  0.00  0.00    +0.000 C 
ATOM     13  C   UNL     1       4.802   3.495  18.013  0.00  0.00    +0.000 C 
BRANCH  13  14
ATOM     14  C   UNL     1       5.476   4.108  16.820  0.00  0.00    +0.000 A 
ATOM     15  C   UNL     1       6.826   4.507  16.862  0.00  0.00    +0.000 A 
ATOM     16  C   UNL     1       7.510   4.885  15.705  0.00  0.00    +0.000 A 
ATOM     17  C   UNL     1       6.850   4.865  14.486  0.00  0.00    +0.000 A 
ATOM     18  F   UNL     1       7.518   5.176  13.368  0.00  0.00    +0.000 F 
ATOM     19  C   UNL     1       5.513   4.502  14.408  0.00  0.00    +0.000 A 
ATOM     20  C   UNL     1       4.830   4.132  15.571  0.00  0.00    +0.000 A 
ENDBRANCH  13  14
ENDBRANCH   8  11
ENDBRANCH   4   7
BRANCH   1  21
ATOM     21  O   UNL     1       0.254  11.242  19.257  0.00  0.00    +0.000 OA
BRANCH  21  25
ATOM     22  C   UNL     1      -4.187  10.956  17.011  0.00  0.00    +0.000 C 
ATOM     23  C   UNL     1      -2.996  11.229  17.845  0.00  0.00    +0.000 A 
ATOM     24  C   UNL     1      -1.791  10.571  17.963  0.00  0.00    +0.000 A 
ATOM     25  C   UNL     1      -1.033  11.365  18.847  0.00  0.00    +0.000 A 
ATOM     26  N   UNL     1      -1.726  12.398  19.330  0.00  0.00    +0.000 NA
ATOM     27  N   UNL     1      -2.911  12.300  18.699  0.00  0.00    +0.000 N 
ATOM     28  H   UNL     1      -3.614  13.008  18.884  0.00  0.00    +0.000 HD
ENDBRANCH  21  25
ENDBRANCH   1  21
TORSDOF 5
ENDMDL
MODEL 5
REMARK VINA RESULT:      -8.0      3.561      8.802
REMARK  Name = 
REMARK  6 active torsions:
REMARK  status: ('A' for Active; 'I' for Inactive)
REMARK    1  A    between atoms: C_1  and  C_2
REMARK    2  A    between atoms: C_4  and  O_5
REMARK    3  A    between atoms: O_5  and  C_6
REMARK    4  A    between atoms: C_9  and  N_10
REMARK    5  A    between atoms: C_11  and  C_13
REMARK    6  A    between atoms: C_15  and  C_16
REMARK                            x       y       z     vdW  Elec       q    Type
REMARK                         _______ _______ _______ _____ _____    ______ ____
ROOT
ATOM      1  C   UNL     1       4.261   4.151  17.618  0.00  0.00    +0.000 A 
ATOM      2  C   UNL     1       2.923   4.424  17.358  0.00  0.00    +0.000 A 
ATOM      3  C   UNL     1       2.183   5.226  18.229  0.00  0.00    +0.000 A 
ATOM      4  C   UNL     1       2.742   5.738  19.403  0.00  0.00    +0.000 A 
ATOM      5  C   UNL     1       4.060   5.374  19.711  0.00  0.00    +0.000 A 
ATOM      6  C   UNL     1       4.817   4.584  18.822  0.00  0.00    +0.000 A 
ENDROOT
BRANCH   4   7
ATOM      7  N   UNL     1       2.043   6.619  20.276  0.00  0.00    +0.000 N 
ATOM      8  C   UNL     1       1.825   7.967  20.045  0.00  0.00    +0.000 C 
ATOM      9  O   UNL     1       2.158   8.582  19.039  0.00  0.00    +0.000 OA
ATOM     10  H   UNL     1       1.736   6.240  21.162  0.00  0.00    +0.000 HD
BRANCH   8  11
ATOM     11  C   UNL     1       1.178   8.795  21.099  0.00  0.00    +0.000 C 
ATOM     12  C   UNL     1      -0.213   8.465  21.575  0.00  0.00    +0.000 C 
ATOM     13  C   UNL     1       0.106   9.842  21.050  0.00  0.00    +0.000 C 
BRANCH  13  14
ATOM     14  C   UNL     1      -0.577  10.398  19.834  0.00  0.00    +0.000 A 
ATOM     15  C   UNL     1      -0.648   9.667  18.632  0.00  0.00    +0.000 A 
ATOM     16  C   UNL     1      -1.452  10.087  17.571  0.00  0.00    +0.000 A 
ATOM     17  C   UNL     1      -2.201  11.247  17.701  0.00  0.00    +0.000 A 
ATOM     18  F   UNL     1      -3.013  11.624  16.705  0.00  0.00    +0.000 F 
ATOM     19  C   UNL     1      -2.138  12.007  18.860  0.00  0.00    +0.000 A 
ATOM     20  C   UNL     1      -1.325  11.586  19.917  0.00  0.00    +0.000 A 
ENDBRANCH  13  14
ENDBRANCH   8  11
ENDBRANCH   4   7
BRANCH   1  21
ATOM     21  O   UNL     1       5.045   3.425  16.749  0.00  0.00    +0.000 OA
BRANCH  21  25
ATOM     22  C   UNL     1       7.551   5.111  12.783  0.00  0.00    +0.000 C 
ATOM     23  C   UNL     1       6.967   4.792  14.105  0.00  0.00    +0.000 A 
ATOM     24  C   UNL     1       5.835   4.092  14.460  0.00  0.00    +0.000 A 
ATOM     25  C   UNL     1       5.865   4.052  15.868  0.00  0.00    +0.000 A 
ATOM     26  N   UNL     1       6.882   4.748  16.379  0.00  0.00    +0.000 NA
ATOM     27  N   UNL     1       7.542   5.180  15.288  0.00  0.00    +0.000 N 
ATOM     28  H   UNL     1       8.390   5.721  15.423  0.00  0.00    +0.000 HD
ENDBRANCH  21  25
ENDBRANCH   1  21
TORSDOF 5
ENDMDL
MODEL 6
REMARK VINA RESULT:      -8.0      2.712      4.020
REMARK  Name = 
REMARK  6 active torsions:
REMARK  status: ('A' for Active; 'I' for Inactive)
REMARK    1  A    between atoms: C_1  and  C_2
REMARK    2  A    between atoms: C_4  and  O_5
REMARK    3  A    between atoms: O_5  and  C_6
REMARK    4  A    between atoms: C_9  and  N_10
REMARK    5  A    between atoms: C_11  and  C_13
REMARK    6  A    between atoms: C_15  and  C_16
REMARK                            x       y       z     vdW  Elec       q    Type
REMARK                         _______ _______ _______ _____ _____    ______ ____
ROOT
ATOM      1  C   UNL     1       0.975   9.766  19.439  0.00  0.00    +0.000 A 
ATOM      2  C   UNL     1       1.205   8.873  20.478  0.00  0.00    +0.000 A 
ATOM      3  C   UNL     1       1.919   7.694  20.254  0.00  0.00    +0.000 A 
ATOM      4  C   UNL     1       2.382   7.352  18.979  0.00  0.00    +0.000 A 
ATOM      5  C   UNL     1       2.057   8.207  17.916  0.00  0.00    +0.000 A 
ATOM      6  C   UNL     1       1.357   9.409  18.145  0.00  0.00    +0.000 A 
ENDROOT
BRANCH   4   7
ATOM      7  N   UNL     1       3.176   6.199  18.725  0.00  0.00    +0.000 N 
ATOM      8  C   UNL     1       4.177   6.111  17.771  0.00  0.00    +0.000 C 
ATOM      9  O   UNL     1       4.553   7.025  17.046  0.00  0.00    +0.000 OA
ATOM     10  H   UNL     1       2.948   5.361  19.242  0.00  0.00    +0.000 HD
BRANCH   8  11
ATOM     11  C   UNL     1       4.850   4.806  17.534  0.00  0.00    +0.000 C 
ATOM     12  C   UNL     1       4.213   3.777  16.635  0.00  0.00    +0.000 C 
ATOM     13  C   UNL     1       4.591   3.422  18.051  0.00  0.00    +0.000 C 
BRANCH  13  14
ATOM     14  C   UNL     1       3.561   2.999  19.057  0.00  0.00    +0.000 A 
ATOM     15  C   UNL     1       3.908   2.722  20.393  0.00  0.00    +0.000 A 
ATOM     16  C   UNL     1       2.933   2.528  21.374  0.00  0.00    +0.000 A 
ATOM     17  C   UNL     1       1.593   2.612  21.029  0.00  0.00    +0.000 A 
ATOM     18  F   UNL     1       0.657   2.479  21.978  0.00  0.00    +0.000 F 
ATOM     19  C   UNL     1       1.212   2.859  19.718  0.00  0.00    +0.000 A 
ATOM     20  C   UNL     1       2.192   3.044  18.738  0.00  0.00    +0.000 A 
ENDBRANCH  13  14
ENDBRANCH   8  11
ENDBRANCH   4   7
BRANCH   1  21
ATOM     21  O   UNL     1       0.339  10.972  19.633  0.00  0.00    +0.000 OA
BRANCH  21  25
ATOM     22  C   UNL     1      -3.779  11.352  16.849  0.00  0.00    +0.000 C 
ATOM     23  C   UNL     1      -2.514  11.507  17.600  0.00  0.00    +0.000 A 
ATOM     24  C   UNL     1      -1.923  10.726  18.570  0.00  0.00    +0.000 A 
ATOM     25  C   UNL     1      -0.687  11.350  18.829  0.00  0.00    +0.000 A 
ATOM     26  N   UNL     1      -0.535  12.489  18.151  0.00  0.00    +0.000 NA
ATOM     27  N   UNL     1      -1.653  12.557  17.404  0.00  0.00    +0.000 N 
ATOM     28  H   UNL     1      -1.758  13.340  16.767  0.00  0.00    +0.000 HD
ENDBRANCH  21  25
ENDBRANCH   1  21
TORSDOF 5
ENDMDL
MODEL 7
REMARK VINA RESULT:      -7.9      3.413      8.856
REMARK  Name = 
REMARK  6 active torsions:
REMARK  status: ('A' for Active; 'I' for Inactive)
REMARK    1  A    between atoms: C_1  and  C_2
REMARK    2  A    between atoms: C_4  and  O_5
REMARK    3  A    between atoms: O_5  and  C_6
REMARK    4  A    between atoms: C_9  and  N_10
REMARK    5  A    between atoms: C_11  and  C_13
REMARK    6  A    between atoms: C_15  and  C_16
REMARK                            x       y       z     vdW  Elec       q    Type
REMARK                         _______ _______ _______ _____ _____    ______ ____
ROOT
ATOM      1  C   UNL     1       4.760   5.494  17.855  0.00  0.00    +0.000 A 
ATOM      2  C   UNL     1       4.401   6.643  17.161  0.00  0.00    +0.000 A 
ATOM      3  C   UNL     1       3.449   7.519  17.687  0.00  0.00    +0.000 A 
ATOM      4  C   UNL     1       2.796   7.249  18.894  0.00  0.00    +0.000 A 
ATOM      5  C   UNL     1       3.088   6.037  19.536  0.00  0.00    +0.000 A 
ATOM      6  C   UNL     1       4.066   5.164  19.019  0.00  0.00    +0.000 A 
ENDROOT
BRANCH   4   7
ATOM      7  N   UNL     1       1.876   8.152  19.498  0.00  0.00    +0.000 N 
ATOM      8  C   UNL     1       1.537   9.399  19.002  0.00  0.00    +0.000 C 
ATOM      9  O   UNL     1       1.941   9.883  17.951  0.00  0.00    +0.000 OA
ATOM     10  H   UNL     1       1.488   7.881  20.392  0.00  0.00    +0.000 HD
BRANCH   8  11
ATOM     11  C   UNL     1       0.648  10.287  19.799  0.00  0.00    +0.000 C 
ATOM     12  C   UNL     1      -0.576   9.724  20.476  0.00  0.00    +0.000 C 
ATOM     13  C   UNL     1      -0.699  10.886  19.522  0.00  0.00    +0.000 C 
BRANCH  13  14
ATOM     14  C   UNL     1      -1.505  10.785  18.260  0.00  0.00    +0.000 A 
ATOM     15  C   UNL     1      -1.366   9.690  17.385  0.00  0.00    +0.000 A 
ATOM     16  C   UNL     1      -2.251   9.489  16.324  0.00  0.00    +0.000 A 
ATOM     17  C   UNL     1      -3.292  10.383  16.126  0.00  0.00    +0.000 A 
ATOM     18  F   UNL     1      -4.173  10.164  15.142  0.00  0.00    +0.000 F 
ATOM     19  C   UNL     1      -3.447  11.487  16.953  0.00  0.00    +0.000 A 
ATOM     20  C   UNL     1      -2.553  11.688  18.009  0.00  0.00    +0.000 A 
ENDBRANCH  13  14
ENDBRANCH   8  11
ENDBRANCH   4   7
BRANCH   1  21
ATOM     21  O   UNL     1       5.745   4.642  17.406  0.00  0.00    +0.000 OA
BRANCH  21  25
ATOM     22  C   UNL     1       6.494   3.884  12.536  0.00  0.00    +0.000 C 
ATOM     23  C   UNL     1       6.459   4.317  13.950  0.00  0.00    +0.000 A 
ATOM     24  C   UNL     1       5.591   4.019  14.978  0.00  0.00    +0.000 A 
ATOM     25  C   UNL     1       6.137   4.661  16.107  0.00  0.00    +0.000 A 
ATOM     26  N   UNL     1       7.215   5.389  15.812  0.00  0.00    +0.000 NA
ATOM     27  N   UNL     1       7.397   5.155  14.498  0.00  0.00    +0.000 N 
ATOM     28  H   UNL     1       8.193   5.587  14.039  0.00  0.00    +0.000 HD
ENDBRANCH  21  25
ENDBRANCH   1  21
TORSDOF 5
ENDMDL
MODEL 8
REMARK VINA RESULT:      -7.9      2.602      3.466
REMARK  Name = 
REMARK  6 active torsions:
REMARK  status: ('A' for Active; 'I' for Inactive)
REMARK    1  A    between atoms: C_1  and  C_2
REMARK    2  A    between atoms: C_4  and  O_5
REMARK    3  A    between atoms: O_5  and  C_6
REMARK    4  A    between atoms: C_9  and  N_10
REMARK    5  A    between atoms: C_11  and  C_13
REMARK    6  A    between atoms: C_15  and  C_16
REMARK                            x       y       z     vdW  Elec       q    Type
REMARK                         _______ _______ _______ _____ _____    ______ ____
ROOT
ATOM      1  C   UNL     1       1.057   9.731  19.604  0.00  0.00    +0.000 A 
ATOM      2  C   UNL     1       1.236   8.693  20.510  0.00  0.00    +0.000 A 
ATOM      3  C   UNL     1       1.923   7.537  20.135  0.00  0.00    +0.000 A 
ATOM      4  C   UNL     1       2.409   7.365  18.835  0.00  0.00    +0.000 A 
ATOM      5  C   UNL     1       2.134   8.372  17.898  0.00  0.00    +0.000 A 
ATOM      6  C   UNL     1       1.462   9.550  18.281  0.00  0.00    +0.000 A 
ENDROOT
BRANCH   4   7
ATOM      7  N   UNL     1       3.178   6.236  18.436  0.00  0.00    +0.000 N 
ATOM      8  C   UNL     1       2.665   5.073  17.887  0.00  0.00    +0.000 C 
ATOM      9  O   UNL     1       1.486   4.868  17.624  0.00  0.00    +0.000 OA
ATOM     10  H   UNL     1       4.171   6.267  18.625  0.00  0.00    +0.000 HD
BRANCH   8  11
ATOM     11  C   UNL     1       3.574   3.925  17.623  0.00  0.00    +0.000 C 
ATOM     12  C   UNL     1       4.357   3.303  18.750  0.00  0.00    +0.000 C 
ATOM     13  C   UNL     1       5.066   3.816  17.521  0.00  0.00    +0.000 C 
BRANCH  13  14
ATOM     14  C   UNL     1       6.073   4.925  17.601  0.00  0.00    +0.000 A 
ATOM     15  C   UNL     1       5.966   6.075  16.794  0.00  0.00    +0.000 A 
ATOM     16  C   UNL     1       6.776   7.192  17.006  0.00  0.00    +0.000 A 
ATOM     17  C   UNL     1       7.706   7.174  18.035  0.00  0.00    +0.000 A 
ATOM     18  F   UNL     1       8.447   8.263  18.274  0.00  0.00    +0.000 F 
ATOM     19  C   UNL     1       7.857   6.050  18.835  0.00  0.00    +0.000 A 
ATOM     20  C   UNL     1       7.049   4.932  18.613  0.00  0.00    +0.000 A 
ENDBRANCH  13  14
ENDBRANCH   8  11
ENDBRANCH   4   7
BRANCH   1  21
ATOM     21  O   UNL     1       0.449  10.916  19.954  0.00  0.00    +0.000 OA
BRANCH  21  25
ATOM     22  C   UNL     1       2.943  15.080  18.818  0.00  0.00    +0.000 C 
ATOM     23  C   UNL     1       2.245  13.924  19.422  0.00  0.00    +0.000 A 
ATOM     24  C   UNL     1       1.415  12.969  18.877  0.00  0.00    +0.000 A 
ATOM     25  C   UNL     1       1.143  12.082  19.937  0.00  0.00    +0.000 A 
ATOM     26  N   UNL     1       1.677  12.484  21.092  0.00  0.00    +0.000 NA
ATOM     27  N   UNL     1       2.350  13.599  20.751  0.00  0.00    +0.000 N 
ATOM     28  H   UNL     1       2.876  14.083  21.472  0.00  0.00    +0.000 HD
ENDBRANCH  21  25
ENDBRANCH   1  21
TORSDOF 5
ENDMDL
MODEL 9
REMARK VINA RESULT:      -7.9      2.411      2.949
REMARK  Name = 
REMARK  6 active torsions:
REMARK  status: ('A' for Active; 'I' for Inactive)
REMARK    1  A    between atoms: C_1  and  C_2
REMARK    2  A    between atoms: C_4  and  O_5
REMARK    3  A    between atoms: O_5  and  C_6
REMARK    4  A    between atoms: C_9  and  N_10
REMARK    5  A    between atoms: C_11  and  C_13
REMARK    6  A    between atoms: C_15  and  C_16
REMARK                            x       y       z     vdW  Elec       q    Type
REMARK                         _______ _______ _______ _____ _____    ______ ____
ROOT
ATOM      1  C   UNL     1       0.978   9.308  19.965  0.00  0.00    +0.000 A 
ATOM      2  C   UNL     1       1.352   9.456  18.635  0.00  0.00    +0.000 A 
ATOM      3  C   UNL     1       2.079   8.455  17.989  0.00  0.00    +0.000 A 
ATOM      4  C   UNL     1       2.493   7.302  18.663  0.00  0.00    +0.000 A 
ATOM      5  C   UNL     1       2.203   7.207  20.031  0.00  0.00    +0.000 A 
ATOM      6  C   UNL     1       1.448   8.205  20.680  0.00  0.00    +0.000 A 
ENDROOT
BRANCH   4   7
ATOM      7  N   UNL     1       3.170   6.227  18.020  0.00  0.00    +0.000 N 
ATOM      8  C   UNL     1       2.609   4.998  17.714  0.00  0.00    +0.000 C 
ATOM      9  O   UNL     1       1.442   4.679  17.907  0.00  0.00    +0.000 OA
ATOM     10  H   UNL     1       4.155   6.354  17.829  0.00  0.00    +0.000 HD
BRANCH   8  11
ATOM     11  C   UNL     1       3.467   3.924  17.145  0.00  0.00    +0.000 C 
ATOM     12  C   UNL     1       4.243   3.010  18.059  0.00  0.00    +0.000 C 
ATOM     13  C   UNL     1       4.952   3.791  16.981  0.00  0.00    +0.000 C 
BRANCH  13  14
ATOM     14  C   UNL     1       6.004   4.809  17.310  0.00  0.00    +0.000 A 
ATOM     15  C   UNL     1       6.131   6.002  16.572  0.00  0.00    +0.000 A 
ATOM     16  C   UNL     1       6.966   7.037  16.997  0.00  0.00    +0.000 A 
ATOM     17  C   UNL     1       7.685   6.892  18.174  0.00  0.00    +0.000 A 
ATOM     18  F   UNL     1       8.446   7.904  18.611  0.00  0.00    +0.000 F 
ATOM     19  C   UNL     1       7.605   5.723  18.916  0.00  0.00    +0.000 A 
ATOM     20  C   UNL     1       6.774   4.686  18.481  0.00  0.00    +0.000 A 
ENDBRANCH  13  14
ENDBRANCH   8  11
ENDBRANCH   4   7
BRANCH   1  21
ATOM     21  O   UNL     1       0.200  10.238  20.618  0.00  0.00    +0.000 OA
BRANCH  21  25
ATOM     22  C   UNL     1       0.115  14.932  18.941  0.00  0.00    +0.000 C 
ATOM     23  C   UNL     1       0.318  13.640  19.633  0.00  0.00    +0.000 A 
ATOM     24  C   UNL     1      -0.359  12.443  19.553  0.00  0.00    +0.000 A 
ATOM     25  C   UNL     1       0.364  11.565  20.383  0.00  0.00    +0.000 A 
ATOM     26  N   UNL     1       1.370  12.171  21.018  0.00  0.00    +0.000 NA
ATOM     27  N   UNL     1       1.327  13.428  20.537  0.00  0.00    +0.000 N 
ATOM     28  H   UNL     1       2.028  14.088  20.857  0.00  0.00    +0.000 HD
ENDBRANCH  21  25
ENDBRANCH   1  21
TORSDOF 5
ENDMDL
