MODEL 1
REMARK VINA RESULT:      -8.9      0.000      0.000
REMARK  Name = 
REMARK  4 active torsions:
REMARK  status: ('A' for Active; 'I' for Inactive)
REMARK    1  A    between atoms: C_1  and  N_2
REMARK    2  A    between atoms: C_6  and  C_7
REMARK    3  A    between atoms: C_11  and  N_12
REMARK    4  A    between atoms: C_13  and  C_15
REMARK                            x       y       z     vdW  Elec       q    Type
REMARK                         _______ _______ _______ _____ _____    ______ ____
ROOT
ATOM      1  N   UNL     1       1.704   6.597  20.791  0.00  0.00    +0.000 N 
ATOM      2  C   UNL     1       1.616   7.829  20.153  0.00  0.00    +0.000 C 
ATOM      3  O   UNL     1       2.030   8.105  19.033  0.00  0.00    +0.000 OA
ATOM      4  H   UNL     1       1.176   6.488  21.645  0.00  0.00    +0.000 HD
ENDROOT
BRANCH   2   5
ATOM      5  C   UNL     1       0.918   8.895  20.944  0.00  0.00    +0.000 A 
ATOM      6  C   UNL     1       0.585   8.691  22.286  0.00  0.00    +0.000 A 
ATOM      7  C   UNL     1      -0.100   9.676  23.000  0.00  0.00    +0.000 A 
ATOM      8  C   UNL     1      -0.429  10.892  22.432  0.00  0.00    +0.000 A 
ATOM      9  N   UNL     1      -1.083  11.786  23.187  0.00  0.00    +0.000 NA
ATOM     10  C   UNL     1      -1.358  12.990  22.645  0.00  0.00    +0.000 A 
ATOM     11  C   UNL     1      -1.003  13.351  21.360  0.00  0.00    +0.000 A 
ATOM     12  C   UNL     1      -0.345  12.409  20.571  0.00  0.00    +0.000 A 
ATOM     13  C   UNL     1      -0.047  11.139  21.096  0.00  0.00    +0.000 A 
ATOM     14  C   UNL     1       0.617  10.132  20.354  0.00  0.00    +0.000 A 
ENDBRANCH   2   5
BRANCH   1  19
ATOM     15  C   UNL     1       4.327   4.474  19.239  0.00  0.00    +0.000 A 
ATOM     16  C   UNL     1       3.822   3.195  19.514  0.00  0.00    +0.000 A 
ATOM     17  C   UNL     1       2.594   3.028  20.155  0.00  0.00    +0.000 A 
ATOM     18  C   UNL     1       1.856   4.139  20.562  0.00  0.00    +0.000 A 
ATOM     19  C   UNL     1       2.355   5.422  20.351  0.00  0.00    +0.000 A 
ATOM     20  C   UNL     1       3.583   5.581  19.676  0.00  0.00    +0.000 A 
BRANCH  15  26
ATOM     21  C   UNL     1       5.049   4.196  16.129  0.00  0.00    +0.000 C 
ATOM     22  N   UNL     1       5.932   4.451  17.236  0.00  0.00    +0.000 N 
ATOM     23  C   UNL     1       7.289   4.533  17.130  0.00  0.00    +0.000 A 
ATOM     24  N   UNL     1       7.812   4.722  18.314  0.00  0.00    +0.000 NA
ATOM     25  N   UNL     1       6.780   4.739  19.217  0.00  0.00    +0.000 NA
ATOM     26  C   UNL     1       5.633   4.576  18.574  0.00  0.00    +0.000 A 
ENDBRANCH  15  26
ENDBRANCH   1  19
TORSDOF 3
ENDMDL
MODEL 2
REMARK VINA RESULT:      -8.8      3.298      9.025
REMARK  Name = 
REMARK  4 active torsions:
REMARK  status: ('A' for Active; 'I' for Inactive)
REMARK    1  A    between atoms: C_1  and  N_2
REMARK    2  A    between atoms: C_6  and  C_7
REMARK    3  A    between atoms: C_11  and  N_12
REMARK    4  A    between atoms: C_13  and  C_15
REMARK                            x       y       z     vdW  Elec       q    Type
REMARK                         _______ _______ _______ _____ _____    ______ ____
ROOT
ATOM      1  N   UNL     1       1.313   9.025  18.949  0.00  0.00    +0.000 N 
ATOM      2  C   UNL     1       2.233   8.417  18.102  0.00  0.00    +0.000 C 
ATOM      3  O   UNL     1       2.719   8.895  17.084  0.00  0.00    +0.000 OA
ATOM      4  H   UNL     1       1.131   8.564  19.828  0.00  0.00    +0.000 HD
ENDROOT
BRANCH   2   5
ATOM      5  C   UNL     1       2.664   7.045  18.528  0.00  0.00    +0.000 A 
ATOM      6  C   UNL     1       3.704   6.382  17.871  0.00  0.00    +0.000 A 
ATOM      7  C   UNL     1       4.069   5.090  18.253  0.00  0.00    +0.000 A 
ATOM      8  C   UNL     1       3.459   4.442  19.311  0.00  0.00    +0.000 A 
ATOM      9  N   UNL     1       3.872   3.204  19.616  0.00  0.00    +0.000 NA
ATOM     10  C   UNL     1       3.309   2.595  20.680  0.00  0.00    +0.000 A 
ATOM     11  C   UNL     1       2.335   3.176  21.469  0.00  0.00    +0.000 A 
ATOM     12  C   UNL     1       1.893   4.454  21.131  0.00  0.00    +0.000 A 
ATOM     13  C   UNL     1       2.448   5.120  20.025  0.00  0.00    +0.000 A 
ATOM     14  C   UNL     1       2.048   6.418  19.622  0.00  0.00    +0.000 A 
ENDBRANCH   2   5
BRANCH   1  19
ATOM     15  C   UNL     1      -1.439  11.430  18.284  0.00  0.00    +0.000 A 
ATOM     16  C   UNL     1      -0.792  12.644  18.552  0.00  0.00    +0.000 A 
ATOM     17  C   UNL     1       0.560  12.680  18.893  0.00  0.00    +0.000 A 
ATOM     18  C   UNL     1       1.290  11.497  19.001  0.00  0.00    +0.000 A 
ATOM     19  C   UNL     1       0.664  10.270  18.793  0.00  0.00    +0.000 A 
ATOM     20  C   UNL     1      -0.696  10.246  18.420  0.00  0.00    +0.000 A 
BRANCH  15  26
ATOM     21  C   UNL     1      -2.876  10.830  15.482  0.00  0.00    +0.000 C 
ATOM     22  N   UNL     1      -3.474  11.208  16.735  0.00  0.00    +0.000 N 
ATOM     23  C   UNL     1      -4.804  11.463  16.903  0.00  0.00    +0.000 A 
ATOM     24  N   UNL     1      -5.028  11.830  18.138  0.00  0.00    +0.000 NA
ATOM     25  N   UNL     1      -3.819  11.840  18.787  0.00  0.00    +0.000 NA
ATOM     26  C   UNL     1      -2.868  11.465  17.944  0.00  0.00    +0.000 A 
ENDBRANCH  15  26
ENDBRANCH   1  19
TORSDOF 3
ENDMDL
MODEL 3
REMARK VINA RESULT:      -8.7      5.770      7.700
REMARK  Name = 
REMARK  4 active torsions:
REMARK  status: ('A' for Active; 'I' for Inactive)
REMARK    1  A    between atoms: C_1  and  N_2
REMARK    2  A    between atoms: C_6  and  C_7
REMARK    3  A    between atoms: C_11  and  N_12
REMARK    4  A    between atoms: C_13  and  C_15
REMARK                            x       y       z     vdW  Elec       q    Type
REMARK                         _______ _______ _______ _____ _____    ______ ____
ROOT
ATOM      1  N   UNL     1       7.123   7.605  17.134  0.00  0.00    +0.000 N 
ATOM      2  C   UNL     1       8.019   7.893  18.158  0.00  0.00    +0.000 C 
ATOM      3  O   UNL     1       8.516   7.095  18.942  0.00  0.00    +0.000 OA
ATOM      4  H   UNL     1       6.929   8.347  16.477  0.00  0.00    +0.000 HD
ENDROOT
BRANCH   2   5
ATOM      5  C   UNL     1       8.405   9.339  18.263  0.00  0.00    +0.000 A 
ATOM      6  C   UNL     1       7.833  10.298  17.421  0.00  0.00    +0.000 A 
ATOM      7  C   UNL     1       8.230  11.633  17.503  0.00  0.00    +0.000 A 
ATOM      8  C   UNL     1       9.153  12.064  18.437  0.00  0.00    +0.000 A 
ATOM      9  N   UNL     1       9.476  13.365  18.452  0.00  0.00    +0.000 NA
ATOM     10  C   UNL     1      10.339  13.790  19.398  0.00  0.00    +0.000 A 
ATOM     11  C   UNL     1      10.906  12.961  20.347  0.00  0.00    +0.000 A 
ATOM     12  C   UNL     1      10.585  11.606  20.310  0.00  0.00    +0.000 A 
ATOM     13  C   UNL     1       9.695  11.121  19.336  0.00  0.00    +0.000 A 
ATOM     14  C   UNL     1       9.324   9.757  19.236  0.00  0.00    +0.000 A 
ENDBRANCH   2   5
BRANCH   1  19
ATOM     15  C   UNL     1       4.693   4.802  17.314  0.00  0.00    +0.000 A 
ATOM     16  C   UNL     1       5.135   4.007  16.248  0.00  0.00    +0.000 A 
ATOM     17  C   UNL     1       6.264   4.358  15.506  0.00  0.00    +0.000 A 
ATOM     18  C   UNL     1       6.960   5.530  15.799  0.00  0.00    +0.000 A 
ATOM     19  C   UNL     1       6.516   6.369  16.818  0.00  0.00    +0.000 A 
ATOM     20  C   UNL     1       5.392   5.990  17.581  0.00  0.00    +0.000 A 
BRANCH  15  26
ATOM     21  C   UNL     1       4.406   2.700  19.718  0.00  0.00    +0.000 C 
ATOM     22  N   UNL     1       3.378   3.472  19.073  0.00  0.00    +0.000 N 
ATOM     23  C   UNL     1       2.046   3.355  19.347  0.00  0.00    +0.000 A 
ATOM     24  N   UNL     1       1.365   4.150  18.563  0.00  0.00    +0.000 NA
ATOM     25  N   UNL     1       2.263   4.783  17.743  0.00  0.00    +0.000 NA
ATOM     26  C   UNL     1       3.489   4.379  18.043  0.00  0.00    +0.000 A 
ENDBRANCH  15  26
ENDBRANCH   1  19
TORSDOF 3
ENDMDL
MODEL 4
REMARK VINA RESULT:      -8.6      3.333      9.404
REMARK  Name = 
REMARK  4 active torsions:
REMARK  status: ('A' for Active; 'I' for Inactive)
REMARK    1  A    between atoms: C_1  and  N_2
REMARK    2  A    between atoms: C_6  and  C_7
REMARK    3  A    between atoms: C_11  and  N_12
REMARK    4  A    between atoms: C_13  and  C_15
REMARK                            x       y       z     vdW  Elec       q    Type
REMARK                         _______ _______ _______ _____ _____    ______ ____
ROOT
ATOM      1  N   UNL     1       1.481   8.949  17.977  0.00  0.00    +0.000 N 
ATOM      2  C   UNL     1       1.979   8.026  18.891  0.00  0.00    +0.000 C 
ATOM      3  O   UNL     1       1.843   8.053  20.107  0.00  0.00    +0.000 OA
ATOM      4  H   UNL     1       1.544   8.702  17.000  0.00  0.00    +0.000 HD
ENDROOT
BRANCH   2   5
ATOM      5  C   UNL     1       2.737   6.886  18.277  0.00  0.00    +0.000 A 
ATOM      6  C   UNL     1       2.333   5.563  18.480  0.00  0.00    +0.000 A 
ATOM      7  C   UNL     1       3.069   4.510  17.936  0.00  0.00    +0.000 A 
ATOM      8  C   UNL     1       4.182   4.730  17.147  0.00  0.00    +0.000 A 
ATOM      9  N   UNL     1       4.831   3.663  16.659  0.00  0.00    +0.000 NA
ATOM     10  C   UNL     1       5.886   3.882  15.848  0.00  0.00    +0.000 A 
ATOM     11  C   UNL     1       6.333   5.141  15.494  0.00  0.00    +0.000 A 
ATOM     12  C   UNL     1       5.669   6.246  16.025  0.00  0.00    +0.000 A 
ATOM     13  C   UNL     1       4.569   6.060  16.880  0.00  0.00    +0.000 A 
ATOM     14  C   UNL     1       3.848   7.134  17.457  0.00  0.00    +0.000 A 
ENDBRANCH   2   5
BRANCH   1  19
ATOM     15  C   UNL     1      -1.359  11.333  18.184  0.00  0.00    +0.000 A 
ATOM     16  C   UNL     1      -0.731  12.433  18.784  0.00  0.00    +0.000 A 
ATOM     17  C   UNL     1       0.635  12.417  19.068  0.00  0.00    +0.000 A 
ATOM     18  C   UNL     1       1.399  11.286  18.782  0.00  0.00    +0.000 A 
ATOM     19  C   UNL     1       0.795  10.157  18.234  0.00  0.00    +0.000 A 
ATOM     20  C   UNL     1      -0.581  10.194  17.924  0.00  0.00    +0.000 A 
BRANCH  15  26
ATOM     21  C   UNL     1      -2.965  10.861  15.450  0.00  0.00    +0.000 C 
ATOM     22  N   UNL     1      -3.482  11.212  16.746  0.00  0.00    +0.000 N 
ATOM     23  C   UNL     1      -4.793  11.493  16.997  0.00  0.00    +0.000 A 
ATOM     24  N   UNL     1      -4.939  11.826  18.253  0.00  0.00    +0.000 NA
ATOM     25  N   UNL     1      -3.696  11.786  18.833  0.00  0.00    +0.000 NA
ATOM     26  C   UNL     1      -2.804  11.414  17.926  0.00  0.00    +0.000 A 
ENDBRANCH  15  26
ENDBRANCH   1  19
TORSDOF 3
ENDMDL
MODEL 5
REMARK VINA RESULT:      -8.5      5.553      7.591
REMARK  Name = 
REMARK  4 active torsions:
REMARK  status: ('A' for Active; 'I' for Inactive)
REMARK    1  A    between atoms: C_1  and  N_2
REMARK    2  A    between atoms: C_6  and  C_7
REMARK    3  A    between atoms: C_11  and  N_12
REMARK    4  A    between atoms: C_13  and  C_15
REMARK                            x       y       z     vdW  Elec       q    Type
REMARK                         _______ _______ _______ _____ _____    ______ ____
ROOT
ATOM      1  N   UNL     1       7.177   7.588  17.131  0.00  0.00    +0.000 N 
ATOM      2  C   UNL     1       8.055   7.891  18.166  0.00  0.00    +0.000 C 
ATOM      3  O   UNL     1       8.551   7.101  18.960  0.00  0.00    +0.000 OA
ATOM      4  H   UNL     1       6.984   8.325  16.468  0.00  0.00    +0.000 HD
ENDROOT
BRANCH   2   5
ATOM      5  C   UNL     1       8.421   9.342  18.271  0.00  0.00    +0.000 A 
ATOM      6  C   UNL     1       7.843  10.292  17.425  0.00  0.00    +0.000 A 
ATOM      7  C   UNL     1       8.221  11.632  17.507  0.00  0.00    +0.000 A 
ATOM      8  C   UNL     1       9.133  12.077  18.446  0.00  0.00    +0.000 A 
ATOM      9  N   UNL     1       9.439  13.381  18.462  0.00  0.00    +0.000 NA
ATOM     10  C   UNL     1      10.290  13.819  19.412  0.00  0.00    +0.000 A 
ATOM     11  C   UNL     1      10.861  13.000  20.367  0.00  0.00    +0.000 A 
ATOM     12  C   UNL     1      10.558  11.640  20.329  0.00  0.00    +0.000 A 
ATOM     13  C   UNL     1       9.681  11.142  19.350  0.00  0.00    +0.000 A 
ATOM     14  C   UNL     1       9.328   9.773  19.250  0.00  0.00    +0.000 A 
ENDBRANCH   2   5
BRANCH   1  19
ATOM     15  C   UNL     1       5.164   4.499  17.579  0.00  0.00    +0.000 A 
ATOM     16  C   UNL     1       5.272   3.931  16.302  0.00  0.00    +0.000 A 
ATOM     17  C   UNL     1       6.053   4.529  15.311  0.00  0.00    +0.000 A 
ATOM     18  C   UNL     1       6.720   5.726  15.569  0.00  0.00    +0.000 A 
ATOM     19  C   UNL     1       6.591   6.343  16.811  0.00  0.00    +0.000 A 
ATOM     20  C   UNL     1       5.824   5.716  17.815  0.00  0.00    +0.000 A 
BRANCH  15  26
ATOM     21  C   UNL     1       1.982   4.617  17.944  0.00  0.00    +0.000 C 
ATOM     22  N   UNL     1       2.947   3.884  18.719  0.00  0.00    +0.000 N 
ATOM     23  C   UNL     1       2.644   3.159  19.834  0.00  0.00    +0.000 A 
ATOM     24  N   UNL     1       3.739   2.654  20.341  0.00  0.00    +0.000 NA
ATOM     25  N   UNL     1       4.783   3.075  19.558  0.00  0.00    +0.000 NA
ATOM     26  C   UNL     1       4.314   3.823  18.570  0.00  0.00    +0.000 A 
ENDBRANCH  15  26
ENDBRANCH   1  19
TORSDOF 3
ENDMDL
MODEL 6
REMARK VINA RESULT:      -8.5      3.378      9.221
REMARK  Name = 
REMARK  4 active torsions:
REMARK  status: ('A' for Active; 'I' for Inactive)
REMARK    1  A    between atoms: C_1  and  N_2
REMARK    2  A    between atoms: C_6  and  C_7
REMARK    3  A    between atoms: C_11  and  N_12
REMARK    4  A    between atoms: C_13  and  C_15
REMARK                            x       y       z     vdW  Elec       q    Type
REMARK                         _______ _______ _______ _____ _____    ______ ____
ROOT
ATOM      1  N   UNL     1       1.093   8.918  19.016  0.00  0.00    +0.000 N 
ATOM      2  C   UNL     1       2.027   8.247  18.234  0.00  0.00    +0.000 C 
ATOM      3  O   UNL     1       2.592   8.679  17.237  0.00  0.00    +0.000 OA
ATOM      4  H   UNL     1       0.839   8.486  19.892  0.00  0.00    +0.000 HD
ENDROOT
BRANCH   2   5
ATOM      5  C   UNL     1       2.362   6.864  18.709  0.00  0.00    +0.000 A 
ATOM      6  C   UNL     1       2.299   6.536  20.066  0.00  0.00    +0.000 A 
ATOM      7  C   UNL     1       2.651   5.257  20.498  0.00  0.00    +0.000 A 
ATOM      8  C   UNL     1       3.024   4.264  19.612  0.00  0.00    +0.000 A 
ATOM      9  N   UNL     1       3.343   3.061  20.108  0.00  0.00    +0.000 NA
ATOM     10  C   UNL     1       3.658   2.081  19.237  0.00  0.00    +0.000 A 
ATOM     11  C   UNL     1       3.669   2.249  17.865  0.00  0.00    +0.000 A 
ATOM     12  C   UNL     1       3.361   3.509  17.357  0.00  0.00    +0.000 A 
ATOM     13  C   UNL     1       3.035   4.560  18.232  0.00  0.00    +0.000 A 
ATOM     14  C   UNL     1       2.712   5.866  17.788  0.00  0.00    +0.000 A 
ENDBRANCH   2   5
BRANCH   1  19
ATOM     15  C   UNL     1      -1.518  11.449  18.262  0.00  0.00    +0.000 A 
ATOM     16  C   UNL     1      -0.794  12.634  18.453  0.00  0.00    +0.000 A 
ATOM     17  C   UNL     1       0.564  12.605  18.771  0.00  0.00    +0.000 A 
ATOM     18  C   UNL     1       1.222  11.386  18.933  0.00  0.00    +0.000 A 
ATOM     19  C   UNL     1       0.519  10.191  18.802  0.00  0.00    +0.000 A 
ATOM     20  C   UNL     1      -0.847  10.231  18.452  0.00  0.00    +0.000 A 
BRANCH  15  26
ATOM     21  C   UNL     1      -3.022  10.929  15.479  0.00  0.00    +0.000 C 
ATOM     22  N   UNL     1      -3.584  11.331  16.741  0.00  0.00    +0.000 N 
ATOM     23  C   UNL     1      -4.897  11.649  16.929  0.00  0.00    +0.000 A 
ATOM     24  N   UNL     1      -5.086  12.023  18.168  0.00  0.00    +0.000 NA
ATOM     25  N   UNL     1      -3.869  11.973  18.799  0.00  0.00    +0.000 NA
ATOM     26  C   UNL     1      -2.949  11.554  17.942  0.00  0.00    +0.000 A 
ENDBRANCH  15  26
ENDBRANCH   1  19
TORSDOF 3
ENDMDL
MODEL 7
REMARK VINA RESULT:      -8.4      3.334      9.102
REMARK  Name = 
REMARK  4 active torsions:
REMARK  status: ('A' for Active; 'I' for Inactive)
REMARK    1  A    between atoms: C_1  and  N_2
REMARK    2  A    between atoms: C_6  and  C_7
REMARK    3  A    between atoms: C_11  and  N_12
REMARK    4  A    between atoms: C_13  and  C_15
REMARK                            x       y       z     vdW  Elec       q    Type
REMARK                         _______ _______ _______ _____ _____    ______ ____
ROOT
ATOM      1  N   UNL     1       1.304   9.005  19.007  0.00  0.00    +0.000 N 
ATOM      2  C   UNL     1       2.217   8.408  18.146  0.00  0.00    +0.000 C 
ATOM      3  O   UNL     1       2.687   8.893  17.124  0.00  0.00    +0.000 OA
ATOM      4  H   UNL     1       1.136   8.540  19.887  0.00  0.00    +0.000 HD
ENDROOT
BRANCH   2   5
ATOM      5  C   UNL     1       2.663   7.036  18.561  0.00  0.00    +0.000 A 
ATOM      6  C   UNL     1       3.700   6.384  17.888  0.00  0.00    +0.000 A 
ATOM      7  C   UNL     1       4.078   5.093  18.259  0.00  0.00    +0.000 A 
ATOM      8  C   UNL     1       3.485   4.436  19.321  0.00  0.00    +0.000 A 
ATOM      9  N   UNL     1       3.909   3.199  19.615  0.00  0.00    +0.000 NA
ATOM     10  C   UNL     1       3.364   2.581  20.682  0.00  0.00    +0.000 A 
ATOM     11  C   UNL     1       2.395   3.151  21.486  0.00  0.00    +0.000 A 
ATOM     12  C   UNL     1       1.940   4.428  21.159  0.00  0.00    +0.000 A 
ATOM     13  C   UNL     1       2.478   5.103  20.050  0.00  0.00    +0.000 A 
ATOM     14  C   UNL     1       2.064   6.400  19.658  0.00  0.00    +0.000 A 
ENDBRANCH   2   5
BRANCH   1  19
ATOM     15  C   UNL     1      -1.392  11.409  18.139  0.00  0.00    +0.000 A 
ATOM     16  C   UNL     1      -0.837  12.604  18.615  0.00  0.00    +0.000 A 
ATOM     17  C   UNL     1       0.444  12.634  19.167  0.00  0.00    +0.000 A 
ATOM     18  C   UNL     1       1.188  11.460  19.281  0.00  0.00    +0.000 A 
ATOM     19  C   UNL     1       0.645  10.247  18.865  0.00  0.00    +0.000 A 
ATOM     20  C   UNL     1      -0.639  10.232  18.282  0.00  0.00    +0.000 A 
BRANCH  15  26
ATOM     21  C   UNL     1      -4.144  12.239  19.556  0.00  0.00    +0.000 C 
ATOM     22  N   UNL     1      -3.928  11.804  18.202  0.00  0.00    +0.000 N 
ATOM     23  C   UNL     1      -4.926  11.588  17.298  0.00  0.00    +0.000 A 
ATOM     24  N   UNL     1      -4.416  11.150  16.176  0.00  0.00    +0.000 NA
ATOM     25  N   UNL     1      -3.060  11.054  16.355  0.00  0.00    +0.000 NA
ATOM     26  C   UNL     1      -2.752  11.448  17.582  0.00  0.00    +0.000 A 
ENDBRANCH  15  26
ENDBRANCH   1  19
TORSDOF 3
ENDMDL
MODEL 8
REMARK VINA RESULT:      -8.4      1.032      1.675
REMARK  Name = 
REMARK  4 active torsions:
REMARK  status: ('A' for Active; 'I' for Inactive)
REMARK    1  A    between atoms: C_1  and  N_2
REMARK    2  A    between atoms: C_6  and  C_7
REMARK    3  A    between atoms: C_11  and  N_12
REMARK    4  A    between atoms: C_13  and  C_15
REMARK                            x       y       z     vdW  Elec       q    Type
REMARK                         _______ _______ _______ _____ _____    ______ ____
ROOT
ATOM      1  N   UNL     1       2.125   7.097  19.996  0.00  0.00    +0.000 N 
ATOM      2  C   UNL     1       1.875   8.075  19.040  0.00  0.00    +0.000 C 
ATOM      3  O   UNL     1       2.103   8.001  17.839  0.00  0.00    +0.000 OA
ATOM      4  H   UNL     1       1.735   7.249  20.915  0.00  0.00    +0.000 HD
ENDROOT
BRANCH   2   5
ATOM      5  C   UNL     1       1.241   9.325  19.575  0.00  0.00    +0.000 A 
ATOM      6  C   UNL     1       1.240  10.507  18.828  0.00  0.00    +0.000 A 
ATOM      7  C   UNL     1       0.682  11.673  19.353  0.00  0.00    +0.000 A 
ATOM      8  C   UNL     1       0.074  11.695  20.595  0.00  0.00    +0.000 A 
ATOM      9  N   UNL     1      -0.442  12.855  21.024  0.00  0.00    +0.000 NA
ATOM     10  C   UNL     1      -1.079  12.861  22.214  0.00  0.00    +0.000 A 
ATOM     11  C   UNL     1      -1.228  11.741  23.009  0.00  0.00    +0.000 A 
ATOM     12  C   UNL     1      -0.667  10.543  22.568  0.00  0.00    +0.000 A 
ATOM     13  C   UNL     1       0.011  10.496  21.337  0.00  0.00    +0.000 A 
ATOM     14  C   UNL     1       0.607   9.317  20.826  0.00  0.00    +0.000 A 
ENDBRANCH   2   5
BRANCH   1  19
ATOM     15  C   UNL     1       4.669   4.646  18.850  0.00  0.00    +0.000 A 
ATOM     16  C   UNL     1       4.223   3.486  19.497  0.00  0.00    +0.000 A 
ATOM     17  C   UNL     1       3.055   3.492  20.261  0.00  0.00    +0.000 A 
ATOM     18  C   UNL     1       2.323   4.669  20.418  0.00  0.00    +0.000 A 
ATOM     19  C   UNL     1       2.769   5.850  19.831  0.00  0.00    +0.000 A 
ATOM     20  C   UNL     1       3.934   5.828  19.037  0.00  0.00    +0.000 A 
BRANCH  15  26
ATOM     21  C   UNL     1       5.080   4.587  15.671  0.00  0.00    +0.000 C 
ATOM     22  N   UNL     1       6.079   4.543  16.706  0.00  0.00    +0.000 N 
ATOM     23  C   UNL     1       7.413   4.377  16.477  0.00  0.00    +0.000 A 
ATOM     24  N   UNL     1       8.052   4.328  17.617  0.00  0.00    +0.000 NA
ATOM     25  N   UNL     1       7.117   4.441  18.614  0.00  0.00    +0.000 NA
ATOM     26  C   UNL     1       5.915   4.572  18.073  0.00  0.00    +0.000 A 
ENDBRANCH  15  26
ENDBRANCH   1  19
TORSDOF 3
ENDMDL
MODEL 9
REMARK VINA RESULT:      -8.3      0.710      1.252
REMARK  Name = 
REMARK  4 active torsions:
REMARK  status: ('A' for Active; 'I' for Inactive)
REMARK    1  A    between atoms: C_1  and  N_2
REMARK    2  A    between atoms: C_6  and  C_7
REMARK    3  A    between atoms: C_11  and  N_12
REMARK    4  A    between atoms: C_13  and  C_15
REMARK                            x       y       z     vdW  Elec       q    Type
REMARK                         _______ _______ _______ _____ _____    ______ ____
ROOT
ATOM      1  N   UNL     1       1.863   6.385  20.819  0.00  0.00    +0.000 N 
ATOM      2  C   UNL     1       1.757   7.596  20.145  0.00  0.00    +0.000 C 
ATOM      3  O   UNL     1       2.176   7.849  19.022  0.00  0.00    +0.000 OA
ATOM      4  H   UNL     1       1.329   6.289  21.670  0.00  0.00    +0.000 HD
ENDROOT
BRANCH   2   5
ATOM      5  C   UNL     1       1.027   8.669  20.898  0.00  0.00    +0.000 A 
ATOM      6  C   UNL     1       1.034   8.696  22.296  0.00  0.00    +0.000 A 
ATOM      7  C   UNL     1       0.319   9.676  22.985  0.00  0.00    +0.000 A 
ATOM      8  C   UNL     1      -0.374  10.674  22.325  0.00  0.00    +0.000 A 
ATOM      9  N   UNL     1      -1.031  11.580  23.061  0.00  0.00    +0.000 NA
ATOM     10  C   UNL     1      -1.663  12.581  22.415  0.00  0.00    +0.000 A 
ATOM     11  C   UNL     1      -1.671  12.721  21.040  0.00  0.00    +0.000 A 
ATOM     12  C   UNL     1      -1.007  11.761  20.279  0.00  0.00    +0.000 A 
ATOM     13  C   UNL     1      -0.341  10.698  20.914  0.00  0.00    +0.000 A 
ATOM     14  C   UNL     1       0.353   9.686  20.207  0.00  0.00    +0.000 A 
ENDBRANCH   2   5
BRANCH   1  19
ATOM     15  C   UNL     1       4.330   4.260  19.031  0.00  0.00    +0.000 A 
ATOM     16  C   UNL     1       4.058   3.009  19.603  0.00  0.00    +0.000 A 
ATOM     17  C   UNL     1       3.027   2.850  20.530  0.00  0.00    +0.000 A 
ATOM     18  C   UNL     1       2.263   3.947  20.927  0.00  0.00    +0.000 A 
ATOM     19  C   UNL     1       2.543   5.213  20.418  0.00  0.00    +0.000 A 
ATOM     20  C   UNL     1       3.567   5.358  19.460  0.00  0.00    +0.000 A 
BRANCH  15  26
ATOM     21  C   UNL     1       7.240   5.549  19.414  0.00  0.00    +0.000 C 
ATOM     22  N   UNL     1       6.685   4.917  18.247  0.00  0.00    +0.000 N 
ATOM     23  C   UNL     1       7.318   4.845  17.041  0.00  0.00    +0.000 A 
ATOM     24  N   UNL     1       6.538   4.258  16.170  0.00  0.00    +0.000 NA
ATOM     25  N   UNL     1       5.362   3.962  16.810  0.00  0.00    +0.000 NA
ATOM     26  C   UNL     1       5.439   4.358  18.072  0.00  0.00    +0.000 A 
ENDBRANCH  15  26
ENDBRANCH   1  19
TORSDOF 3
ENDMDL
