MODEL 1
REMARK VINA RESULT:      -9.2      0.000      0.000
REMARK  Name = 
REMARK  3 active torsions:
REMARK  status: ('A' for Active; 'I' for Inactive)
REMARK    1  A    between atoms: C_2  and  C_23
REMARK    2  A    between atoms: N_3  and  C_4
REMARK    3  A    between atoms: C_8  and  C_9
REMARK                            x       y       z     vdW  Elec       q    Type
REMARK                         _______ _______ _______ _____ _____    ______ ____
ROOT
ATOM      1  C   UNL     1       4.051   4.813  17.603  0.00  0.00    +0.000 A 
ATOM      2  C   UNL     1       4.010   3.772  18.533  0.00  0.00    +0.000 A 
ATOM      3  C   UNL     1       3.384   3.938  19.772  0.00  0.00    +0.000 A 
ATOM      4  C   UNL     1       2.788   5.151  20.106  0.00  0.00    +0.000 A 
ATOM      5  C   UNL     1       2.849   6.223  19.209  0.00  0.00    +0.000 A 
ATOM      6  C   UNL     1       3.492   6.050  17.963  0.00  0.00    +0.000 A 
ENDROOT
BRANCH   5   7
ATOM      7  C   UNL     1       2.166   7.520  19.517  0.00  0.00    +0.000 C 
ATOM      8  O   UNL     1       2.212   8.391  18.644  0.00  0.00    +0.000 OA
ATOM      9  N   UNL     1       1.591   7.639  20.765  0.00  0.00    +0.000 N 
ATOM     10  C   UNL     1       0.873   8.757  21.227  0.00  0.00    +0.000 A 
ATOM     11  C   UNL     1       0.555   8.792  22.576  0.00  0.00    +0.000 A 
ATOM     12  C   UNL     1      -0.098   9.913  23.087  0.00  0.00    +0.000 A 
ATOM     13  C   UNL     1      -0.679  10.804  22.190  0.00  0.00    +0.000 A 
ATOM     14  C   UNL     1      -1.687  11.707  22.592  0.00  0.00    +0.000 A 
ATOM     15  C   UNL     1      -2.294  12.535  21.649  0.00  0.00    +0.000 A 
ATOM     16  C   UNL     1      -1.816  12.537  20.345  0.00  0.00    +0.000 A 
ATOM     17  C   UNL     1      -0.803  11.651  19.963  0.00  0.00    +0.000 A 
ATOM     18  C   UNL     1      -0.285  10.721  20.849  0.00  0.00    +0.000 A 
ATOM     19  N   UNL     1       0.530   9.749  20.392  0.00  0.00    +0.000 NA
ATOM     20  H   UNL     1       1.763   6.910  21.444  0.00  0.00    +0.000 HD
ENDBRANCH   5   7
BRANCH   1  23
ATOM     21  O   UNL     1       6.889   4.914  16.802  0.00  0.00    +0.000 OA
ATOM     22  C   UNL     1       5.967   4.729  16.003  0.00  0.00    +0.000 C 
ATOM     23  N   UNL     1       4.621   4.655  16.308  0.00  0.00    +0.000 N 
ATOM     24  H   UNL     1       3.993   4.306  15.589  0.00  0.00    +0.000 HD
BRANCH  22  25
ATOM     25  C   UNL     1       6.336   4.491  14.581  0.00  0.00    +0.000 A 
ATOM     26  C   UNL     1       5.637   3.610  13.751  0.00  0.00    +0.000 A 
ATOM     27  C   UNL     1       6.049   3.457  12.426  0.00  0.00    +0.000 A 
ATOM     28  C   UNL     1       7.142   4.185  11.978  0.00  0.00    +0.000 A 
ATOM     29  N   UNL     1       7.821   5.059  12.751  0.00  0.00    +0.000 NA
ATOM     30  C   UNL     1       7.395   5.204  14.029  0.00  0.00    +0.000 A 
ENDBRANCH  22  25
ENDBRANCH   1  23
TORSDOF 3
ENDMDL
MODEL 2
REMARK VINA RESULT:      -8.9      1.210      1.874
REMARK  Name = 
REMARK  3 active torsions:
REMARK  status: ('A' for Active; 'I' for Inactive)
REMARK    1  A    between atoms: C_2  and  C_23
REMARK    2  A    between atoms: N_3  and  C_4
REMARK    3  A    between atoms: C_8  and  C_9
REMARK                            x       y       z     vdW  Elec       q    Type
REMARK                         _______ _______ _______ _____ _____    ______ ____
ROOT
ATOM      1  C   UNL     1       4.366   4.112  17.654  0.00  0.00    +0.000 A 
ATOM      2  C   UNL     1       4.531   2.980  18.453  0.00  0.00    +0.000 A 
ATOM      3  C   UNL     1       3.927   2.891  19.709  0.00  0.00    +0.000 A 
ATOM      4  C   UNL     1       3.145   3.937  20.194  0.00  0.00    +0.000 A 
ATOM      5  C   UNL     1       2.995   5.100  19.431  0.00  0.00    +0.000 A 
ATOM      6  C   UNL     1       3.617   5.185  18.165  0.00  0.00    +0.000 A 
ENDROOT
BRANCH   5   7
ATOM      7  C   UNL     1       2.113   6.216  19.900  0.00  0.00    +0.000 C 
ATOM      8  O   UNL     1       1.337   5.958  20.823  0.00  0.00    +0.000 OA
ATOM      9  N   UNL     1       2.216   7.414  19.224  0.00  0.00    +0.000 N 
ATOM     10  C   UNL     1       1.505   8.588  19.536  0.00  0.00    +0.000 A 
ATOM     11  C   UNL     1       1.569   9.628  18.623  0.00  0.00    +0.000 A 
ATOM     12  C   UNL     1       0.827  10.784  18.863  0.00  0.00    +0.000 A 
ATOM     13  C   UNL     1       0.304  10.980  20.137  0.00  0.00    +0.000 A 
ATOM     14  C   UNL     1      -0.084  12.260  20.589  0.00  0.00    +0.000 A 
ATOM     15  C   UNL     1      -0.538  12.427  21.896  0.00  0.00    +0.000 A 
ATOM     16  C   UNL     1      -0.706  11.307  22.701  0.00  0.00    +0.000 A 
ATOM     17  C   UNL     1      -0.335  10.041  22.235  0.00  0.00    +0.000 A 
ATOM     18  C   UNL     1       0.250   9.872  20.991  0.00  0.00    +0.000 A 
ATOM     19  N   UNL     1       0.787   8.679  20.665  0.00  0.00    +0.000 NA
ATOM     20  H   UNL     1       2.776   7.445  18.384  0.00  0.00    +0.000 HD
ENDBRANCH   5   7
BRANCH   1  23
ATOM     21  O   UNL     1       7.186   4.407  16.836  0.00  0.00    +0.000 OA
ATOM     22  C   UNL     1       6.250   4.357  16.033  0.00  0.00    +0.000 C 
ATOM     23  N   UNL     1       4.912   4.206  16.342  0.00  0.00    +0.000 N 
ATOM     24  H   UNL     1       4.274   3.985  15.581  0.00  0.00    +0.000 HD
BRANCH  22  25
ATOM     25  C   UNL     1       6.594   4.392  14.585  0.00  0.00    +0.000 A 
ATOM     26  C   UNL     1       5.980   3.567  13.638  0.00  0.00    +0.000 A 
ATOM     27  C   UNL     1       6.360   3.677  12.299  0.00  0.00    +0.000 A 
ATOM     28  C   UNL     1       7.337   4.600  11.955  0.00  0.00    +0.000 A 
ATOM     29  N   UNL     1       7.930   5.422  12.845  0.00  0.00    +0.000 NA
ATOM     30  C   UNL     1       7.535   5.312  14.137  0.00  0.00    +0.000 A 
ENDBRANCH  22  25
ENDBRANCH   1  23
TORSDOF 3
ENDMDL
MODEL 3
REMARK VINA RESULT:      -8.8      1.080      1.318
REMARK  Name = 
REMARK  3 active torsions:
REMARK  status: ('A' for Active; 'I' for Inactive)
REMARK    1  A    between atoms: C_2  and  C_23
REMARK    2  A    between atoms: N_3  and  C_4
REMARK    3  A    between atoms: C_8  and  C_9
REMARK                            x       y       z     vdW  Elec       q    Type
REMARK                         _______ _______ _______ _____ _____    ______ ____
ROOT
ATOM      1  C   UNL     1       3.373   5.466  18.471  0.00  0.00    +0.000 A 
ATOM      2  C   UNL     1       3.137   4.425  19.372  0.00  0.00    +0.000 A 
ATOM      3  C   UNL     1       2.346   4.621  20.507  0.00  0.00    +0.000 A 
ATOM      4  C   UNL     1       1.775   5.865  20.764  0.00  0.00    +0.000 A 
ATOM      5  C   UNL     1       2.026   6.935  19.900  0.00  0.00    +0.000 A 
ATOM      6  C   UNL     1       2.836   6.730  18.759  0.00  0.00    +0.000 A 
ENDROOT
BRANCH   5   7
ATOM      7  C   UNL     1       1.378   8.267  20.119  0.00  0.00    +0.000 C 
ATOM      8  O   UNL     1       1.584   9.131  19.262  0.00  0.00    +0.000 OA
ATOM      9  N   UNL     1       0.652   8.421  21.281  0.00  0.00    +0.000 N 
ATOM     10  C   UNL     1      -0.061   9.577  21.649  0.00  0.00    +0.000 A 
ATOM     11  C   UNL     1      -0.552   9.633  22.944  0.00  0.00    +0.000 A 
ATOM     12  C   UNL     1      -1.207  10.789  23.368  0.00  0.00    +0.000 A 
ATOM     13  C   UNL     1      -1.616  11.706  22.406  0.00  0.00    +0.000 A 
ATOM     14  C   UNL     1      -2.620  12.662  22.674  0.00  0.00    +0.000 A 
ATOM     15  C   UNL     1      -3.054  13.518  21.663  0.00  0.00    +0.000 A 
ATOM     16  C   UNL     1      -2.408  13.490  20.433  0.00  0.00    +0.000 A 
ATOM     17  C   UNL     1      -1.402  12.550  20.185  0.00  0.00    +0.000 A 
ATOM     18  C   UNL     1      -1.054  11.597  21.129  0.00  0.00    +0.000 A 
ATOM     19  N   UNL     1      -0.239  10.582  20.779  0.00  0.00    +0.000 NA
ATOM     20  H   UNL     1       0.694   7.687  21.975  0.00  0.00    +0.000 HD
ENDBRANCH   5   7
BRANCH   1  23
ATOM     21  O   UNL     1       6.207   4.709  18.148  0.00  0.00    +0.000 OA
ATOM     22  C   UNL     1       5.455   4.937  17.197  0.00  0.00    +0.000 C 
ATOM     23  N   UNL     1       4.119   5.281  17.272  0.00  0.00    +0.000 N 
ATOM     24  H   UNL     1       3.574   5.249  16.414  0.00  0.00    +0.000 HD
BRANCH  22  25
ATOM     25  C   UNL     1       6.015   4.760  15.829  0.00  0.00    +0.000 A 
ATOM     26  C   UNL     1       5.397   3.976  14.851  0.00  0.00    +0.000 A 
ATOM     27  C   UNL     1       5.991   3.875  13.591  0.00  0.00    +0.000 A 
ATOM     28  C   UNL     1       7.177   4.555  13.354  0.00  0.00    +0.000 A 
ATOM     29  N   UNL     1       7.782   5.336  14.274  0.00  0.00    +0.000 NA
ATOM     30  C   UNL     1       7.182   5.433  15.484  0.00  0.00    +0.000 A 
ENDBRANCH  22  25
ENDBRANCH   1  23
TORSDOF 3
ENDMDL
MODEL 4
REMARK VINA RESULT:      -8.7      1.630      9.695
REMARK  Name = 
REMARK  3 active torsions:
REMARK  status: ('A' for Active; 'I' for Inactive)
REMARK    1  A    between atoms: C_2  and  C_23
REMARK    2  A    between atoms: N_3  and  C_4
REMARK    3  A    between atoms: C_8  and  C_9
REMARK                            x       y       z     vdW  Elec       q    Type
REMARK                         _______ _______ _______ _____ _____    ______ ____
ROOT
ATOM      1  C   UNL     1       2.045   5.055  20.777  0.00  0.00    +0.000 A 
ATOM      2  C   UNL     1       1.965   3.974  21.657  0.00  0.00    +0.000 A 
ATOM      3  C   UNL     1       2.550   2.745  21.343  0.00  0.00    +0.000 A 
ATOM      4  C   UNL     1       3.228   2.571  20.139  0.00  0.00    +0.000 A 
ATOM      5  C   UNL     1       3.290   3.626  19.221  0.00  0.00    +0.000 A 
ATOM      6  C   UNL     1       2.687   4.863  19.543  0.00  0.00    +0.000 A 
ENDROOT
BRANCH   5   7
ATOM      7  C   UNL     1       4.062   3.487  17.945  0.00  0.00    +0.000 C 
ATOM      8  O   UNL     1       3.856   2.468  17.281  0.00  0.00    +0.000 OA
ATOM      9  N   UNL     1       4.966   4.487  17.655  0.00  0.00    +0.000 N 
ATOM     10  C   UNL     1       5.754   4.560  16.491  0.00  0.00    +0.000 A 
ATOM     11  C   UNL     1       6.760   5.513  16.466  0.00  0.00    +0.000 A 
ATOM     12  C   UNL     1       7.605   5.573  15.358  0.00  0.00    +0.000 A 
ATOM     13  C   UNL     1       7.225   4.901  14.202  0.00  0.00    +0.000 A 
ATOM     14  C   UNL     1       7.770   5.231  12.941  0.00  0.00    +0.000 A 
ATOM     15  C   UNL     1       7.313   4.582  11.795  0.00  0.00    +0.000 A 
ATOM     16  C   UNL     1       6.405   3.539  11.926  0.00  0.00    +0.000 A 
ATOM     17  C   UNL     1       5.886   3.210  13.184  0.00  0.00    +0.000 A 
ATOM     18  C   UNL     1       6.220   3.935  14.316  0.00  0.00    +0.000 A 
ATOM     19  N   UNL     1       5.541   3.726  15.462  0.00  0.00    +0.000 NA
ATOM     20  H   UNL     1       5.153   5.186  18.361  0.00  0.00    +0.000 HD
ENDBRANCH   5   7
BRANCH   1  23
ATOM     21  O   UNL     1       2.422   7.618  19.363  0.00  0.00    +0.000 OA
ATOM     22  C   UNL     1       1.749   7.504  20.392  0.00  0.00    +0.000 C 
ATOM     23  N   UNL     1       1.518   6.339  21.096  0.00  0.00    +0.000 N 
ATOM     24  H   UNL     1       0.792   6.354  21.808  0.00  0.00    +0.000 HD
BRANCH  22  25
ATOM     25  C   UNL     1       1.059   8.726  20.891  0.00  0.00    +0.000 A 
ATOM     26  C   UNL     1       0.318   9.572  20.061  0.00  0.00    +0.000 A 
ATOM     27  C   UNL     1      -0.303  10.691  20.618  0.00  0.00    +0.000 A 
ATOM     28  C   UNL     1      -0.162  10.926  21.979  0.00  0.00    +0.000 A 
ATOM     29  N   UNL     1       0.529  10.114  22.805  0.00  0.00    +0.000 NA
ATOM     30  C   UNL     1       1.111   9.025  22.247  0.00  0.00    +0.000 A 
ENDBRANCH  22  25
ENDBRANCH   1  23
TORSDOF 3
ENDMDL
MODEL 5
REMARK VINA RESULT:      -8.6      3.934     10.415
REMARK  Name = 
REMARK  3 active torsions:
REMARK  status: ('A' for Active; 'I' for Inactive)
REMARK    1  A    between atoms: C_2  and  C_23
REMARK    2  A    between atoms: N_3  and  C_4
REMARK    3  A    between atoms: C_8  and  C_9
REMARK                            x       y       z     vdW  Elec       q    Type
REMARK                         _______ _______ _______ _____ _____    ______ ____
ROOT
ATOM      1  C   UNL     1      -1.239  12.194  18.929  0.00  0.00    +0.000 A 
ATOM      2  C   UNL     1      -0.349  13.166  18.470  0.00  0.00    +0.000 A 
ATOM      3  C   UNL     1       1.026  12.918  18.424  0.00  0.00    +0.000 A 
ATOM      4  C   UNL     1       1.538  11.692  18.840  0.00  0.00    +0.000 A 
ATOM      5  C   UNL     1       0.672  10.714  19.342  0.00  0.00    +0.000 A 
ATOM      6  C   UNL     1      -0.716  10.976  19.393  0.00  0.00    +0.000 A 
ENDROOT
BRANCH   5   7
ATOM      7  C   UNL     1       1.186   9.366  19.741  0.00  0.00    +0.000 C 
ATOM      8  O   UNL     1       0.975   9.014  20.904  0.00  0.00    +0.000 OA
ATOM      9  N   UNL     1       1.890   8.662  18.786  0.00  0.00    +0.000 N 
ATOM     10  C   UNL     1       2.418   7.368  18.952  0.00  0.00    +0.000 A 
ATOM     11  C   UNL     1       3.279   6.904  17.970  0.00  0.00    +0.000 A 
ATOM     12  C   UNL     1       3.875   5.654  18.129  0.00  0.00    +0.000 A 
ATOM     13  C   UNL     1       3.355   4.794  19.092  0.00  0.00    +0.000 A 
ATOM     14  C   UNL     1       3.597   3.404  19.050  0.00  0.00    +0.000 A 
ATOM     15  C   UNL     1       3.002   2.566  19.992  0.00  0.00    +0.000 A 
ATOM     16  C   UNL     1       2.268   3.129  21.028  0.00  0.00    +0.000 A 
ATOM     17  C   UNL     1       2.051   4.511  21.069  0.00  0.00    +0.000 A 
ATOM     18  C   UNL     1       2.514   5.346  20.065  0.00  0.00    +0.000 A 
ATOM     19  N   UNL     1       2.106   6.630  20.027  0.00  0.00    +0.000 NA
ATOM     20  H   UNL     1       2.129   9.131  17.923  0.00  0.00    +0.000 HD
ENDBRANCH   5   7
BRANCH   1  23
ATOM     21  O   UNL     1      -3.305  10.759  17.386  0.00  0.00    +0.000 OA
ATOM     22  C   UNL     1      -3.561  11.684  18.161  0.00  0.00    +0.000 C 
ATOM     23  N   UNL     1      -2.650  12.390  18.925  0.00  0.00    +0.000 N 
ATOM     24  H   UNL     1      -3.015  12.990  19.660  0.00  0.00    +0.000 HD
BRANCH  22  25
ATOM     25  C   UNL     1      -4.995  12.037  18.351  0.00  0.00    +0.000 A 
ATOM     26  C   UNL     1      -5.842  12.368  17.290  0.00  0.00    +0.000 A 
ATOM     27  C   UNL     1      -7.177  12.676  17.561  0.00  0.00    +0.000 A 
ATOM     28  C   UNL     1      -7.615  12.646  18.877  0.00  0.00    +0.000 A 
ATOM     29  N   UNL     1      -6.824  12.310  19.917  0.00  0.00    +0.000 NA
ATOM     30  C   UNL     1      -5.537  11.998  19.631  0.00  0.00    +0.000 A 
ENDBRANCH  22  25
ENDBRANCH   1  23
TORSDOF 3
ENDMDL
MODEL 6
REMARK VINA RESULT:      -8.4      3.917     10.624
REMARK  Name = 
REMARK  3 active torsions:
REMARK  status: ('A' for Active; 'I' for Inactive)
REMARK    1  A    between atoms: C_2  and  C_23
REMARK    2  A    between atoms: N_3  and  C_4
REMARK    3  A    between atoms: C_8  and  C_9
REMARK                            x       y       z     vdW  Elec       q    Type
REMARK                         _______ _______ _______ _____ _____    ______ ____
ROOT
ATOM      1  C   UNL     1      -1.327  12.080  18.762  0.00  0.00    +0.000 A 
ATOM      2  C   UNL     1      -0.451  13.111  18.417  0.00  0.00    +0.000 A 
ATOM      3  C   UNL     1       0.933  12.933  18.487  0.00  0.00    +0.000 A 
ATOM      4  C   UNL     1       1.469  11.719  18.907  0.00  0.00    +0.000 A 
ATOM      5  C   UNL     1       0.615  10.682  19.297  0.00  0.00    +0.000 A 
ATOM      6  C   UNL     1      -0.784  10.873  19.231  0.00  0.00    +0.000 A 
ENDROOT
BRANCH   5   7
ATOM      7  C   UNL     1       1.162   9.346  19.696  0.00  0.00    +0.000 C 
ATOM      8  O   UNL     1       0.962   8.991  20.861  0.00  0.00    +0.000 OA
ATOM      9  N   UNL     1       1.879   8.658  18.740  0.00  0.00    +0.000 N 
ATOM     10  C   UNL     1       2.437   7.377  18.907  0.00  0.00    +0.000 A 
ATOM     11  C   UNL     1       3.306   6.932  17.923  0.00  0.00    +0.000 A 
ATOM     12  C   UNL     1       3.931   5.695  18.083  0.00  0.00    +0.000 A 
ATOM     13  C   UNL     1       3.435   4.826  19.049  0.00  0.00    +0.000 A 
ATOM     14  C   UNL     1       3.708   3.441  19.008  0.00  0.00    +0.000 A 
ATOM     15  C   UNL     1       3.136   2.591  19.953  0.00  0.00    +0.000 A 
ATOM     16  C   UNL     1       2.391   3.139  20.990  0.00  0.00    +0.000 A 
ATOM     17  C   UNL     1       2.143   4.515  21.030  0.00  0.00    +0.000 A 
ATOM     18  C   UNL     1       2.583   5.359  20.023  0.00  0.00    +0.000 A 
ATOM     19  N   UNL     1       2.145   6.633  19.984  0.00  0.00    +0.000 NA
ATOM     20  H   UNL     1       2.105   9.131  17.876  0.00  0.00    +0.000 HD
ENDBRANCH   5   7
BRANCH   1  23
ATOM     21  O   UNL     1      -3.338  12.564  20.866  0.00  0.00    +0.000 OA
ATOM     22  C   UNL     1      -3.626  12.422  19.675  0.00  0.00    +0.000 C 
ATOM     23  N   UNL     1      -2.740  12.207  18.637  0.00  0.00    +0.000 N 
ATOM     24  H   UNL     1      -3.093  12.302  17.688  0.00  0.00    +0.000 HD
BRANCH  22  25
ATOM     25  C   UNL     1      -5.061  12.561  19.301  0.00  0.00    +0.000 A 
ATOM     26  C   UNL     1      -5.846  13.649  19.691  0.00  0.00    +0.000 A 
ATOM     27  C   UNL     1      -7.181  13.700  19.285  0.00  0.00    +0.000 A 
ATOM     28  C   UNL     1      -7.684  12.665  18.510  0.00  0.00    +0.000 A 
ATOM     29  N   UNL     1      -6.942  11.614  18.101  0.00  0.00    +0.000 NA
ATOM     30  C   UNL     1      -5.645  11.592  18.492  0.00  0.00    +0.000 A 
ENDBRANCH  22  25
ENDBRANCH   1  23
TORSDOF 3
ENDMDL
MODEL 7
REMARK VINA RESULT:      -8.3      7.081     11.347
REMARK  Name = 
REMARK  3 active torsions:
REMARK  status: ('A' for Active; 'I' for Inactive)
REMARK    1  A    between atoms: C_2  and  C_23
REMARK    2  A    between atoms: N_3  and  C_4
REMARK    3  A    between atoms: C_8  and  C_9
REMARK                            x       y       z     vdW  Elec       q    Type
REMARK                         _______ _______ _______ _____ _____    ______ ____
ROOT
ATOM      1  C   UNL     1       9.912  11.857  21.017  0.00  0.00    +0.000 A 
ATOM      2  C   UNL     1      11.056  12.314  20.360  0.00  0.00    +0.000 A 
ATOM      3  C   UNL     1      11.391  11.846  19.087  0.00  0.00    +0.000 A 
ATOM      4  C   UNL     1      10.587  10.908  18.445  0.00  0.00    +0.000 A 
ATOM      5  C   UNL     1       9.457  10.403  19.096  0.00  0.00    +0.000 A 
ATOM      6  C   UNL     1       9.130  10.876  20.388  0.00  0.00    +0.000 A 
ENDROOT
BRANCH   5   7
ATOM      7  C   UNL     1       8.542   9.438  18.407  0.00  0.00    +0.000 C 
ATOM      8  O   UNL     1       7.782   9.907  17.555  0.00  0.00    +0.000 OA
ATOM      9  N   UNL     1       8.598   8.124  18.822  0.00  0.00    +0.000 N 
ATOM     10  C   UNL     1       7.851   7.065  18.275  0.00  0.00    +0.000 A 
ATOM     11  C   UNL     1       7.872   5.857  18.955  0.00  0.00    +0.000 A 
ATOM     12  C   UNL     1       7.093   4.802  18.482  0.00  0.00    +0.000 A 
ATOM     13  C   UNL     1       6.575   4.890  17.195  0.00  0.00    +0.000 A 
ATOM     14  C   UNL     1       6.147   3.744  16.489  0.00  0.00    +0.000 A 
ATOM     15  C   UNL     1       5.699   3.865  15.174  0.00  0.00    +0.000 A 
ATOM     16  C   UNL     1       5.576   5.131  14.617  0.00  0.00    +0.000 A 
ATOM     17  C   UNL     1       5.986   6.261  15.333  0.00  0.00    +0.000 A 
ATOM     18  C   UNL     1       6.566   6.151  16.586  0.00  0.00    +0.000 A 
ATOM     19  N   UNL     1       7.140   7.232  17.151  0.00  0.00    +0.000 NA
ATOM     20  H   UNL     1       9.150   7.902  19.639  0.00  0.00    +0.000 HD
ENDBRANCH   5   7
BRANCH   1  23
ATOM     21  O   UNL     1       8.085  14.094  21.622  0.00  0.00    +0.000 OA
ATOM     22  C   UNL     1       8.653  13.430  22.493  0.00  0.00    +0.000 C 
ATOM     23  N   UNL     1       9.508  12.364  22.285  0.00  0.00    +0.000 N 
ATOM     24  H   UNL     1       9.749  11.789  23.088  0.00  0.00    +0.000 HD
BRANCH  22  25
ATOM     25  C   UNL     1       8.340  13.759  23.911  0.00  0.00    +0.000 A 
ATOM     26  C   UNL     1       8.423  12.821  24.944  0.00  0.00    +0.000 A 
ATOM     27  C   UNL     1       8.119  13.222  26.247  0.00  0.00    +0.000 A 
ATOM     28  C   UNL     1       7.743  14.538  26.471  0.00  0.00    +0.000 A 
ATOM     29  N   UNL     1       7.677  15.469  25.495  0.00  0.00    +0.000 NA
ATOM     30  C   UNL     1       7.991  15.063  24.241  0.00  0.00    +0.000 A 
ENDBRANCH  22  25
ENDBRANCH   1  23
TORSDOF 3
ENDMDL
MODEL 8
REMARK VINA RESULT:      -8.3      3.373     11.053
REMARK  Name = 
REMARK  3 active torsions:
REMARK  status: ('A' for Active; 'I' for Inactive)
REMARK    1  A    between atoms: C_2  and  C_23
REMARK    2  A    between atoms: N_3  and  C_4
REMARK    3  A    between atoms: C_8  and  C_9
REMARK                            x       y       z     vdW  Elec       q    Type
REMARK                         _______ _______ _______ _____ _____    ______ ____
ROOT
ATOM      1  C   UNL     1      -0.743  11.675  20.328  0.00  0.00    +0.000 A 
ATOM      2  C   UNL     1      -0.101  12.626  19.533  0.00  0.00    +0.000 A 
ATOM      3  C   UNL     1       1.046  12.300  18.805  0.00  0.00    +0.000 A 
ATOM      4  C   UNL     1       1.575  11.013  18.858  0.00  0.00    +0.000 A 
ATOM      5  C   UNL     1       0.975  10.051  19.678  0.00  0.00    +0.000 A 
ATOM      6  C   UNL     1      -0.179  10.393  20.418  0.00  0.00    +0.000 A 
ENDROOT
BRANCH   5   7
ATOM      7  C   UNL     1       1.486   8.644  19.710  0.00  0.00    +0.000 C 
ATOM      8  O   UNL     1       1.219   7.980  20.715  0.00  0.00    +0.000 OA
ATOM      9  N   UNL     1       2.249   8.235  18.636  0.00  0.00    +0.000 N 
ATOM     10  C   UNL     1       2.785   6.946  18.461  0.00  0.00    +0.000 A 
ATOM     11  C   UNL     1       3.703   6.775  17.438  0.00  0.00    +0.000 A 
ATOM     12  C   UNL     1       4.307   5.529  17.273  0.00  0.00    +0.000 A 
ATOM     13  C   UNL     1       3.750   4.435  17.926  0.00  0.00    +0.000 A 
ATOM     14  C   UNL     1       4.013   3.112  17.509  0.00  0.00    +0.000 A 
ATOM     15  C   UNL     1       3.381   2.044  18.145  0.00  0.00    +0.000 A 
ATOM     16  C   UNL     1       2.585   2.295  19.256  0.00  0.00    +0.000 A 
ATOM     17  C   UNL     1       2.348   3.611  19.671  0.00  0.00    +0.000 A 
ATOM     18  C   UNL     1       2.851   4.693  18.967  0.00  0.00    +0.000 A 
ATOM     19  N   UNL     1       2.428   5.937  19.268  0.00  0.00    +0.000 NA
ATOM     20  H   UNL     1       2.527   8.927  17.953  0.00  0.00    +0.000 HD
ENDBRANCH   5   7
BRANCH   1  23
ATOM     21  O   UNL     1      -1.116  12.377  23.170  0.00  0.00    +0.000 OA
ATOM     22  C   UNL     1      -2.051  12.268  22.372  0.00  0.00    +0.000 C 
ATOM     23  N   UNL     1      -1.950  11.958  21.029  0.00  0.00    +0.000 N 
ATOM     24  H   UNL     1      -2.776  12.092  20.451  0.00  0.00    +0.000 HD
BRANCH  22  25
ATOM     25  C   UNL     1      -3.418  12.565  22.880  0.00  0.00    +0.000 A 
ATOM     26  C   UNL     1      -4.371  13.265  22.134  0.00  0.00    +0.000 A 
ATOM     27  C   UNL     1      -5.632  13.489  22.689  0.00  0.00    +0.000 A 
ATOM     28  C   UNL     1      -5.896  13.012  23.965  0.00  0.00    +0.000 A 
ATOM     29  N   UNL     1      -5.002  12.315  24.698  0.00  0.00    +0.000 NA
ATOM     30  C   UNL     1      -3.790  12.094  24.135  0.00  0.00    +0.000 A 
ENDBRANCH  22  25
ENDBRANCH   1  23
TORSDOF 3
ENDMDL
MODEL 9
REMARK VINA RESULT:      -8.3      5.938      8.672
REMARK  Name = 
REMARK  3 active torsions:
REMARK  status: ('A' for Active; 'I' for Inactive)
REMARK    1  A    between atoms: C_2  and  C_23
REMARK    2  A    between atoms: N_3  and  C_4
REMARK    3  A    between atoms: C_8  and  C_9
REMARK                            x       y       z     vdW  Elec       q    Type
REMARK                         _______ _______ _______ _____ _____    ______ ____
ROOT
ATOM      1  C   UNL     1       5.299   5.452  17.482  0.00  0.00    +0.000 A 
ATOM      2  C   UNL     1       5.661   4.968  16.223  0.00  0.00    +0.000 A 
ATOM      3  C   UNL     1       6.744   5.510  15.528  0.00  0.00    +0.000 A 
ATOM      4  C   UNL     1       7.488   6.551  16.078  0.00  0.00    +0.000 A 
ATOM      5  C   UNL     1       7.124   7.081  17.320  0.00  0.00    +0.000 A 
ATOM      6  C   UNL     1       6.021   6.533  18.012  0.00  0.00    +0.000 A 
ENDROOT
BRANCH   5   7
ATOM      7  C   UNL     1       7.941   8.159  17.963  0.00  0.00    +0.000 C 
ATOM      8  O   UNL     1       8.662   7.821  18.904  0.00  0.00    +0.000 OA
ATOM      9  N   UNL     1       7.775   9.439  17.475  0.00  0.00    +0.000 N 
ATOM     10  C   UNL     1       8.476  10.576  17.916  0.00  0.00    +0.000 A 
ATOM     11  C   UNL     1       8.029  11.809  17.469  0.00  0.00    +0.000 A 
ATOM     12  C   UNL     1       8.655  12.964  17.935  0.00  0.00    +0.000 A 
ATOM     13  C   UNL     1       9.884  12.836  18.575  0.00  0.00    +0.000 A 
ATOM     14  C   UNL     1      10.769  13.929  18.702  0.00  0.00    +0.000 A 
ATOM     15  C   UNL     1      12.021  13.745  19.287  0.00  0.00    +0.000 A 
ATOM     16  C   UNL     1      12.333  12.508  19.837  0.00  0.00    +0.000 A 
ATOM     17  C   UNL     1      11.439  11.438  19.721  0.00  0.00    +0.000 A 
ATOM     18  C   UNL     1      10.251  11.561  19.020  0.00  0.00    +0.000 A 
ATOM     19  N   UNL     1       9.522  10.460  18.747  0.00  0.00    +0.000 NA
ATOM     20  H   UNL     1       7.034   9.606  16.807  0.00  0.00    +0.000 HD
ENDBRANCH   5   7
BRANCH   1  23
ATOM     21  O   UNL     1       5.413   3.242  19.434  0.00  0.00    +0.000 OA
ATOM     22  C   UNL     1       4.369   3.828  19.136  0.00  0.00    +0.000 C 
ATOM     23  N   UNL     1       4.243   4.876  18.245  0.00  0.00    +0.000 N 
ATOM     24  H   UNL     1       3.365   5.389  18.241  0.00  0.00    +0.000 HD
BRANCH  22  25
ATOM     25  C   UNL     1       3.131   3.417  19.852  0.00  0.00    +0.000 A 
ATOM     26  C   UNL     1       1.861   3.479  19.271  0.00  0.00    +0.000 A 
ATOM     27  C   UNL     1       0.755   3.063  20.016  0.00  0.00    +0.000 A 
ATOM     28  C   UNL     1       0.955   2.607  21.311  0.00  0.00    +0.000 A 
ATOM     29  N   UNL     1       2.172   2.517  21.888  0.00  0.00    +0.000 NA
ATOM     30  C   UNL     1       3.233   2.910  21.143  0.00  0.00    +0.000 A 
ENDBRANCH  22  25
ENDBRANCH   1  23
TORSDOF 3
ENDMDL
