MODEL 1
REMARK VINA RESULT:      -9.4      0.000      0.000
REMARK  Name = 
REMARK  3 active torsions:
REMARK  status: ('A' for Active; 'I' for Inactive)
REMARK    1  A    between atoms: C_2  and  C_16
REMARK    2  A    between atoms: N_3  and  C_4
REMARK    3  A    between atoms: C_6  and  C_7
REMARK                            x       y       z     vdW  Elec       q    Type
REMARK                         _______ _______ _______ _____ _____    ______ ____
ROOT
ATOM      1  O   UNL     1       8.535   7.247  18.885  0.00  0.00    +0.000 OA
ATOM      2  C   UNL     1       8.071   8.122  18.158  0.00  0.00    +0.000 C 
ATOM      3  N   UNL     1       7.206   7.863  17.118  0.00  0.00    +0.000 N 
ATOM      4  H   UNL     1       7.015   8.609  16.463  0.00  0.00    +0.000 HD
ENDROOT
BRANCH   2   5
ATOM      5  C   UNL     1       8.508   9.555  18.339  0.00  0.00    +0.000 A 
ATOM      6  C   UNL     1       9.507   9.932  19.155  0.00  0.00    +0.000 A 
ATOM      7  C   UNL     1       9.884  11.348  19.229  0.00  0.00    +0.000 A 
ATOM      8  C   UNL     1      10.917  11.772  20.069  0.00  0.00    +0.000 A 
ATOM      9  C   UNL     1      11.275  13.123  20.117  0.00  0.00    +0.000 A 
ATOM     10  C   UNL     1      10.603  14.058  19.327  0.00  0.00    +0.000 A 
ATOM     11  C   UNL     1       9.568  13.646  18.487  0.00  0.00    +0.000 A 
ATOM     12  C   UNL     1       9.213  12.295  18.440  0.00  0.00    +0.000 A 
ATOM     13  C   UNL     1       8.123  11.833  17.540  0.00  0.00    +0.000 A 
ATOM     14  O   UNL     1       7.508  12.613  16.824  0.00  0.00    +0.000 OA
ATOM     15  N   UNL     1       7.855  10.487  17.560  0.00  0.00    +0.000 N 
ATOM     16  H   UNL     1       7.137  10.149  16.924  0.00  0.00    +0.000 HD
ENDBRANCH   2   5
BRANCH   3  17
ATOM     17  C   UNL     1       6.792   6.480  16.785  0.00  0.00    +0.000 C 
ATOM     18  C   UNL     1       6.399   5.608  17.997  0.00  0.00    +0.000 C 
ATOM     19  C   UNL     1       4.912   5.980  17.748  0.00  0.00    +0.000 C 
ATOM     20  C   UNL     1       5.333   6.362  16.301  0.00  0.00    +0.000 C 
BRANCH  19  21
ATOM     21  C   UNL     1       3.762   4.892  17.919  0.00  0.00    +0.000 A 
ATOM     22  C   UNL     1       3.616   3.783  17.059  0.00  0.00    +0.000 A 
ATOM     23  C   UNL     1       2.620   2.818  17.254  0.00  0.00    +0.000 A 
ATOM     24  C   UNL     1       1.743   2.938  18.323  0.00  0.00    +0.000 A 
ATOM     25  F   UNL     1       0.805   1.995  18.503  0.00  0.00    +0.000 F 
ATOM     26  C   UNL     1       1.844   4.016  19.191  0.00  0.00    +0.000 A 
ATOM     27 CL   UNL     1       0.768   4.184  20.523  0.00  0.00    +0.000 Cl
ATOM     28  C   UNL     1       2.840   4.977  18.987  0.00  0.00    +0.000 A 
ENDBRANCH  19  21
ENDBRANCH   3  17
TORSDOF 3
ENDMDL
MODEL 2
REMARK VINA RESULT:      -9.0      1.092      1.276
REMARK  Name = 
REMARK  3 active torsions:
REMARK  status: ('A' for Active; 'I' for Inactive)
REMARK    1  A    between atoms: C_2  and  C_16
REMARK    2  A    between atoms: N_3  and  C_4
REMARK    3  A    between atoms: C_6  and  C_7
REMARK                            x       y       z     vdW  Elec       q    Type
REMARK                         _______ _______ _______ _____ _____    ______ ____
ROOT
ATOM      1  O   UNL     1       8.698   7.529  19.140  0.00  0.00    +0.000 OA
ATOM      2  C   UNL     1       8.244   8.340  18.336  0.00  0.00    +0.000 C 
ATOM      3  N   UNL     1       7.427   7.988  17.284  0.00  0.00    +0.000 N 
ATOM      4  H   UNL     1       7.247   8.682  16.571  0.00  0.00    +0.000 HD
ENDROOT
BRANCH   2   5
ATOM      5  C   UNL     1       8.642   9.792  18.431  0.00  0.00    +0.000 A 
ATOM      6  C   UNL     1       9.651  10.239  19.198  0.00  0.00    +0.000 A 
ATOM      7  C   UNL     1       9.987  11.667  19.190  0.00  0.00    +0.000 A 
ATOM      8  C   UNL     1      11.029  12.163  19.979  0.00  0.00    +0.000 A 
ATOM      9  C   UNL     1      11.347  13.525  19.948  0.00  0.00    +0.000 A 
ATOM     10  C   UNL     1      10.626  14.398  19.132  0.00  0.00    +0.000 A 
ATOM     11  C   UNL     1       9.582  13.914  18.343  0.00  0.00    +0.000 A 
ATOM     12  C   UNL     1       9.267  12.553  18.375  0.00  0.00    +0.000 A 
ATOM     13  C   UNL     1       8.167  12.014  17.530  0.00  0.00    +0.000 A 
ATOM     14  O   UNL     1       7.509  12.738  16.794  0.00  0.00    +0.000 OA
ATOM     15  N   UNL     1       7.941  10.663  17.626  0.00  0.00    +0.000 N 
ATOM     16  H   UNL     1       7.217  10.273  17.028  0.00  0.00    +0.000 HD
ENDBRANCH   2   5
BRANCH   3  17
ATOM     17  C   UNL     1       7.057   6.576  17.034  0.00  0.00    +0.000 C 
ATOM     18  C   UNL     1       6.536   5.809  18.269  0.00  0.00    +0.000 C 
ATOM     19  C   UNL     1       5.084   6.138  17.827  0.00  0.00    +0.000 C 
ATOM     20  C   UNL     1       5.661   6.396  16.406  0.00  0.00    +0.000 C 
BRANCH  19  21
ATOM     21  C   UNL     1       3.926   5.054  17.968  0.00  0.00    +0.000 A 
ATOM     22  C   UNL     1       2.555   5.376  17.887  0.00  0.00    +0.000 A 
ATOM     23  C   UNL     1       1.556   4.399  17.974  0.00  0.00    +0.000 A 
ATOM     24  C   UNL     1       1.907   3.066  18.141  0.00  0.00    +0.000 A 
ATOM     25  F   UNL     1       0.936   2.142  18.206  0.00  0.00    +0.000 F 
ATOM     26  C   UNL     1       3.243   2.703  18.233  0.00  0.00    +0.000 A 
ATOM     27 CL   UNL     1       3.701   1.057  18.439  0.00  0.00    +0.000 Cl
ATOM     28  C   UNL     1       4.235   3.686  18.148  0.00  0.00    +0.000 A 
ENDBRANCH  19  21
ENDBRANCH   3  17
TORSDOF 3
ENDMDL
MODEL 3
REMARK VINA RESULT:      -9.0      4.754      9.879
REMARK  Name = 
REMARK  3 active torsions:
REMARK  status: ('A' for Active; 'I' for Inactive)
REMARK    1  A    between atoms: C_2  and  C_16
REMARK    2  A    between atoms: N_3  and  C_4
REMARK    3  A    between atoms: C_6  and  C_7
REMARK                            x       y       z     vdW  Elec       q    Type
REMARK                         _______ _______ _______ _____ _____    ______ ____
ROOT
ATOM      1  O   UNL     1       7.358   4.634  17.351  0.00  0.00    +0.000 OA
ATOM      2  C   UNL     1       6.473   5.355  17.805  0.00  0.00    +0.000 C 
ATOM      3  N   UNL     1       6.596   6.722  17.926  0.00  0.00    +0.000 N 
ATOM      4  H   UNL     1       5.901   7.214  18.471  0.00  0.00    +0.000 HD
ENDROOT
BRANCH   2   5
ATOM      5  C   UNL     1       5.202   4.737  18.335  0.00  0.00    +0.000 A 
ATOM      6  C   UNL     1       4.307   5.403  19.083  0.00  0.00    +0.000 A 
ATOM      7  C   UNL     1       3.080   4.724  19.516  0.00  0.00    +0.000 A 
ATOM      8  C   UNL     1       2.130   5.389  20.297  0.00  0.00    +0.000 A 
ATOM      9  C   UNL     1       0.957   4.733  20.687  0.00  0.00    +0.000 A 
ATOM     10  C   UNL     1       0.729   3.411  20.303  0.00  0.00    +0.000 A 
ATOM     11  C   UNL     1       1.672   2.737  19.526  0.00  0.00    +0.000 A 
ATOM     12  C   UNL     1       2.842   3.395  19.136  0.00  0.00    +0.000 A 
ATOM     13  C   UNL     1       3.852   2.700  18.295  0.00  0.00    +0.000 A 
ATOM     14  O   UNL     1       3.696   1.543  17.927  0.00  0.00    +0.000 OA
ATOM     15  N   UNL     1       4.963   3.434  17.957  0.00  0.00    +0.000 N 
ATOM     16  H   UNL     1       5.647   2.985  17.353  0.00  0.00    +0.000 HD
ENDBRANCH   2   5
BRANCH   3  17
ATOM     17  C   UNL     1       7.841   7.422  17.533  0.00  0.00    +0.000 C 
ATOM     18  C   UNL     1       7.689   8.942  17.304  0.00  0.00    +0.000 C 
ATOM     19  C   UNL     1       8.162   9.182  18.763  0.00  0.00    +0.000 C 
ATOM     20  C   UNL     1       8.773   7.753  18.715  0.00  0.00    +0.000 C 
BRANCH  19  21
ATOM     21  C   UNL     1       9.139  10.390  19.114  0.00  0.00    +0.000 A 
ATOM     22  C   UNL     1       9.422  10.794  20.435  0.00  0.00    +0.000 A 
ATOM     23  C   UNL     1      10.316  11.834  20.719  0.00  0.00    +0.000 A 
ATOM     24  C   UNL     1      10.955  12.497  19.680  0.00  0.00    +0.000 A 
ATOM     25  F   UNL     1      11.820  13.480  19.972  0.00  0.00    +0.000 F 
ATOM     26  C   UNL     1      10.701  12.139  18.364  0.00  0.00    +0.000 A 
ATOM     27 CL   UNL     1      11.483  12.947  17.061  0.00  0.00    +0.000 Cl
ATOM     28  C   UNL     1       9.805  11.101  18.089  0.00  0.00    +0.000 A 
ENDBRANCH  19  21
ENDBRANCH   3  17
TORSDOF 3
ENDMDL
MODEL 4
REMARK VINA RESULT:      -8.9      4.712      9.939
REMARK  Name = 
REMARK  3 active torsions:
REMARK  status: ('A' for Active; 'I' for Inactive)
REMARK    1  A    between atoms: C_2  and  C_16
REMARK    2  A    between atoms: N_3  and  C_4
REMARK    3  A    between atoms: C_6  and  C_7
REMARK                            x       y       z     vdW  Elec       q    Type
REMARK                         _______ _______ _______ _____ _____    ______ ____
ROOT
ATOM      1  O   UNL     1       5.361   6.928  15.901  0.00  0.00    +0.000 OA
ATOM      2  C   UNL     1       5.350   6.728  17.113  0.00  0.00    +0.000 C 
ATOM      3  N   UNL     1       6.378   7.102  17.952  0.00  0.00    +0.000 N 
ATOM      4  H   UNL     1       6.372   6.743  18.897  0.00  0.00    +0.000 HD
ENDROOT
BRANCH   2   5
ATOM      5  C   UNL     1       4.205   5.970  17.738  0.00  0.00    +0.000 A 
ATOM      6  C   UNL     1       3.875   4.711  17.403  0.00  0.00    +0.000 A 
ATOM      7  C   UNL     1       2.768   4.046  18.099  0.00  0.00    +0.000 A 
ATOM      8  C   UNL     1       2.398   2.738  17.772  0.00  0.00    +0.000 A 
ATOM      9  C   UNL     1       1.351   2.111  18.456  0.00  0.00    +0.000 A 
ATOM     10  C   UNL     1       0.667   2.787  19.467  0.00  0.00    +0.000 A 
ATOM     11  C   UNL     1       1.025   4.094  19.800  0.00  0.00    +0.000 A 
ATOM     12  C   UNL     1       2.073   4.717  19.116  0.00  0.00    +0.000 A 
ATOM     13  C   UNL     1       2.481   6.104  19.465  0.00  0.00    +0.000 A 
ATOM     14  O   UNL     1       1.916   6.736  20.348  0.00  0.00    +0.000 OA
ATOM     15  N   UNL     1       3.525   6.625  18.742  0.00  0.00    +0.000 N 
ATOM     16  H   UNL     1       3.840   7.559  18.993  0.00  0.00    +0.000 HD
ENDBRANCH   2   5
BRANCH   3  17
ATOM     17  C   UNL     1       7.598   7.760  17.431  0.00  0.00    +0.000 C 
ATOM     18  C   UNL     1       7.516   9.298  17.325  0.00  0.00    +0.000 C 
ATOM     19  C   UNL     1       8.202   9.404  18.714  0.00  0.00    +0.000 C 
ATOM     20  C   UNL     1       8.706   7.950  18.486  0.00  0.00    +0.000 C 
BRANCH  19  21
ATOM     21  C   UNL     1       9.294  10.527  18.999  0.00  0.00    +0.000 A 
ATOM     22  C   UNL     1       9.772  10.828  20.291  0.00  0.00    +0.000 A 
ATOM     23  C   UNL     1      10.763  11.793  20.511  0.00  0.00    +0.000 A 
ATOM     24  C   UNL     1      11.305  12.482  19.436  0.00  0.00    +0.000 A 
ATOM     25  F   UNL     1      12.265  13.392  19.664  0.00  0.00    +0.000 F 
ATOM     26  C   UNL     1      10.861  12.225  18.147  0.00  0.00    +0.000 A 
ATOM     27 CL   UNL     1      11.521  13.067  16.798  0.00  0.00    +0.000 Cl
ATOM     28  C   UNL     1       9.869  11.261  17.936  0.00  0.00    +0.000 A 
ENDBRANCH  19  21
ENDBRANCH   3  17
TORSDOF 3
ENDMDL
MODEL 5
REMARK VINA RESULT:      -8.8      4.772      9.881
REMARK  Name = 
REMARK  3 active torsions:
REMARK  status: ('A' for Active; 'I' for Inactive)
REMARK    1  A    between atoms: C_2  and  C_16
REMARK    2  A    between atoms: N_3  and  C_4
REMARK    3  A    between atoms: C_6  and  C_7
REMARK                            x       y       z     vdW  Elec       q    Type
REMARK                         _______ _______ _______ _____ _____    ______ ____
ROOT
ATOM      1  O   UNL     1       7.355   4.650  18.642  0.00  0.00    +0.000 OA
ATOM      2  C   UNL     1       6.420   5.418  18.427  0.00  0.00    +0.000 C 
ATOM      3  N   UNL     1       6.587   6.703  17.960  0.00  0.00    +0.000 N 
ATOM      4  H   UNL     1       5.788   7.323  17.982  0.00  0.00    +0.000 HD
ENDROOT
BRANCH   2   5
ATOM      5  C   UNL     1       5.010   4.989  18.751  0.00  0.00    +0.000 A 
ATOM      6  C   UNL     1       4.533   3.757  18.509  0.00  0.00    +0.000 A 
ATOM      7  C   UNL     1       3.157   3.426  18.899  0.00  0.00    +0.000 A 
ATOM      8  C   UNL     1       2.630   2.154  18.659  0.00  0.00    +0.000 A 
ATOM      9  C   UNL     1       1.323   1.848  19.051  0.00  0.00    +0.000 A 
ATOM     10  C   UNL     1       0.535   2.812  19.683  0.00  0.00    +0.000 A 
ATOM     11  C   UNL     1       1.049   4.085  19.926  0.00  0.00    +0.000 A 
ATOM     12  C   UNL     1       2.357   4.387  19.534  0.00  0.00    +0.000 A 
ATOM     13  C   UNL     1       2.930   5.734  19.796  0.00  0.00    +0.000 A 
ATOM     14  O   UNL     1       2.281   6.611  20.352  0.00  0.00    +0.000 OA
ATOM     15  N   UNL     1       4.224   5.930  19.380  0.00  0.00    +0.000 N 
ATOM     16  H   UNL     1       4.643   6.834  19.585  0.00  0.00    +0.000 HD
ENDBRANCH   2   5
BRANCH   3  17
ATOM     17  C   UNL     1       7.935   7.263  17.708  0.00  0.00    +0.000 C 
ATOM     18  C   UNL     1       7.951   8.730  17.224  0.00  0.00    +0.000 C 
ATOM     19  C   UNL     1       8.174   9.183  18.692  0.00  0.00    +0.000 C 
ATOM     20  C   UNL     1       8.665   7.736  18.980  0.00  0.00    +0.000 C 
BRANCH  19  21
ATOM     21  C   UNL     1       9.168  10.381  19.032  0.00  0.00    +0.000 A 
ATOM     22  C   UNL     1       9.492  10.763  20.351  0.00  0.00    +0.000 A 
ATOM     23  C   UNL     1      10.400  11.793  20.624  0.00  0.00    +0.000 A 
ATOM     24  C   UNL     1      11.012  12.469  19.577  0.00  0.00    +0.000 A 
ATOM     25  F   UNL     1      11.891  13.442  19.858  0.00  0.00    +0.000 F 
ATOM     26  C   UNL     1      10.718  12.132  18.263  0.00  0.00    +0.000 A 
ATOM     27 CL   UNL     1      11.467  12.955  16.950  0.00  0.00    +0.000 Cl
ATOM     28  C   UNL     1       9.808  11.103  17.999  0.00  0.00    +0.000 A 
ENDBRANCH  19  21
ENDBRANCH   3  17
TORSDOF 3
ENDMDL
MODEL 6
REMARK VINA RESULT:      -8.7      1.269      1.857
REMARK  Name = 
REMARK  3 active torsions:
REMARK  status: ('A' for Active; 'I' for Inactive)
REMARK    1  A    between atoms: C_2  and  C_16
REMARK    2  A    between atoms: N_3  and  C_4
REMARK    3  A    between atoms: C_6  and  C_7
REMARK                            x       y       z     vdW  Elec       q    Type
REMARK                         _______ _______ _______ _____ _____    ______ ____
ROOT
ATOM      1  O   UNL     1       8.575   7.284  18.907  0.00  0.00    +0.000 OA
ATOM      2  C   UNL     1       8.103   8.157  18.182  0.00  0.00    +0.000 C 
ATOM      3  N   UNL     1       7.237   7.893  17.144  0.00  0.00    +0.000 N 
ATOM      4  H   UNL     1       7.041   8.639  16.490  0.00  0.00    +0.000 HD
ENDROOT
BRANCH   2   5
ATOM      5  C   UNL     1       8.530   9.592  18.364  0.00  0.00    +0.000 A 
ATOM      6  C   UNL     1       8.006  10.618  17.672  0.00  0.00    +0.000 A 
ATOM      7  C   UNL     1       8.460  11.985  17.952  0.00  0.00    +0.000 A 
ATOM      8  C   UNL     1       7.936  13.073  17.248  0.00  0.00    +0.000 A 
ATOM      9  C   UNL     1       8.367  14.372  17.538  0.00  0.00    +0.000 A 
ATOM     10  C   UNL     1       9.325  14.591  18.529  0.00  0.00    +0.000 A 
ATOM     11  C   UNL     1       9.856  13.512  19.236  0.00  0.00    +0.000 A 
ATOM     12  C   UNL     1       9.423  12.215  18.946  0.00  0.00    +0.000 A 
ATOM     13  C   UNL     1       9.966  11.053  19.698  0.00  0.00    +0.000 A 
ATOM     14  O   UNL     1      10.803  11.194  20.581  0.00  0.00    +0.000 OA
ATOM     15  N   UNL     1       9.471   9.822  19.344  0.00  0.00    +0.000 N 
ATOM     16  H   UNL     1       9.806   9.021  19.874  0.00  0.00    +0.000 HD
ENDBRANCH   2   5
BRANCH   3  17
ATOM     17  C   UNL     1       6.832   6.508  16.810  0.00  0.00    +0.000 C 
ATOM     18  C   UNL     1       6.429   5.637  18.020  0.00  0.00    +0.000 C 
ATOM     19  C   UNL     1       4.944   6.003  17.754  0.00  0.00    +0.000 C 
ATOM     20  C   UNL     1       5.379   6.384  16.310  0.00  0.00    +0.000 C 
BRANCH  19  21
ATOM     21  C   UNL     1       3.795   4.911  17.914  0.00  0.00    +0.000 A 
ATOM     22  C   UNL     1       3.666   3.797  17.059  0.00  0.00    +0.000 A 
ATOM     23  C   UNL     1       2.671   2.829  17.246  0.00  0.00    +0.000 A 
ATOM     24  C   UNL     1       1.779   2.951  18.302  0.00  0.00    +0.000 A 
ATOM     25  F   UNL     1       0.843   2.005  18.474  0.00  0.00    +0.000 F 
ATOM     26  C   UNL     1       1.864   4.034  19.165  0.00  0.00    +0.000 A 
ATOM     27 CL   UNL     1       0.769   4.205  20.482  0.00  0.00    +0.000 Cl
ATOM     28  C   UNL     1       2.859   4.999  18.970  0.00  0.00    +0.000 A 
ENDBRANCH  19  21
ENDBRANCH   3  17
TORSDOF 3
ENDMDL
MODEL 7
REMARK VINA RESULT:      -8.5      1.655      2.241
REMARK  Name = 
REMARK  3 active torsions:
REMARK  status: ('A' for Active; 'I' for Inactive)
REMARK    1  A    between atoms: C_2  and  C_16
REMARK    2  A    between atoms: N_3  and  C_4
REMARK    3  A    between atoms: C_6  and  C_7
REMARK                            x       y       z     vdW  Elec       q    Type
REMARK                         _______ _______ _______ _____ _____    ______ ____
ROOT
ATOM      1  O   UNL     1       8.657   7.420  18.946  0.00  0.00    +0.000 OA
ATOM      2  C   UNL     1       8.172   8.296  18.235  0.00  0.00    +0.000 C 
ATOM      3  N   UNL     1       7.294   8.036  17.205  0.00  0.00    +0.000 N 
ATOM      4  H   UNL     1       7.086   8.786  16.560  0.00  0.00    +0.000 HD
ENDROOT
BRANCH   2   5
ATOM      5  C   UNL     1       8.594   9.732  18.422  0.00  0.00    +0.000 A 
ATOM      6  C   UNL     1       8.062  10.759  17.738  0.00  0.00    +0.000 A 
ATOM      7  C   UNL     1       8.512  12.127  18.024  0.00  0.00    +0.000 A 
ATOM      8  C   UNL     1       7.981  13.217  17.329  0.00  0.00    +0.000 A 
ATOM      9  C   UNL     1       8.408  14.515  17.624  0.00  0.00    +0.000 A 
ATOM     10  C   UNL     1       9.369  14.732  18.613  0.00  0.00    +0.000 A 
ATOM     11  C   UNL     1       9.908  13.652  19.312  0.00  0.00    +0.000 A 
ATOM     12  C   UNL     1       9.478  12.355  19.016  0.00  0.00    +0.000 A 
ATOM     13  C   UNL     1      10.029  11.191  19.759  0.00  0.00    +0.000 A 
ATOM     14  O   UNL     1      10.869  11.330  20.639  0.00  0.00    +0.000 OA
ATOM     15  N   UNL     1       9.538   9.960  19.400  0.00  0.00    +0.000 N 
ATOM     16  H   UNL     1       9.878   9.157  19.924  0.00  0.00    +0.000 HD
ENDBRANCH   2   5
BRANCH   3  17
ATOM     17  C   UNL     1       6.892   6.652  16.864  0.00  0.00    +0.000 C 
ATOM     18  C   UNL     1       6.502   5.770  18.072  0.00  0.00    +0.000 C 
ATOM     19  C   UNL     1       5.013   6.132  17.820  0.00  0.00    +0.000 C 
ATOM     20  C   UNL     1       5.436   6.525  16.376  0.00  0.00    +0.000 C 
BRANCH  19  21
ATOM     21  C   UNL     1       3.871   5.035  17.983  0.00  0.00    +0.000 A 
ATOM     22  C   UNL     1       2.495   5.340  17.924  0.00  0.00    +0.000 A 
ATOM     23  C   UNL     1       1.510   4.351  18.029  0.00  0.00    +0.000 A 
ATOM     24  C   UNL     1       1.879   3.023  18.193  0.00  0.00    +0.000 A 
ATOM     25  F   UNL     1       0.921   2.087  18.276  0.00  0.00    +0.000 F 
ATOM     26  C   UNL     1       3.221   2.677  18.264  0.00  0.00    +0.000 A 
ATOM     27 CL   UNL     1       3.703   1.037  18.466  0.00  0.00    +0.000 Cl
ATOM     28  C   UNL     1       4.199   3.672  18.160  0.00  0.00    +0.000 A 
ENDBRANCH  19  21
ENDBRANCH   3  17
TORSDOF 3
ENDMDL
MODEL 8
REMARK VINA RESULT:      -8.5      6.672      9.330
REMARK  Name = 
REMARK  3 active torsions:
REMARK  status: ('A' for Active; 'I' for Inactive)
REMARK    1  A    between atoms: C_2  and  C_16
REMARK    2  A    between atoms: N_3  and  C_4
REMARK    3  A    between atoms: C_6  and  C_7
REMARK                            x       y       z     vdW  Elec       q    Type
REMARK                         _______ _______ _______ _____ _____    ______ ____
ROOT
ATOM      1  O   UNL     1       1.195   5.047  20.818  0.00  0.00    +0.000 OA
ATOM      2  C   UNL     1       1.913   5.858  20.239  0.00  0.00    +0.000 C 
ATOM      3  N   UNL     1       1.942   7.200  20.546  0.00  0.00    +0.000 N 
ATOM      4  H   UNL     1       2.421   7.822  19.908  0.00  0.00    +0.000 HD
ENDROOT
BRANCH   2   5
ATOM      5  C   UNL     1       2.764   5.407  19.077  0.00  0.00    +0.000 A 
ATOM      6  C   UNL     1       3.407   6.253  18.253  0.00  0.00    +0.000 A 
ATOM      7  C   UNL     1       4.245   5.714  17.176  0.00  0.00    +0.000 A 
ATOM      8  C   UNL     1       4.924   6.567  16.301  0.00  0.00    +0.000 A 
ATOM      9  C   UNL     1       5.732   6.038  15.289  0.00  0.00    +0.000 A 
ATOM     10  C   UNL     1       5.865   4.656  15.145  0.00  0.00    +0.000 A 
ATOM     11  C   UNL     1       5.190   3.795  16.011  0.00  0.00    +0.000 A 
ATOM     12  C   UNL     1       4.384   4.326  17.022  0.00  0.00    +0.000 A 
ATOM     13  C   UNL     1       3.667   3.427  17.965  0.00  0.00    +0.000 A 
ATOM     14  O   UNL     1       3.756   2.208  17.883  0.00  0.00    +0.000 OA
ATOM     15  N   UNL     1       2.908   4.045  18.927  0.00  0.00    +0.000 N 
ATOM     16  H   UNL     1       2.441   3.445  19.602  0.00  0.00    +0.000 HD
ENDBRANCH   2   5
BRANCH   3  17
ATOM     17  C   UNL     1       1.071   7.770  21.600  0.00  0.00    +0.000 C 
ATOM     18  C   UNL     1       1.514   9.148  22.138  0.00  0.00    +0.000 C 
ATOM     19  C   UNL     1       0.536   9.823  21.139  0.00  0.00    +0.000 C 
ATOM     20  C   UNL     1      -0.200   8.454  21.059  0.00  0.00    +0.000 C 
BRANCH  19  21
ATOM     21  C   UNL     1      -0.319  11.095  21.570  0.00  0.00    +0.000 A 
ATOM     22  C   UNL     1      -1.021  11.175  22.790  0.00  0.00    +0.000 A 
ATOM     23  C   UNL     1      -1.732  12.322  23.165  0.00  0.00    +0.000 A 
ATOM     24  C   UNL     1      -1.755  13.426  22.323  0.00  0.00    +0.000 A 
ATOM     25  F   UNL     1      -2.428  14.521  22.706  0.00  0.00    +0.000 F 
ATOM     26  C   UNL     1      -1.084  13.390  21.109  0.00  0.00    +0.000 A 
ATOM     27 CL   UNL     1      -1.097  14.747  20.050  0.00  0.00    +0.000 Cl
ATOM     28  C   UNL     1      -0.377  12.240  20.741  0.00  0.00    +0.000 A 
ENDBRANCH  19  21
ENDBRANCH   3  17
TORSDOF 3
ENDMDL
MODEL 9
REMARK VINA RESULT:      -8.5      7.144     10.035
REMARK  Name = 
REMARK  3 active torsions:
REMARK  status: ('A' for Active; 'I' for Inactive)
REMARK    1  A    between atoms: C_2  and  C_16
REMARK    2  A    between atoms: N_3  and  C_4
REMARK    3  A    between atoms: C_6  and  C_7
REMARK                            x       y       z     vdW  Elec       q    Type
REMARK                         _______ _______ _______ _____ _____    ______ ____
ROOT
ATOM      1  O   UNL     1       2.215   9.288  17.618  0.00  0.00    +0.000 OA
ATOM      2  C   UNL     1       1.922   8.636  18.616  0.00  0.00    +0.000 C 
ATOM      3  N   UNL     1       1.164   9.135  19.653  0.00  0.00    +0.000 N 
ATOM      4  H   UNL     1       1.121   8.600  20.510  0.00  0.00    +0.000 HD
ENDROOT
BRANCH   2   5
ATOM      5  C   UNL     1       2.465   7.237  18.783  0.00  0.00    +0.000 A 
ATOM      6  C   UNL     1       2.135   6.428  19.804  0.00  0.00    +0.000 A 
ATOM      7  C   UNL     1       2.685   5.069  19.854  0.00  0.00    +0.000 A 
ATOM      8  C   UNL     1       2.365   4.204  20.905  0.00  0.00    +0.000 A 
ATOM      9  C   UNL     1       2.884   2.905  20.930  0.00  0.00    +0.000 A 
ATOM     10  C   UNL     1       3.728   2.465  19.908  0.00  0.00    +0.000 A 
ATOM     11  C   UNL     1       4.057   3.320  18.857  0.00  0.00    +0.000 A 
ATOM     12  C   UNL     1       3.535   4.617  18.834  0.00  0.00    +0.000 A 
ATOM     13  C   UNL     1       3.861   5.540  17.714  0.00  0.00    +0.000 A 
ATOM     14  O   UNL     1       4.592   5.199  16.792  0.00  0.00    +0.000 OA
ATOM     15  N   UNL     1       3.294   6.789  17.778  0.00  0.00    +0.000 N 
ATOM     16  H   UNL     1       3.478   7.420  17.002  0.00  0.00    +0.000 HD
ENDBRANCH   2   5
BRANCH   3  17
ATOM     17  C   UNL     1       0.666  10.530  19.642  0.00  0.00    +0.000 C 
ATOM     18  C   UNL     1      -0.814  10.697  20.050  0.00  0.00    +0.000 C 
ATOM     19  C   UNL     1      -0.352  11.006  21.500  0.00  0.00    +0.000 C 
ATOM     20  C   UNL     1       1.043  11.340  20.898  0.00  0.00    +0.000 C 
BRANCH  19  21
ATOM     21  C   UNL     1      -1.073  12.134  22.362  0.00  0.00    +0.000 A 
ATOM     22  C   UNL     1      -0.612  13.465  22.429  0.00  0.00    +0.000 A 
ATOM     23  C   UNL     1      -1.288  14.449  23.161  0.00  0.00    +0.000 A 
ATOM     24  C   UNL     1      -2.450  14.123  23.847  0.00  0.00    +0.000 A 
ATOM     25  F   UNL     1      -3.092  15.082  24.530  0.00  0.00    +0.000 F 
ATOM     26  C   UNL     1      -2.937  12.824  23.816  0.00  0.00    +0.000 A 
ATOM     27 CL   UNL     1      -4.377  12.397  24.656  0.00  0.00    +0.000 Cl
ATOM     28  C   UNL     1      -2.255  11.846  23.083  0.00  0.00    +0.000 A 
ENDBRANCH  19  21
ENDBRANCH   3  17
TORSDOF 3
ENDMDL
