MODEL 1
REMARK VINA RESULT:      -8.6      0.000      0.000
REMARK  Name = 
REMARK  6 active torsions:
REMARK  status: ('A' for Active; 'I' for Inactive)
REMARK    1  A    between atoms: C_1  and  N_2
REMARK    2  A    between atoms: C_6  and  C_7
REMARK    3  A    between atoms: C_7  and  C_8
REMARK    4  A    between atoms: C_8  and  C_9
REMARK    5  A    between atoms: C_13  and  N_14
REMARK    6  A    between atoms: C_19  and  C_20
REMARK                            x       y       z     vdW  Elec       q    Type
REMARK                         _______ _______ _______ _____ _____    ______ ____
ROOT
ATOM      1  C   UNL     1       3.246   4.058  19.430  0.00  0.00    +0.000 A 
ATOM      2  C   UNL     1       2.915   3.488  18.183  0.00  0.00    +0.000 A 
ATOM      3  C   UNL     1       3.892   3.059  17.290  0.00  0.00    +0.000 A 
ATOM      4  C   UNL     1       5.229   3.309  17.562  0.00  0.00    +0.000 A 
ATOM      5  C   UNL     1       5.564   4.149  18.632  0.00  0.00    +0.000 A 
ATOM      6  C   UNL     1       4.604   4.382  19.625  0.00  0.00    +0.000 A 
ENDROOT
BRANCH   5   7
ATOM      7  N   UNL     1       6.648   5.121  18.485  0.00  0.00    +0.000 N 
ATOM      8  C   UNL     1       6.092   6.407  17.986  0.00  0.00    +0.000 C 
ATOM      9  C   UNL     1       6.112   6.182  16.505  0.00  0.00    +0.000 A 
ATOM     10  C   UNL     1       5.098   6.379  15.583  0.00  0.00    +0.000 A 
ATOM     11  C   UNL     1       5.165   5.670  14.377  0.00  0.00    +0.000 A 
ATOM     12  C   UNL     1       6.244   4.797  14.088  0.00  0.00    +0.000 A 
ATOM     13  C   UNL     1       7.289   4.653  15.017  0.00  0.00    +0.000 A 
ATOM     14  C   UNL     1       7.174   5.323  16.223  0.00  0.00    +0.000 A 
ATOM     15  C   UNL     1       7.639   4.778  17.525  0.00  0.00    +0.000 C 
ATOM     16  O   UNL     1       8.562   3.990  17.646  0.00  0.00    +0.000 OA
BRANCH  12  17
ATOM     17  C   UNL     1       6.222   3.905  12.868  0.00  0.00    +0.000 C 
ATOM     18  F   UNL     1       7.091   4.292  11.895  0.00  0.00    +0.000 F 
ATOM     19  F   UNL     1       6.527   2.612  13.157  0.00  0.00    +0.000 F 
ATOM     20  F   UNL     1       4.996   3.878  12.273  0.00  0.00    +0.000 F 
ENDBRANCH  12  17
ENDBRANCH   5   7
BRANCH   1  21
ATOM     21  C   UNL     1       2.147   4.284  20.568  0.00  0.00    +0.000 C 
ATOM     22  C   UNL     1       0.735   3.711  20.237  0.00  0.00    +0.000 C 
ATOM     23  O   UNL     1       0.717   2.924  21.444  0.00  0.00    +0.000 OA
ATOM     24  C   UNL     1       2.109   3.213  21.689  0.00  0.00    +0.000 C 
BRANCH  21  25
ATOM     25  C   UNL     1       2.013   5.740  21.054  0.00  0.00    +0.000 C 
BRANCH  25  31
ATOM     26  C   UNL     1       1.093   8.810  21.313  0.00  0.00    +0.000 C 
ATOM     27  N   UNL     1       1.628   8.119  20.173  0.00  0.00    +0.000 N 
ATOM     28  N   UNL     1       1.736   8.765  18.996  0.00  0.00    +0.000 NA
ATOM     29  N   UNL     1       2.164   7.858  18.134  0.00  0.00    +0.000 NA
ATOM     30  N   UNL     1       2.350   6.649  18.753  0.00  0.00    +0.000 NA
ATOM     31  C   UNL     1       2.043   6.819  20.025  0.00  0.00    +0.000 A 
ENDBRANCH  25  31
ENDBRANCH  21  25
ENDBRANCH   1  21
TORSDOF 5
ENDMDL
MODEL 2
REMARK VINA RESULT:      -8.5      4.436      7.619
REMARK  Name = 
REMARK  6 active torsions:
REMARK  status: ('A' for Active; 'I' for Inactive)
REMARK    1  A    between atoms: C_1  and  N_2
REMARK    2  A    between atoms: C_6  and  C_7
REMARK    3  A    between atoms: C_7  and  C_8
REMARK    4  A    between atoms: C_8  and  C_9
REMARK    5  A    between atoms: C_13  and  N_14
REMARK    6  A    between atoms: C_19  and  C_20
REMARK                            x       y       z     vdW  Elec       q    Type
REMARK                         _______ _______ _______ _____ _____    ______ ____
ROOT
ATOM      1  C   UNL     1       2.221   5.579  19.007  0.00  0.00    +0.000 A 
ATOM      2  C   UNL     1       2.153   6.448  17.898  0.00  0.00    +0.000 A 
ATOM      3  C   UNL     1       2.162   7.831  18.048  0.00  0.00    +0.000 A 
ATOM      4  C   UNL     1       2.105   8.385  19.319  0.00  0.00    +0.000 A 
ATOM      5  C   UNL     1       1.853   7.552  20.417  0.00  0.00    +0.000 A 
ATOM      6  C   UNL     1       2.064   6.175  20.275  0.00  0.00    +0.000 A 
ENDROOT
BRANCH   5   7
ATOM      7  N   UNL     1       0.955   8.001  21.481  0.00  0.00    +0.000 N 
ATOM      8  C   UNL     1      -0.414   8.184  20.928  0.00  0.00    +0.000 C 
ATOM      9  C   UNL     1      -0.339   9.590  20.416  0.00  0.00    +0.000 A 
ATOM     10  C   UNL     1      -0.705  10.083  19.175  0.00  0.00    +0.000 A 
ATOM     11  C   UNL     1      -0.119  11.283  18.750  0.00  0.00    +0.000 A 
ATOM     12  C   UNL     1       0.799  11.991  19.568  0.00  0.00    +0.000 A 
ATOM     13  C   UNL     1       1.115  11.498  20.845  0.00  0.00    +0.000 A 
ATOM     14  C   UNL     1       0.565  10.285  21.221  0.00  0.00    +0.000 A 
ATOM     15  C   UNL     1       1.272   9.269  22.042  0.00  0.00    +0.000 C 
ATOM     16  O   UNL     1       2.135   9.533  22.863  0.00  0.00    +0.000 OA
BRANCH  12  17
ATOM     17  C   UNL     1       1.558  13.184  19.036  0.00  0.00    +0.000 C 
ATOM     18  F   UNL     1       2.143  12.963  17.827  0.00  0.00    +0.000 F 
ATOM     19  F   UNL     1       0.770  14.281  18.881  0.00  0.00    +0.000 F 
ATOM     20  F   UNL     1       2.570  13.562  19.867  0.00  0.00    +0.000 F 
ENDBRANCH  12  17
ENDBRANCH   5   7
BRANCH   1  21
ATOM     21  C   UNL     1       2.501   4.015  18.833  0.00  0.00    +0.000 C 
ATOM     22  C   UNL     1       2.569   3.210  20.167  0.00  0.00    +0.000 C 
ATOM     23  O   UNL     1       1.544   2.298  19.727  0.00  0.00    +0.000 OA
ATOM     24  C   UNL     1       1.251   3.130  18.586  0.00  0.00    +0.000 C 
BRANCH  21  25
ATOM     25  C   UNL     1       3.724   3.673  17.960  0.00  0.00    +0.000 C 
BRANCH  25  31
ATOM     26  C   UNL     1       5.309   5.791  16.133  0.00  0.00    +0.000 C 
ATOM     27  N   UNL     1       5.653   5.280  17.431  0.00  0.00    +0.000 N 
ATOM     28  N   UNL     1       6.815   5.649  18.004  0.00  0.00    +0.000 NA
ATOM     29  N   UNL     1       6.891   4.955  19.126  0.00  0.00    +0.000 NA
ATOM     30  N   UNL     1       5.782   4.166  19.286  0.00  0.00    +0.000 NA
ATOM     31  C   UNL     1       5.001   4.389  18.246  0.00  0.00    +0.000 A 
ENDBRANCH  25  31
ENDBRANCH  21  25
ENDBRANCH   1  21
TORSDOF 5
ENDMDL
MODEL 3
REMARK VINA RESULT:      -8.5      9.269     11.793
REMARK  Name = 
REMARK  6 active torsions:
REMARK  status: ('A' for Active; 'I' for Inactive)
REMARK    1  A    between atoms: C_1  and  N_2
REMARK    2  A    between atoms: C_6  and  C_7
REMARK    3  A    between atoms: C_7  and  C_8
REMARK    4  A    between atoms: C_8  and  C_9
REMARK    5  A    between atoms: C_13  and  N_14
REMARK    6  A    between atoms: C_19  and  C_20
REMARK                            x       y       z     vdW  Elec       q    Type
REMARK                         _______ _______ _______ _____ _____    ______ ____
ROOT
ATOM      1  C   UNL     1      -3.651  11.279  18.119  0.00  0.00    +0.000 A 
ATOM      2  C   UNL     1      -3.603  10.586  16.892  0.00  0.00    +0.000 A 
ATOM      3  C   UNL     1      -2.499   9.825  16.522  0.00  0.00    +0.000 A 
ATOM      4  C   UNL     1      -1.356   9.843  17.308  0.00  0.00    +0.000 A 
ATOM      5  C   UNL     1      -1.264  10.766  18.359  0.00  0.00    +0.000 A 
ATOM      6  C   UNL     1      -2.442  11.352  18.841  0.00  0.00    +0.000 A 
ENDROOT
BRANCH   5   7
ATOM      7  N   UNL     1      -0.001  11.462  18.609  0.00  0.00    +0.000 N 
ATOM      8  C   UNL     1       0.793  10.697  19.607  0.00  0.00    +0.000 C 
ATOM      9  C   UNL     1       0.254  11.243  20.894  0.00  0.00    +0.000 A 
ATOM     10  C   UNL     1      -0.199  10.555  22.007  0.00  0.00    +0.000 A 
ATOM     11  C   UNL     1      -1.082  11.218  22.870  0.00  0.00    +0.000 A 
ATOM     12  C   UNL     1      -1.485  12.557  22.634  0.00  0.00    +0.000 A 
ATOM     13  C   UNL     1      -0.971  13.252  21.527  0.00  0.00    +0.000 A 
ATOM     14  C   UNL     1      -0.142  12.560  20.660  0.00  0.00    +0.000 A 
ATOM     15  C   UNL     1      -0.129  12.754  19.188  0.00  0.00    +0.000 C 
ATOM     16  O   UNL     1      -0.423  13.800  18.633  0.00  0.00    +0.000 OA
BRANCH  12  17
ATOM     17  C   UNL     1      -2.569  13.204  23.465  0.00  0.00    +0.000 C 
ATOM     18  F   UNL     1      -3.418  13.983  22.741  0.00  0.00    +0.000 F 
ATOM     19  F   UNL     1      -3.347  12.295  24.112  0.00  0.00    +0.000 F 
ATOM     20  F   UNL     1      -2.058  14.018  24.431  0.00  0.00    +0.000 F 
ENDBRANCH  12  17
ENDBRANCH   5   7
BRANCH   1  21
ATOM     21  C   UNL     1      -5.010  11.909  18.676  0.00  0.00    +0.000 C 
ATOM     22  C   UNL     1      -5.904  12.593  17.596  0.00  0.00    +0.000 C 
ATOM     23  O   UNL     1      -7.037  11.773  17.944  0.00  0.00    +0.000 OA
ATOM     24  C   UNL     1      -6.212  10.935  18.779  0.00  0.00    +0.000 C 
BRANCH  21  25
ATOM     25  C   UNL     1      -4.835  12.859  19.877  0.00  0.00    +0.000 C 
BRANCH  25  31
ATOM     26  C   UNL     1      -7.455  14.690  20.226  0.00  0.00    +0.000 C 
ATOM     27  N   UNL     1      -6.975  13.629  21.067  0.00  0.00    +0.000 N 
ATOM     28  N   UNL     1      -7.627  13.340  22.210  0.00  0.00    +0.000 NA
ATOM     29  N   UNL     1      -6.906  12.402  22.799  0.00  0.00    +0.000 NA
ATOM     30  N   UNL     1      -5.816  12.075  22.037  0.00  0.00    +0.000 NA
ATOM     31  C   UNL     1      -5.873  12.818  20.948  0.00  0.00    +0.000 A 
ENDBRANCH  25  31
ENDBRANCH  21  25
ENDBRANCH   1  21
TORSDOF 5
ENDMDL
MODEL 4
REMARK VINA RESULT:      -8.5      2.654      4.504
REMARK  Name = 
REMARK  6 active torsions:
REMARK  status: ('A' for Active; 'I' for Inactive)
REMARK    1  A    between atoms: C_1  and  N_2
REMARK    2  A    between atoms: C_6  and  C_7
REMARK    3  A    between atoms: C_7  and  C_8
REMARK    4  A    between atoms: C_8  and  C_9
REMARK    5  A    between atoms: C_13  and  N_14
REMARK    6  A    between atoms: C_19  and  C_20
REMARK                            x       y       z     vdW  Elec       q    Type
REMARK                         _______ _______ _______ _____ _____    ______ ____
ROOT
ATOM      1  C   UNL     1       1.615   8.064  19.831  0.00  0.00    +0.000 A 
ATOM      2  C   UNL     1       2.444   8.440  18.754  0.00  0.00    +0.000 A 
ATOM      3  C   UNL     1       2.772   7.553  17.734  0.00  0.00    +0.000 A 
ATOM      4  C   UNL     1       2.387   6.223  17.830  0.00  0.00    +0.000 A 
ATOM      5  C   UNL     1       1.840   5.755  19.032  0.00  0.00    +0.000 A 
ATOM      6  C   UNL     1       1.327   6.688  19.942  0.00  0.00    +0.000 A 
ENDROOT
BRANCH   5   7
ATOM      7  N   UNL     1       2.223   4.438  19.543  0.00  0.00    +0.000 N 
ATOM      8  C   UNL     1       3.465   4.565  20.351  0.00  0.00    +0.000 C 
ATOM      9  C   UNL     1       4.519   4.445  19.293  0.00  0.00    +0.000 A 
ATOM     10  C   UNL     1       5.614   5.259  19.061  0.00  0.00    +0.000 A 
ATOM     11  C   UNL     1       6.171   5.256  17.775  0.00  0.00    +0.000 A 
ATOM     12  C   UNL     1       5.654   4.429  16.745  0.00  0.00    +0.000 A 
ATOM     13  C   UNL     1       4.575   3.572  17.018  0.00  0.00    +0.000 A 
ATOM     14  C   UNL     1       4.008   3.632  18.280  0.00  0.00    +0.000 A 
ATOM     15  C   UNL     1       2.555   3.479  18.547  0.00  0.00    +0.000 C 
ATOM     16  O   UNL     1       1.796   2.824  17.852  0.00  0.00    +0.000 OA
BRANCH  12  17
ATOM     17  C   UNL     1       6.143   4.559  15.321  0.00  0.00    +0.000 C 
ATOM     18  F   UNL     1       5.352   5.350  14.544  0.00  0.00    +0.000 F 
ATOM     19  F   UNL     1       7.396   5.081  15.242  0.00  0.00    +0.000 F 
ATOM     20  F   UNL     1       6.195   3.356  14.684  0.00  0.00    +0.000 F 
ENDBRANCH  12  17
ENDBRANCH   5   7
BRANCH   1  21
ATOM     21  C   UNL     1       1.005   9.143  20.839  0.00  0.00    +0.000 C 
ATOM     22  C   UNL     1      -0.316   8.707  21.543  0.00  0.00    +0.000 C 
ATOM     23  O   UNL     1       0.248   8.932  22.850  0.00  0.00    +0.000 OA
ATOM     24  C   UNL     1       1.564   9.105  22.285  0.00  0.00    +0.000 C 
BRANCH  21  25
ATOM     25  C   UNL     1       0.833  10.554  20.245  0.00  0.00    +0.000 C 
BRANCH  25  31
ATOM     26  C   UNL     1      -1.774  12.267  21.026  0.00  0.00    +0.000 C 
ATOM     27  N   UNL     1      -1.492  11.550  19.813  0.00  0.00    +0.000 N 
ATOM     28  N   UNL     1      -2.426  11.494  18.843  0.00  0.00    +0.000 NA
ATOM     29  N   UNL     1      -1.920  10.702  17.914  0.00  0.00    +0.000 NA
ATOM     30  N   UNL     1      -0.668  10.272  18.269  0.00  0.00    +0.000 NA
ATOM     31  C   UNL     1      -0.393  10.821  19.437  0.00  0.00    +0.000 A 
ENDBRANCH  25  31
ENDBRANCH  21  25
ENDBRANCH   1  21
TORSDOF 5
ENDMDL
MODEL 5
REMARK VINA RESULT:      -8.4      2.842      4.691
REMARK  Name = 
REMARK  6 active torsions:
REMARK  status: ('A' for Active; 'I' for Inactive)
REMARK    1  A    between atoms: C_1  and  N_2
REMARK    2  A    between atoms: C_6  and  C_7
REMARK    3  A    between atoms: C_7  and  C_8
REMARK    4  A    between atoms: C_8  and  C_9
REMARK    5  A    between atoms: C_13  and  N_14
REMARK    6  A    between atoms: C_19  and  C_20
REMARK                            x       y       z     vdW  Elec       q    Type
REMARK                         _______ _______ _______ _____ _____    ______ ____
ROOT
ATOM      1  C   UNL     1       1.532   8.074  19.856  0.00  0.00    +0.000 A 
ATOM      2  C   UNL     1       2.408   8.481  18.828  0.00  0.00    +0.000 A 
ATOM      3  C   UNL     1       2.802   7.614  17.813  0.00  0.00    +0.000 A 
ATOM      4  C   UNL     1       2.438   6.277  17.872  0.00  0.00    +0.000 A 
ATOM      5  C   UNL     1       1.840   5.782  19.039  0.00  0.00    +0.000 A 
ATOM      6  C   UNL     1       1.265   6.692  19.934  0.00  0.00    +0.000 A 
ENDROOT
BRANCH   5   7
ATOM      7  N   UNL     1       2.221   4.465  19.550  0.00  0.00    +0.000 N 
ATOM      8  C   UNL     1       3.462   4.591  20.361  0.00  0.00    +0.000 C 
ATOM      9  C   UNL     1       4.517   4.470  19.305  0.00  0.00    +0.000 A 
ATOM     10  C   UNL     1       5.614   5.284  19.076  0.00  0.00    +0.000 A 
ATOM     11  C   UNL     1       6.173   5.280  17.791  0.00  0.00    +0.000 A 
ATOM     12  C   UNL     1       5.658   4.454  16.760  0.00  0.00    +0.000 A 
ATOM     13  C   UNL     1       4.578   3.597  17.030  0.00  0.00    +0.000 A 
ATOM     14  C   UNL     1       4.008   3.657  18.291  0.00  0.00    +0.000 A 
ATOM     15  C   UNL     1       2.555   3.505  18.555  0.00  0.00    +0.000 C 
ATOM     16  O   UNL     1       1.797   2.851  17.858  0.00  0.00    +0.000 OA
BRANCH  12  17
ATOM     17  C   UNL     1       6.151   4.584  15.337  0.00  0.00    +0.000 C 
ATOM     18  F   UNL     1       5.455   5.493  14.601  0.00  0.00    +0.000 F 
ATOM     19  F   UNL     1       7.456   4.957  15.265  0.00  0.00    +0.000 F 
ATOM     20  F   UNL     1       6.056   3.410  14.651  0.00  0.00    +0.000 F 
ENDBRANCH  12  17
ENDBRANCH   5   7
BRANCH   1  21
ATOM     21  C   UNL     1       0.853   9.128  20.847  0.00  0.00    +0.000 C 
ATOM     22  C   UNL     1      -0.335   8.565  21.686  0.00  0.00    +0.000 C 
ATOM     23  O   UNL     1       0.290   8.957  22.924  0.00  0.00    +0.000 OA
ATOM     24  C   UNL     1       1.520   9.270  22.239  0.00  0.00    +0.000 C 
BRANCH  21  25
ATOM     25  C   UNL     1       0.435  10.456  20.186  0.00  0.00    +0.000 C 
BRANCH  25  31
ATOM     26  C   UNL     1      -1.454  12.038  22.253  0.00  0.00    +0.000 C 
ATOM     27  N   UNL     1      -0.130  12.369  21.801  0.00  0.00    +0.000 N 
ATOM     28  N   UNL     1       0.444  13.517  22.211  0.00  0.00    +0.000 NA
ATOM     29  N   UNL     1       1.595  13.585  21.564  0.00  0.00    +0.000 NA
ATOM     30  N   UNL     1       1.770  12.486  20.766  0.00  0.00    +0.000 NA
ATOM     31  C   UNL     1       0.710  11.718  20.933  0.00  0.00    +0.000 A 
ENDBRANCH  25  31
ENDBRANCH  21  25
ENDBRANCH   1  21
TORSDOF 5
ENDMDL
MODEL 6
REMARK VINA RESULT:      -8.3      2.741      4.535
REMARK  Name = 
REMARK  6 active torsions:
REMARK  status: ('A' for Active; 'I' for Inactive)
REMARK    1  A    between atoms: C_1  and  N_2
REMARK    2  A    between atoms: C_6  and  C_7
REMARK    3  A    between atoms: C_7  and  C_8
REMARK    4  A    between atoms: C_8  and  C_9
REMARK    5  A    between atoms: C_13  and  N_14
REMARK    6  A    between atoms: C_19  and  C_20
REMARK                            x       y       z     vdW  Elec       q    Type
REMARK                         _______ _______ _______ _____ _____    ______ ____
ROOT
ATOM      1  C   UNL     1       1.642   8.003  19.821  0.00  0.00    +0.000 A 
ATOM      2  C   UNL     1       2.380   8.368  18.676  0.00  0.00    +0.000 A 
ATOM      3  C   UNL     1       2.692   7.449  17.680  0.00  0.00    +0.000 A 
ATOM      4  C   UNL     1       2.389   6.108  17.863  0.00  0.00    +0.000 A 
ATOM      5  C   UNL     1       1.945   5.673  19.119  0.00  0.00    +0.000 A 
ATOM      6  C   UNL     1       1.439   6.622  20.016  0.00  0.00    +0.000 A 
ENDROOT
BRANCH   5   7
ATOM      7  N   UNL     1       2.432   4.405  19.665  0.00  0.00    +0.000 N 
ATOM      8  C   UNL     1       3.706   4.640  20.397  0.00  0.00    +0.000 C 
ATOM      9  C   UNL     1       4.707   4.531  19.288  0.00  0.00    +0.000 A 
ATOM     10  C   UNL     1       5.738   5.395  18.962  0.00  0.00    +0.000 A 
ATOM     11  C   UNL     1       6.226   5.363  17.648  0.00  0.00    +0.000 A 
ATOM     12  C   UNL     1       5.706   4.461  16.685  0.00  0.00    +0.000 A 
ATOM     13  C   UNL     1       4.695   3.557  17.054  0.00  0.00    +0.000 A 
ATOM     14  C   UNL     1       4.193   3.644  18.342  0.00  0.00    +0.000 A 
ATOM     15  C   UNL     1       2.768   3.421  18.696  0.00  0.00    +0.000 C 
ATOM     16  O   UNL     1       2.014   2.691  18.073  0.00  0.00    +0.000 OA
BRANCH  12  17
ATOM     17  C   UNL     1       6.111   4.552  15.232  0.00  0.00    +0.000 C 
ATOM     18  F   UNL     1       7.376   5.019  15.048  0.00  0.00    +0.000 F 
ATOM     19  F   UNL     1       6.052   3.353  14.594  0.00  0.00    +0.000 F 
ATOM     20  F   UNL     1       5.305   5.394  14.525  0.00  0.00    +0.000 F 
ENDBRANCH  12  17
ENDBRANCH   5   7
BRANCH   1  21
ATOM     21  C   UNL     1       1.038   9.099  20.816  0.00  0.00    +0.000 C 
ATOM     22  C   UNL     1      -0.314   8.700  21.484  0.00  0.00    +0.000 C 
ATOM     23  O   UNL     1       0.222   8.907  22.806  0.00  0.00    +0.000 OA
ATOM     24  C   UNL     1       1.557   9.042  22.276  0.00  0.00    +0.000 C 
BRANCH  21  25
ATOM     25  C   UNL     1       0.922  10.515  20.220  0.00  0.00    +0.000 C 
BRANCH  25  31
ATOM     26  C   UNL     1      -1.094  10.048  17.760  0.00  0.00    +0.000 C 
ATOM     27  N   UNL     1      -1.274  10.853  18.936  0.00  0.00    +0.000 N 
ATOM     28  N   UNL     1      -2.394  11.590  19.073  0.00  0.00    +0.000 NA
ATOM     29  N   UNL     1      -2.227  12.280  20.188  0.00  0.00    +0.000 NA
ATOM     30  N   UNL     1      -1.027  11.975  20.774  0.00  0.00    +0.000 NA
ATOM     31  C   UNL     1      -0.447  11.069  20.010  0.00  0.00    +0.000 A 
ENDBRANCH  25  31
ENDBRANCH  21  25
ENDBRANCH   1  21
TORSDOF 5
ENDMDL
MODEL 7
REMARK VINA RESULT:      -8.2      5.284      8.428
REMARK  Name = 
REMARK  6 active torsions:
REMARK  status: ('A' for Active; 'I' for Inactive)
REMARK    1  A    between atoms: C_1  and  N_2
REMARK    2  A    between atoms: C_6  and  C_7
REMARK    3  A    between atoms: C_7  and  C_8
REMARK    4  A    between atoms: C_8  and  C_9
REMARK    5  A    between atoms: C_13  and  N_14
REMARK    6  A    between atoms: C_19  and  C_20
REMARK                            x       y       z     vdW  Elec       q    Type
REMARK                         _______ _______ _______ _____ _____    ______ ____
ROOT
ATOM      1  C   UNL     1       2.041   7.413  19.614  0.00  0.00    +0.000 A 
ATOM      2  C   UNL     1       1.689   7.052  20.931  0.00  0.00    +0.000 A 
ATOM      3  C   UNL     1       0.826   7.827  21.699  0.00  0.00    +0.000 A 
ATOM      4  C   UNL     1       0.394   9.055  21.219  0.00  0.00    +0.000 A 
ATOM      5  C   UNL     1       0.978   9.578  20.057  0.00  0.00    +0.000 A 
ATOM      6  C   UNL     1       1.663   8.707  19.201  0.00  0.00    +0.000 A 
ENDROOT
BRANCH   5   7
ATOM      7  N   UNL     1       1.294  11.005  19.979  0.00  0.00    +0.000 N 
ATOM      8  C   UNL     1       0.371  11.764  20.864  0.00  0.00    +0.000 C 
ATOM      9  C   UNL     1      -0.795  11.988  19.951  0.00  0.00    +0.000 A 
ATOM     10  C   UNL     1      -2.140  11.759  20.187  0.00  0.00    +0.000 A 
ATOM     11  C   UNL     1      -2.976  11.576  19.078  0.00  0.00    +0.000 A 
ATOM     12  C   UNL     1      -2.478  11.648  17.752  0.00  0.00    +0.000 A 
ATOM     13  C   UNL     1      -1.119  11.934  17.536  0.00  0.00    +0.000 A 
ATOM     14  C   UNL     1      -0.302  12.058  18.647  0.00  0.00    +0.000 A 
ATOM     15  C   UNL     1       1.108  11.595  18.699  0.00  0.00    +0.000 C 
ATOM     16  O   UNL     1       1.844  11.531  17.728  0.00  0.00    +0.000 OA
BRANCH  12  17
ATOM     17  C   UNL     1      -3.344  11.278  16.571  0.00  0.00    +0.000 C 
ATOM     18  F   UNL     1      -3.818  10.002  16.622  0.00  0.00    +0.000 F 
ATOM     19  F   UNL     1      -4.433  12.082  16.446  0.00  0.00    +0.000 F 
ATOM     20  F   UNL     1      -2.670  11.370  15.390  0.00  0.00    +0.000 F 
ENDBRANCH  12  17
ENDBRANCH   5   7
BRANCH   1  21
ATOM     21  C   UNL     1       2.789   6.395  18.636  0.00  0.00    +0.000 C 
ATOM     22  C   UNL     1       3.751   7.064  17.607  0.00  0.00    +0.000 C 
ATOM     23  O   UNL     1       4.863   6.261  18.050  0.00  0.00    +0.000 OA
ATOM     24  C   UNL     1       4.105   5.782  19.180  0.00  0.00    +0.000 C 
BRANCH  21  25
ATOM     25  C   UNL     1       1.862   5.403  17.906  0.00  0.00    +0.000 C 
BRANCH  25  31
ATOM     26  C   UNL     1       1.028   3.472  20.338  0.00  0.00    +0.000 C 
ATOM     27  N   UNL     1       1.765   3.158  19.145  0.00  0.00    +0.000 N 
ATOM     28  N   UNL     1       2.258   1.916  18.977  0.00  0.00    +0.000 NA
ATOM     29  N   UNL     1       2.953   1.962  17.853  0.00  0.00    +0.000 NA
ATOM     30  N   UNL     1       2.890   3.211  17.293  0.00  0.00    +0.000 NA
ATOM     31  C   UNL     1       2.130   3.946  18.082  0.00  0.00    +0.000 A 
ENDBRANCH  25  31
ENDBRANCH  21  25
ENDBRANCH   1  21
TORSDOF 5
ENDMDL
MODEL 8
REMARK VINA RESULT:      -8.1      2.765      4.634
REMARK  Name = 
REMARK  6 active torsions:
REMARK  status: ('A' for Active; 'I' for Inactive)
REMARK    1  A    between atoms: C_1  and  N_2
REMARK    2  A    between atoms: C_6  and  C_7
REMARK    3  A    between atoms: C_7  and  C_8
REMARK    4  A    between atoms: C_8  and  C_9
REMARK    5  A    between atoms: C_13  and  N_14
REMARK    6  A    between atoms: C_19  and  C_20
REMARK                            x       y       z     vdW  Elec       q    Type
REMARK                         _______ _______ _______ _____ _____    ______ ____
ROOT
ATOM      1  C   UNL     1       1.542   8.082  19.780  0.00  0.00    +0.000 A 
ATOM      2  C   UNL     1       2.415   8.498  18.754  0.00  0.00    +0.000 A 
ATOM      3  C   UNL     1       2.823   7.635  17.741  0.00  0.00    +0.000 A 
ATOM      4  C   UNL     1       2.474   6.294  17.800  0.00  0.00    +0.000 A 
ATOM      5  C   UNL     1       1.878   5.793  18.965  0.00  0.00    +0.000 A 
ATOM      6  C   UNL     1       1.290   6.697  19.859  0.00  0.00    +0.000 A 
ENDROOT
BRANCH   5   7
ATOM      7  N   UNL     1       2.273   4.481  19.479  0.00  0.00    +0.000 N 
ATOM      8  C   UNL     1       3.518   4.619  20.281  0.00  0.00    +0.000 C 
ATOM      9  C   UNL     1       4.568   4.503  19.219  0.00  0.00    +0.000 A 
ATOM     10  C   UNL     1       5.656   5.325  18.980  0.00  0.00    +0.000 A 
ATOM     11  C   UNL     1       6.207   5.321  17.691  0.00  0.00    +0.000 A 
ATOM     12  C   UNL     1       5.692   4.487  16.666  0.00  0.00    +0.000 A 
ATOM     13  C   UNL     1       4.620   3.623  16.947  0.00  0.00    +0.000 A 
ATOM     14  C   UNL     1       4.059   3.683  18.211  0.00  0.00    +0.000 A 
ATOM     15  C   UNL     1       2.608   3.520  18.486  0.00  0.00    +0.000 C 
ATOM     16  O   UNL     1       1.851   2.857  17.796  0.00  0.00    +0.000 OA
BRANCH  12  17
ATOM     17  C   UNL     1       6.174   4.615  15.240  0.00  0.00    +0.000 C 
ATOM     18  F   UNL     1       5.312   5.294  14.433  0.00  0.00    +0.000 F 
ATOM     19  F   UNL     1       7.368   5.258  15.145  0.00  0.00    +0.000 F 
ATOM     20  F   UNL     1       6.351   3.401  14.646  0.00  0.00    +0.000 F 
ENDBRANCH  12  17
ENDBRANCH   5   7
BRANCH   1  21
ATOM     21  C   UNL     1       0.847   9.128  20.768  0.00  0.00    +0.000 C 
ATOM     22  C   UNL     1      -0.216   8.513  21.729  0.00  0.00    +0.000 C 
ATOM     23  O   UNL     1       0.464   9.031  22.890  0.00  0.00    +0.000 OA
ATOM     24  C   UNL     1       1.604   9.409  22.092  0.00  0.00    +0.000 C 
BRANCH  21  25
ATOM     25  C   UNL     1       0.259  10.374  20.077  0.00  0.00    +0.000 C 
BRANCH  25  31
ATOM     26  C   UNL     1       2.302  12.132  18.323  0.00  0.00    +0.000 C 
ATOM     27  N   UNL     1       1.752  12.411  19.620  0.00  0.00    +0.000 N 
ATOM     28  N   UNL     1       2.144  13.516  20.284  0.00  0.00    +0.000 NA
ATOM     29  N   UNL     1       1.548  13.449  21.462  0.00  0.00    +0.000 NA
ATOM     30  N   UNL     1       0.766  12.327  21.549  0.00  0.00    +0.000 NA
ATOM     31  C   UNL     1       0.873  11.696  20.395  0.00  0.00    +0.000 A 
ENDBRANCH  25  31
ENDBRANCH  21  25
ENDBRANCH   1  21
TORSDOF 5
ENDMDL
MODEL 9
REMARK VINA RESULT:      -8.1      6.616      9.309
REMARK  Name = 
REMARK  6 active torsions:
REMARK  status: ('A' for Active; 'I' for Inactive)
REMARK    1  A    between atoms: C_1  and  N_2
REMARK    2  A    between atoms: C_6  and  C_7
REMARK    3  A    between atoms: C_7  and  C_8
REMARK    4  A    between atoms: C_8  and  C_9
REMARK    5  A    between atoms: C_13  and  N_14
REMARK    6  A    between atoms: C_19  and  C_20
REMARK                            x       y       z     vdW  Elec       q    Type
REMARK                         _______ _______ _______ _____ _____    ______ ____
ROOT
ATOM      1  C   UNL     1      -3.519  11.296  18.323  0.00  0.00    +0.000 A 
ATOM      2  C   UNL     1      -3.191  10.838  17.031  0.00  0.00    +0.000 A 
ATOM      3  C   UNL     1      -2.016  10.136  16.776  0.00  0.00    +0.000 A 
ATOM      4  C   UNL     1      -1.072   9.989  17.782  0.00  0.00    +0.000 A 
ATOM      5  C   UNL     1      -1.230  10.703  18.977  0.00  0.00    +0.000 A 
ATOM      6  C   UNL     1      -2.496  11.213  19.291  0.00  0.00    +0.000 A 
ENDROOT
BRANCH   5   7
ATOM      7  N   UNL     1      -0.066  11.317  19.618  0.00  0.00    +0.000 N 
ATOM      8  C   UNL     1       1.042  11.423  18.631  0.00  0.00    +0.000 C 
ATOM      9  C   UNL     1       1.691  10.080  18.771  0.00  0.00    +0.000 A 
ATOM     10  C   UNL     1       2.047   9.180  17.780  0.00  0.00    +0.000 A 
ATOM     11  C   UNL     1       2.183   7.833  18.140  0.00  0.00    +0.000 A 
ATOM     12  C   UNL     1       1.989   7.398  19.476  0.00  0.00    +0.000 A 
ATOM     13  C   UNL     1       1.679   8.337  20.474  0.00  0.00    +0.000 A 
ATOM     14  C   UNL     1       1.499   9.653  20.086  0.00  0.00    +0.000 A 
ATOM     15  C   UNL     1       0.496  10.569  20.689  0.00  0.00    +0.000 C 
ATOM     16  O   UNL     1       0.095  10.483  21.838  0.00  0.00    +0.000 OA
BRANCH  12  17
ATOM     17  C   UNL     1       1.963   5.927  19.822  0.00  0.00    +0.000 C 
ATOM     18  F   UNL     1       3.144   5.463  20.316  0.00  0.00    +0.000 F 
ATOM     19  F   UNL     1       1.017   5.622  20.749  0.00  0.00    +0.000 F 
ATOM     20  F   UNL     1       1.690   5.149  18.736  0.00  0.00    +0.000 F 
ENDBRANCH  12  17
ENDBRANCH   5   7
BRANCH   1  21
ATOM     21  C   UNL     1      -4.979  11.839  18.677  0.00  0.00    +0.000 C 
ATOM     22  C   UNL     1      -5.862  12.194  17.441  0.00  0.00    +0.000 C 
ATOM     23  O   UNL     1      -6.916  11.315  17.880  0.00  0.00    +0.000 OA
ATOM     24  C   UNL     1      -6.065  10.756  18.902  0.00  0.00    +0.000 C 
BRANCH  21  25
ATOM     25  C   UNL     1      -5.006  13.007  19.683  0.00  0.00    +0.000 C 
BRANCH  25  31
ATOM     26  C   UNL     1      -7.894  13.058  21.094  0.00  0.00    +0.000 C 
ATOM     27  N   UNL     1      -6.614  12.740  21.665  0.00  0.00    +0.000 N 
ATOM     28  N   UNL     1      -6.522  12.471  22.981  0.00  0.00    +0.000 NA
ATOM     29  N   UNL     1      -5.231  12.314  23.219  0.00  0.00    +0.000 NA
ATOM     30  N   UNL     1      -4.503  12.456  22.067  0.00  0.00    +0.000 NA
ATOM     31  C   UNL     1      -5.366  12.695  21.097  0.00  0.00    +0.000 A 
ENDBRANCH  25  31
ENDBRANCH  21  25
ENDBRANCH   1  21
TORSDOF 5
ENDMDL
