MODEL 1
REMARK VINA RESULT:      -9.0      0.000      0.000
REMARK  Name = 
REMARK  5 active torsions:
REMARK  status: ('A' for Active; 'I' for Inactive)
REMARK    1  A    between atoms: C_2  and  C_14
REMARK    2  A    between atoms: N_3  and  C_4
REMARK    3  A    between atoms: C_4  and  C_5
REMARK    4  A    between atoms: C_18  and  C_19
REMARK    5  A    between atoms: N_22  and  C_23
REMARK                            x       y       z     vdW  Elec       q    Type
REMARK                         _______ _______ _______ _____ _____    ______ ____
ROOT
ATOM      1  C   UNL     1       1.369   3.714  19.579  0.00  0.00    +0.000 C 
ATOM      2  C   UNL     1       1.277   2.377  20.281  0.00  0.00    +0.000 C 
ATOM      3  C   UNL     1       1.297   2.774  21.740  0.00  0.00    +0.000 C 
ATOM      4  O   UNL     1       2.060   3.978  21.840  0.00  0.00    +0.000 OA
ATOM      5  C   UNL     1       2.283   4.505  20.511  0.00  0.00    +0.000 C 
ENDROOT
BRANCH   5   6
ATOM      6  C   UNL     1       1.995   5.965  20.451  0.00  0.00    +0.000 A 
ATOM      7  C   UNL     1       2.506   6.921  19.556  0.00  0.00    +0.000 A 
ATOM      8  N   UNL     1       1.983   8.134  19.744  0.00  0.00    +0.000 NA
ATOM      9  N   UNL     1       1.128   7.987  20.794  0.00  0.00    +0.000 N 
ATOM     10  C   UNL     1       1.120   6.686  21.233  0.00  0.00    +0.000 A 
BRANCH   9  11
ATOM     11  C   UNL     1       0.359   9.082  21.267  0.00  0.00    +0.000 A 
ATOM     12  C   UNL     1       0.130   9.227  22.646  0.00  0.00    +0.000 A 
ATOM     13  C   UNL     1      -0.597  10.318  23.131  0.00  0.00    +0.000 A 
ATOM     14  C   UNL     1      -1.108  11.269  22.250  0.00  0.00    +0.000 A 
ATOM     15  C   UNL     1      -0.896  11.126  20.881  0.00  0.00    +0.000 A 
ATOM     16  C   UNL     1      -0.169  10.040  20.397  0.00  0.00    +0.000 A 
ATOM     17  F   UNL     1      -0.012   9.968  19.068  0.00  0.00    +0.000 F 
ENDBRANCH   9  11
ENDBRANCH   5   6
BRANCH   1  19
ATOM     18  O   UNL     1       1.382   3.978  17.185  0.00  0.00    +0.000 OA
ATOM     19  C   UNL     1       1.965   3.592  18.195  0.00  0.00    +0.000 C 
ATOM     20  N   UNL     1       3.238   3.069  18.170  0.00  0.00    +0.000 N 
ATOM     21  H   UNL     1       3.590   2.589  18.987  0.00  0.00    +0.000 HD
BRANCH  20  22
ATOM     22  C   UNL     1       3.922   2.840  16.915  0.00  0.00    +0.000 C 
BRANCH  22  23
ATOM     23  C   UNL     1       5.010   3.856  16.672  0.00  0.00    +0.000 A 
ATOM     24  C   UNL     1       5.811   3.771  15.508  0.00  0.00    +0.000 A 
ATOM     25  C   UNL     1       6.821   4.705  15.255  0.00  0.00    +0.000 A 
ATOM     26  C   UNL     1       7.017   5.703  16.183  0.00  0.00    +0.000 A 
ATOM     27  C   UNL     1       6.255   5.787  17.324  0.00  0.00    +0.000 A 
ATOM     28  C   UNL     1       5.250   4.882  17.601  0.00  0.00    +0.000 A 
ATOM     29  O   UNL     1       6.609   6.842  18.106  0.00  0.00    +0.000 OA
ATOM     30  C   UNL     1       7.697   7.396  17.337  0.00  0.00    +0.000 C 
ATOM     31  O   UNL     1       7.943   6.694  16.102  0.00  0.00    +0.000 OA
ENDBRANCH  22  23
ENDBRANCH  20  22
ENDBRANCH   1  19
TORSDOF 5
ENDMDL
MODEL 2
REMARK VINA RESULT:      -8.6      0.850      1.217
REMARK  Name = 
REMARK  5 active torsions:
REMARK  status: ('A' for Active; 'I' for Inactive)
REMARK    1  A    between atoms: C_2  and  C_14
REMARK    2  A    between atoms: N_3  and  C_4
REMARK    3  A    between atoms: C_4  and  C_5
REMARK    4  A    between atoms: C_18  and  C_19
REMARK    5  A    between atoms: N_22  and  C_23
REMARK                            x       y       z     vdW  Elec       q    Type
REMARK                         _______ _______ _______ _____ _____    ______ ____
ROOT
ATOM      1  C   UNL     1       1.398   3.778  19.575  0.00  0.00    +0.000 C 
ATOM      2  C   UNL     1       1.284   2.478  20.342  0.00  0.00    +0.000 C 
ATOM      3  C   UNL     1       1.275   2.949  21.779  0.00  0.00    +0.000 C 
ATOM      4  O   UNL     1       2.044   4.153  21.834  0.00  0.00    +0.000 OA
ATOM      5  C   UNL     1       2.297   4.611  20.485  0.00  0.00    +0.000 C 
ENDROOT
BRANCH   5   6
ATOM      6  C   UNL     1       2.018   6.067  20.346  0.00  0.00    +0.000 A 
ATOM      7  C   UNL     1       2.539   6.971  19.402  0.00  0.00    +0.000 A 
ATOM      8  N   UNL     1       2.023   8.195  19.522  0.00  0.00    +0.000 NA
ATOM      9  N   UNL     1       1.162   8.110  20.575  0.00  0.00    +0.000 N 
ATOM     10  C   UNL     1       1.145   6.834  21.083  0.00  0.00    +0.000 A 
BRANCH   9  11
ATOM     11  C   UNL     1       0.399   9.234  20.986  0.00  0.00    +0.000 A 
ATOM     12  C   UNL     1      -0.287   9.996  20.024  0.00  0.00    +0.000 A 
ATOM     13  C   UNL     1      -1.071  11.086  20.415  0.00  0.00    +0.000 A 
ATOM     14  C   UNL     1      -1.174  11.430  21.761  0.00  0.00    +0.000 A 
ATOM     15  C   UNL     1      -0.487  10.687  22.718  0.00  0.00    +0.000 A 
ATOM     16  C   UNL     1       0.292   9.599  22.330  0.00  0.00    +0.000 A 
ATOM     17  F   UNL     1       0.927   8.937  23.307  0.00  0.00    +0.000 F 
ENDBRANCH   9  11
ENDBRANCH   5   6
BRANCH   1  19
ATOM     18  O   UNL     1       1.455   3.905  17.171  0.00  0.00    +0.000 OA
ATOM     19  C   UNL     1       2.021   3.583  18.212  0.00  0.00    +0.000 C 
ATOM     20  N   UNL     1       3.300   3.072  18.242  0.00  0.00    +0.000 N 
ATOM     21  H   UNL     1       3.640   2.643  19.091  0.00  0.00    +0.000 HD
BRANCH  20  22
ATOM     22  C   UNL     1       4.009   2.778  17.014  0.00  0.00    +0.000 C 
BRANCH  22  23
ATOM     23  C   UNL     1       5.072   3.808  16.718  0.00  0.00    +0.000 A 
ATOM     24  C   UNL     1       5.828   3.722  15.524  0.00  0.00    +0.000 A 
ATOM     25  C   UNL     1       6.813   4.667  15.221  0.00  0.00    +0.000 A 
ATOM     26  C   UNL     1       7.028   5.679  16.130  0.00  0.00    +0.000 A 
ATOM     27  C   UNL     1       6.311   5.765  17.299  0.00  0.00    +0.000 A 
ATOM     28  C   UNL     1       5.332   4.848  17.625  0.00  0.00    +0.000 A 
ATOM     29  O   UNL     1       6.679   6.834  18.055  0.00  0.00    +0.000 OA
ATOM     30  C   UNL     1       7.728   7.396  17.237  0.00  0.00    +0.000 C 
ATOM     31  O   UNL     1       7.936   6.683  16.001  0.00  0.00    +0.000 OA
ENDBRANCH  22  23
ENDBRANCH  20  22
ENDBRANCH   1  19
TORSDOF 5
ENDMDL
MODEL 3
REMARK VINA RESULT:      -8.4      1.486      2.008
REMARK  Name = 
REMARK  5 active torsions:
REMARK  status: ('A' for Active; 'I' for Inactive)
REMARK    1  A    between atoms: C_2  and  C_14
REMARK    2  A    between atoms: N_3  and  C_4
REMARK    3  A    between atoms: C_4  and  C_5
REMARK    4  A    between atoms: C_18  and  C_19
REMARK    5  A    between atoms: N_22  and  C_23
REMARK                            x       y       z     vdW  Elec       q    Type
REMARK                         _______ _______ _______ _____ _____    ______ ____
ROOT
ATOM      1  C   UNL     1       2.501   3.509  18.336  0.00  0.00    +0.000 C 
ATOM      2  C   UNL     1       1.814   2.161  18.348  0.00  0.00    +0.000 C 
ATOM      3  C   UNL     1       0.609   2.418  19.225  0.00  0.00    +0.000 C 
ATOM      4  O   UNL     1       0.977   3.433  20.162  0.00  0.00    +0.000 OA
ATOM      5  C   UNL     1       2.235   4.019  19.750  0.00  0.00    +0.000 C 
ENDROOT
BRANCH   5   6
ATOM      6  C   UNL     1       2.180   5.506  19.796  0.00  0.00    +0.000 A 
ATOM      7  C   UNL     1       2.877   6.432  18.997  0.00  0.00    +0.000 A 
ATOM      8  N   UNL     1       2.540   7.696  19.261  0.00  0.00    +0.000 NA
ATOM      9  N   UNL     1       1.622   7.611  20.265  0.00  0.00    +0.000 N 
ATOM     10  C   UNL     1       1.391   6.298  20.599  0.00  0.00    +0.000 A 
BRANCH   9  11
ATOM     11  C   UNL     1       1.011   8.777  20.795  0.00  0.00    +0.000 A 
ATOM     12  C   UNL     1       0.758   8.863  22.174  0.00  0.00    +0.000 A 
ATOM     13  C   UNL     1       0.186  10.018  22.717  0.00  0.00    +0.000 A 
ATOM     14  C   UNL     1      -0.143  11.092  21.893  0.00  0.00    +0.000 A 
ATOM     15  C   UNL     1       0.093  11.009  20.523  0.00  0.00    +0.000 A 
ATOM     16  C   UNL     1       0.665   9.860  19.982  0.00  0.00    +0.000 A 
ATOM     17  F   UNL     1       0.856   9.852  18.655  0.00  0.00    +0.000 F 
ENDBRANCH   9  11
ENDBRANCH   5   6
BRANCH   1  19
ATOM     18  O   UNL     1       4.763   2.862  18.848  0.00  0.00    +0.000 OA
ATOM     19  C   UNL     1       3.983   3.392  18.062  0.00  0.00    +0.000 C 
ATOM     20  N   UNL     1       4.371   3.875  16.832  0.00  0.00    +0.000 N 
ATOM     21  H   UNL     1       3.741   4.473  16.316  0.00  0.00    +0.000 HD
BRANCH  20  22
ATOM     22  C   UNL     1       5.767   3.884  16.446  0.00  0.00    +0.000 C 
BRANCH  22  23
ATOM     23  C   UNL     1       6.535   4.985  17.135  0.00  0.00    +0.000 A 
ATOM     24  C   UNL     1       7.316   4.694  18.279  0.00  0.00    +0.000 A 
ATOM     25  C   UNL     1       8.044   5.694  18.931  0.00  0.00    +0.000 A 
ATOM     26  C   UNL     1       7.967   6.973  18.427  0.00  0.00    +0.000 A 
ATOM     27  C   UNL     1       7.201   7.270  17.325  0.00  0.00    +0.000 A 
ATOM     28  C   UNL     1       6.473   6.305  16.659  0.00  0.00    +0.000 A 
ATOM     29  O   UNL     1       7.261   8.587  16.993  0.00  0.00    +0.000 OA
ATOM     30  C   UNL     1       8.134   9.089  18.028  0.00  0.00    +0.000 C 
ATOM     31  O   UNL     1       8.607   8.064  18.926  0.00  0.00    +0.000 OA
ENDBRANCH  22  23
ENDBRANCH  20  22
ENDBRANCH   1  19
TORSDOF 5
ENDMDL
MODEL 4
REMARK VINA RESULT:      -8.3      3.395      5.861
REMARK  Name = 
REMARK  5 active torsions:
REMARK  status: ('A' for Active; 'I' for Inactive)
REMARK    1  A    between atoms: C_2  and  C_14
REMARK    2  A    between atoms: N_3  and  C_4
REMARK    3  A    between atoms: C_4  and  C_5
REMARK    4  A    between atoms: C_18  and  C_19
REMARK    5  A    between atoms: N_22  and  C_23
REMARK                            x       y       z     vdW  Elec       q    Type
REMARK                         _______ _______ _______ _____ _____    ______ ____
ROOT
ATOM      1  C   UNL     1       6.366   5.821  16.309  0.00  0.00    +0.000 C 
ATOM      2  C   UNL     1       7.053   5.144  15.144  0.00  0.00    +0.000 C 
ATOM      3  C   UNL     1       5.921   4.376  14.500  0.00  0.00    +0.000 C 
ATOM      4  O   UNL     1       5.000   4.033  15.537  0.00  0.00    +0.000 OA
ATOM      5  C   UNL     1       5.342   4.771  16.733  0.00  0.00    +0.000 C 
ENDROOT
BRANCH   5   6
ATOM      6  C   UNL     1       4.139   5.396  17.348  0.00  0.00    +0.000 A 
ATOM      7  C   UNL     1       2.960   4.772  17.795  0.00  0.00    +0.000 A 
ATOM      8  N   UNL     1       2.106   5.627  18.359  0.00  0.00    +0.000 NA
ATOM      9  N   UNL     1       2.715   6.843  18.265  0.00  0.00    +0.000 N 
ATOM     10  C   UNL     1       3.942   6.723  17.661  0.00  0.00    +0.000 A 
BRANCH   9  11
ATOM     11  C   UNL     1       2.102   8.008  18.794  0.00  0.00    +0.000 A 
ATOM     12  C   UNL     1       1.963   9.148  17.984  0.00  0.00    +0.000 A 
ATOM     13  C   UNL     1       1.331  10.293  18.479  0.00  0.00    +0.000 A 
ATOM     14  C   UNL     1       0.839  10.316  19.782  0.00  0.00    +0.000 A 
ATOM     15  C   UNL     1       0.984   9.195  20.595  0.00  0.00    +0.000 A 
ATOM     16  C   UNL     1       1.611   8.052  20.102  0.00  0.00    +0.000 A 
ATOM     17  F   UNL     1       1.718   7.016  20.944  0.00  0.00    +0.000 F 
ENDBRANCH   9  11
ENDBRANCH   5   6
BRANCH   1  19
ATOM     18  O   UNL     1       7.840   5.273  18.133  0.00  0.00    +0.000 OA
ATOM     19  C   UNL     1       7.326   6.141  17.432  0.00  0.00    +0.000 C 
ATOM     20  N   UNL     1       7.622   7.480  17.560  0.00  0.00    +0.000 N 
ATOM     21  H   UNL     1       7.033   8.161  17.102  0.00  0.00    +0.000 HD
BRANCH  20  22
ATOM     22  C   UNL     1       8.485   7.950  18.623  0.00  0.00    +0.000 C 
BRANCH  22  23
ATOM     23  C   UNL     1       8.661   9.448  18.584  0.00  0.00    +0.000 A 
ATOM     24  C   UNL     1       9.573  10.077  19.465  0.00  0.00    +0.000 A 
ATOM     25  C   UNL     1       9.762  11.462  19.444  0.00  0.00    +0.000 A 
ATOM     26  C   UNL     1       9.022  12.195  18.543  0.00  0.00    +0.000 A 
ATOM     27  C   UNL     1       8.123  11.597  17.692  0.00  0.00    +0.000 A 
ATOM     28  C   UNL     1       7.916  10.233  17.688  0.00  0.00    +0.000 A 
ATOM     29  O   UNL     1       7.497  12.496  16.887  0.00  0.00    +0.000 OA
ATOM     30  C   UNL     1       8.088  13.730  17.346  0.00  0.00    +0.000 C 
ATOM     31  O   UNL     1       9.077  13.543  18.379  0.00  0.00    +0.000 OA
ENDBRANCH  22  23
ENDBRANCH  20  22
ENDBRANCH   1  19
TORSDOF 5
ENDMDL
MODEL 5
REMARK VINA RESULT:      -8.3      1.635      2.268
REMARK  Name = 
REMARK  5 active torsions:
REMARK  status: ('A' for Active; 'I' for Inactive)
REMARK    1  A    between atoms: C_2  and  C_14
REMARK    2  A    between atoms: N_3  and  C_4
REMARK    3  A    between atoms: C_4  and  C_5
REMARK    4  A    between atoms: C_18  and  C_19
REMARK    5  A    between atoms: N_22  and  C_23
REMARK                            x       y       z     vdW  Elec       q    Type
REMARK                         _______ _______ _______ _____ _____    ______ ____
ROOT
ATOM      1  C   UNL     1       2.445   3.611  18.736  0.00  0.00    +0.000 C 
ATOM      2  C   UNL     1       1.815   2.283  19.096  0.00  0.00    +0.000 C 
ATOM      3  C   UNL     1       0.708   2.694  20.041  0.00  0.00    +0.000 C 
ATOM      4  O   UNL     1       1.140   3.882  20.707  0.00  0.00    +0.000 OA
ATOM      5  C   UNL     1       2.320   4.391  20.042  0.00  0.00    +0.000 C 
ENDROOT
BRANCH   5   6
ATOM      6  C   UNL     1       2.214   5.856  19.797  0.00  0.00    +0.000 A 
ATOM      7  C   UNL     1       2.809   6.618  18.775  0.00  0.00    +0.000 A 
ATOM      8  N   UNL     1       2.448   7.902  18.812  0.00  0.00    +0.000 NA
ATOM      9  N   UNL     1       1.618   8.001  19.888  0.00  0.00    +0.000 N 
ATOM     10  C   UNL     1       1.463   6.777  20.493  0.00  0.00    +0.000 A 
BRANCH   9  11
ATOM     11  C   UNL     1       1.008   9.236  20.227  0.00  0.00    +0.000 A 
ATOM     12  C   UNL     1       0.462  10.043  19.215  0.00  0.00    +0.000 A 
ATOM     13  C   UNL     1      -0.172  11.247  19.535  0.00  0.00    +0.000 A 
ATOM     14  C   UNL     1      -0.262  11.661  20.863  0.00  0.00    +0.000 A 
ATOM     15  C   UNL     1       0.287  10.873  21.871  0.00  0.00    +0.000 A 
ATOM     16  C   UNL     1       0.917   9.672  21.552  0.00  0.00    +0.000 A 
ATOM     17  F   UNL     1       1.426   8.971  22.575  0.00  0.00    +0.000 F 
ENDBRANCH   9  11
ENDBRANCH   5   6
BRANCH   1  19
ATOM     18  O   UNL     1       4.717   2.856  18.992  0.00  0.00    +0.000 OA
ATOM     19  C   UNL     1       3.890   3.463  18.317  0.00  0.00    +0.000 C 
ATOM     20  N   UNL     1       4.182   4.013  17.089  0.00  0.00    +0.000 N 
ATOM     21  H   UNL     1       3.532   4.665  16.673  0.00  0.00    +0.000 HD
BRANCH  20  22
ATOM     22  C   UNL     1       5.536   4.001  16.575  0.00  0.00    +0.000 C 
BRANCH  22  23
ATOM     23  C   UNL     1       6.389   5.070  17.210  0.00  0.00    +0.000 A 
ATOM     24  C   UNL     1       7.263   4.740  18.274  0.00  0.00    +0.000 A 
ATOM     25  C   UNL     1       8.071   5.710  18.875  0.00  0.00    +0.000 A 
ATOM     26  C   UNL     1       7.980   7.001  18.402  0.00  0.00    +0.000 A 
ATOM     27  C   UNL     1       7.125   7.336  17.379  0.00  0.00    +0.000 A 
ATOM     28  C   UNL     1       6.317   6.401  16.765  0.00  0.00    +0.000 A 
ATOM     29  O   UNL     1       7.187   8.658  17.065  0.00  0.00    +0.000 OA
ATOM     30  C   UNL     1       8.161   9.119  18.025  0.00  0.00    +0.000 C 
ATOM     31  O   UNL     1       8.689   8.067  18.859  0.00  0.00    +0.000 OA
ENDBRANCH  22  23
ENDBRANCH  20  22
ENDBRANCH   1  19
TORSDOF 5
ENDMDL
MODEL 6
REMARK VINA RESULT:      -8.3      3.535      5.909
REMARK  Name = 
REMARK  5 active torsions:
REMARK  status: ('A' for Active; 'I' for Inactive)
REMARK    1  A    between atoms: C_2  and  C_14
REMARK    2  A    between atoms: N_3  and  C_4
REMARK    3  A    between atoms: C_4  and  C_5
REMARK    4  A    between atoms: C_18  and  C_19
REMARK    5  A    between atoms: N_22  and  C_23
REMARK                            x       y       z     vdW  Elec       q    Type
REMARK                         _______ _______ _______ _____ _____    ______ ____
ROOT
ATOM      1  C   UNL     1       6.428   5.821  16.454  0.00  0.00    +0.000 C 
ATOM      2  C   UNL     1       7.149   5.124  15.320  0.00  0.00    +0.000 C 
ATOM      3  C   UNL     1       6.039   4.328  14.670  0.00  0.00    +0.000 C 
ATOM      4  O   UNL     1       5.098   3.999  15.695  0.00  0.00    +0.000 OA
ATOM      5  C   UNL     1       5.406   4.770  16.880  0.00  0.00    +0.000 C 
ENDROOT
BRANCH   5   6
ATOM      6  C   UNL     1       4.183   5.396  17.453  0.00  0.00    +0.000 A 
ATOM      7  C   UNL     1       3.006   4.769  17.899  0.00  0.00    +0.000 A 
ATOM      8  N   UNL     1       2.129   5.630  18.420  0.00  0.00    +0.000 NA
ATOM      9  N   UNL     1       2.722   6.850  18.298  0.00  0.00    +0.000 N 
ATOM     10  C   UNL     1       3.962   6.729  17.720  0.00  0.00    +0.000 A 
BRANCH   9  11
ATOM     11  C   UNL     1       2.083   8.023  18.778  0.00  0.00    +0.000 A 
ATOM     12  C   UNL     1       1.932   9.130  17.926  0.00  0.00    +0.000 A 
ATOM     13  C   UNL     1       1.275  10.281  18.372  0.00  0.00    +0.000 A 
ATOM     14  C   UNL     1       0.770  10.342  19.669  0.00  0.00    +0.000 A 
ATOM     15  C   UNL     1       0.926   9.254  20.523  0.00  0.00    +0.000 A 
ATOM     16  C   UNL     1       1.578   8.106  20.078  0.00  0.00    +0.000 A 
ATOM     17  F   UNL     1       1.696   7.103  20.959  0.00  0.00    +0.000 F 
ENDBRANCH   9  11
ENDBRANCH   5   6
BRANCH   1  19
ATOM     18  O   UNL     1       7.842   5.335  18.342  0.00  0.00    +0.000 OA
ATOM     19  C   UNL     1       7.360   6.177  17.589  0.00  0.00    +0.000 C 
ATOM     20  N   UNL     1       7.670   7.517  17.668  0.00  0.00    +0.000 N 
ATOM     21  H   UNL     1       7.103   8.185  17.164  0.00  0.00    +0.000 HD
BRANCH  20  22
ATOM     22  C   UNL     1       8.507   8.023  18.735  0.00  0.00    +0.000 C 
BRANCH  22  23
ATOM     23  C   UNL     1       8.709   9.514  18.634  0.00  0.00    +0.000 A 
ATOM     24  C   UNL     1       8.084  10.244  17.595  0.00  0.00    +0.000 A 
ATOM     25  C   UNL     1       8.247  11.629  17.483  0.00  0.00    +0.000 A 
ATOM     26  C   UNL     1       9.047  12.255  18.413  0.00  0.00    +0.000 A 
ATOM     27  C   UNL     1       9.671  11.555  19.417  0.00  0.00    +0.000 A 
ATOM     28  C   UNL     1       9.528  10.189  19.555  0.00  0.00    +0.000 A 
ATOM     29  O   UNL     1      10.413  12.359  20.224  0.00  0.00    +0.000 OA
ATOM     30  C   UNL     1      10.204  13.642  19.597  0.00  0.00    +0.000 C 
ATOM     31  O   UNL     1       9.315  13.587  18.462  0.00  0.00    +0.000 OA
ENDBRANCH  22  23
ENDBRANCH  20  22
ENDBRANCH   1  19
TORSDOF 5
ENDMDL
MODEL 7
REMARK VINA RESULT:      -8.2      1.894      2.802
REMARK  Name = 
REMARK  5 active torsions:
REMARK  status: ('A' for Active; 'I' for Inactive)
REMARK    1  A    between atoms: C_2  and  C_14
REMARK    2  A    between atoms: N_3  and  C_4
REMARK    3  A    between atoms: C_4  and  C_5
REMARK    4  A    between atoms: C_18  and  C_19
REMARK    5  A    between atoms: N_22  and  C_23
REMARK                            x       y       z     vdW  Elec       q    Type
REMARK                         _______ _______ _______ _____ _____    ______ ____
ROOT
ATOM      1  C   UNL     1       2.453   5.625  18.727  0.00  0.00    +0.000 C 
ATOM      2  C   UNL     1       2.196   4.145  18.913  0.00  0.00    +0.000 C 
ATOM      3  C   UNL     1       1.117   4.133  19.972  0.00  0.00    +0.000 C 
ATOM      4  O   UNL     1       1.312   5.290  20.788  0.00  0.00    +0.000 OA
ATOM      5  C   UNL     1       2.268   6.164  20.143  0.00  0.00    +0.000 C 
ENDROOT
BRANCH   5   6
ATOM      6  C   UNL     1       1.792   7.575  20.134  0.00  0.00    +0.000 A 
ATOM      7  C   UNL     1       1.745   8.476  19.055  0.00  0.00    +0.000 A 
ATOM      8  N   UNL     1       1.195   9.646  19.384  0.00  0.00    +0.000 NA
ATOM      9  N   UNL     1       0.891   9.530  20.707  0.00  0.00    +0.000 N 
ATOM     10  C   UNL     1       1.242   8.288  21.176  0.00  0.00    +0.000 A 
BRANCH   9  11
ATOM     11  C   UNL     1       0.257  10.591  21.405  0.00  0.00    +0.000 A 
ATOM     12  C   UNL     1       0.527  11.921  21.042  0.00  0.00    +0.000 A 
ATOM     13  C   UNL     1      -0.114  12.976  21.698  0.00  0.00    +0.000 A 
ATOM     14  C   UNL     1      -1.023  12.718  22.722  0.00  0.00    +0.000 A 
ATOM     15  C   UNL     1      -1.286  11.403  23.096  0.00  0.00    +0.000 A 
ATOM     16  C   UNL     1      -0.649  10.351  22.441  0.00  0.00    +0.000 A 
ATOM     17  F   UNL     1      -0.949   9.113  22.861  0.00  0.00    +0.000 F 
ENDBRANCH   9  11
ENDBRANCH   5   6
BRANCH   1  19
ATOM     18  O   UNL     1       4.125   6.911  17.567  0.00  0.00    +0.000 OA
ATOM     19  C   UNL     1       3.845   5.902  18.209  0.00  0.00    +0.000 C 
ATOM     20  N   UNL     1       4.782   4.960  18.570  0.00  0.00    +0.000 N 
ATOM     21  H   UNL     1       4.472   4.064  18.918  0.00  0.00    +0.000 HD
BRANCH  20  22
ATOM     22  C   UNL     1       6.150   5.058  18.104  0.00  0.00    +0.000 C 
BRANCH  22  23
ATOM     23  C   UNL     1       6.266   4.752  16.631  0.00  0.00    +0.000 A 
ATOM     24  C   UNL     1       5.434   3.769  16.044  0.00  0.00    +0.000 A 
ATOM     25  C   UNL     1       5.515   3.472  14.680  0.00  0.00    +0.000 A 
ATOM     26  C   UNL     1       6.440   4.163  13.930  0.00  0.00    +0.000 A 
ATOM     27  C   UNL     1       7.263   5.110  14.491  0.00  0.00    +0.000 A 
ATOM     28  C   UNL     1       7.205   5.426  15.833  0.00  0.00    +0.000 A 
ATOM     29  O   UNL     1       8.102   5.672  13.580  0.00  0.00    +0.000 OA
ATOM     30  C   UNL     1       7.728   4.951  12.386  0.00  0.00    +0.000 C 
ATOM     31  O   UNL     1       6.655   4.011  12.596  0.00  0.00    +0.000 OA
ENDBRANCH  22  23
ENDBRANCH  20  22
ENDBRANCH   1  19
TORSDOF 5
ENDMDL
MODEL 8
REMARK VINA RESULT:      -8.1      3.769      7.515
REMARK  Name = 
REMARK  5 active torsions:
REMARK  status: ('A' for Active; 'I' for Inactive)
REMARK    1  A    between atoms: C_2  and  C_14
REMARK    2  A    between atoms: N_3  and  C_4
REMARK    3  A    between atoms: C_4  and  C_5
REMARK    4  A    between atoms: C_18  and  C_19
REMARK    5  A    between atoms: N_22  and  C_23
REMARK                            x       y       z     vdW  Elec       q    Type
REMARK                         _______ _______ _______ _____ _____    ______ ____
ROOT
ATOM      1  C   UNL     1       6.334   5.115  17.617  0.00  0.00    +0.000 C 
ATOM      2  C   UNL     1       6.179   4.114  16.493  0.00  0.00    +0.000 C 
ATOM      3  C   UNL     1       7.164   4.624  15.466  0.00  0.00    +0.000 C 
ATOM      4  O   UNL     1       7.245   6.043  15.624  0.00  0.00    +0.000 OA
ATOM      5  C   UNL     1       6.588   6.415  16.858  0.00  0.00    +0.000 C 
ENDROOT
BRANCH   5   6
ATOM      6  C   UNL     1       7.421   7.359  17.653  0.00  0.00    +0.000 A 
ATOM      7  C   UNL     1       8.244   7.082  18.759  0.00  0.00    +0.000 A 
ATOM      8  N   UNL     1       8.906   8.157  19.192  0.00  0.00    +0.000 NA
ATOM      9  N   UNL     1       8.500   9.169  18.375  0.00  0.00    +0.000 N 
ATOM     10  C   UNL     1       7.607   8.707  17.439  0.00  0.00    +0.000 A 
BRANCH   9  11
ATOM     11  C   UNL     1       9.025  10.480  18.522  0.00  0.00    +0.000 A 
ATOM     12  C   UNL     1      10.106  10.701  19.392  0.00  0.00    +0.000 A 
ATOM     13  C   UNL     1      10.656  11.980  19.524  0.00  0.00    +0.000 A 
ATOM     14  C   UNL     1      10.132  13.048  18.798  0.00  0.00    +0.000 A 
ATOM     15  C   UNL     1       9.053  12.838  17.943  0.00  0.00    +0.000 A 
ATOM     16  C   UNL     1       8.506  11.564  17.809  0.00  0.00    +0.000 A 
ATOM     17  F   UNL     1       7.466  11.442  16.973  0.00  0.00    +0.000 F 
ENDBRANCH   9  11
ENDBRANCH   5   6
BRANCH   1  19
ATOM     18  O   UNL     1       5.135   5.363  19.691  0.00  0.00    +0.000 OA
ATOM     19  C   UNL     1       5.091   5.210  18.473  0.00  0.00    +0.000 C 
ATOM     20  N   UNL     1       3.911   5.171  17.765  0.00  0.00    +0.000 N 
ATOM     21  H   UNL     1       3.921   4.847  16.807  0.00  0.00    +0.000 HD
BRANCH  20  22
ATOM     22  C   UNL     1       2.635   5.195  18.448  0.00  0.00    +0.000 C 
BRANCH  22  23
ATOM     23  C   UNL     1       2.230   6.597  18.833  0.00  0.00    +0.000 A 
ATOM     24  C   UNL     1       2.210   7.622  17.858  0.00  0.00    +0.000 A 
ATOM     25  C   UNL     1       1.830   8.927  18.187  0.00  0.00    +0.000 A 
ATOM     26  C   UNL     1       1.486   9.182  19.495  0.00  0.00    +0.000 A 
ATOM     27  C   UNL     1       1.515   8.198  20.454  0.00  0.00    +0.000 A 
ATOM     28  C   UNL     1       1.883   6.901  20.160  0.00  0.00    +0.000 A 
ATOM     29  O   UNL     1       1.141   8.658  21.678  0.00  0.00    +0.000 OA
ATOM     30  C   UNL     1       0.898  10.050  21.383  0.00  0.00    +0.000 C 
ATOM     31  O   UNL     1       1.089  10.383  19.993  0.00  0.00    +0.000 OA
ENDBRANCH  22  23
ENDBRANCH  20  22
ENDBRANCH   1  19
TORSDOF 5
ENDMDL
MODEL 9
REMARK VINA RESULT:      -8.1      3.397      8.977
REMARK  Name = 
REMARK  5 active torsions:
REMARK  status: ('A' for Active; 'I' for Inactive)
REMARK    1  A    between atoms: C_2  and  C_14
REMARK    2  A    between atoms: N_3  and  C_4
REMARK    3  A    between atoms: C_4  and  C_5
REMARK    4  A    between atoms: C_18  and  C_19
REMARK    5  A    between atoms: N_22  and  C_23
REMARK                            x       y       z     vdW  Elec       q    Type
REMARK                         _______ _______ _______ _____ _____    ______ ____
ROOT
ATOM      1  C   UNL     1       2.927   5.779  19.686  0.00  0.00    +0.000 C 
ATOM      2  C   UNL     1       1.994   5.303  20.778  0.00  0.00    +0.000 C 
ATOM      3  C   UNL     1       2.125   3.800  20.686  0.00  0.00    +0.000 C 
ATOM      4  O   UNL     1       2.416   3.483  19.323  0.00  0.00    +0.000 OA
ATOM      5  C   UNL     1       2.748   4.703  18.618  0.00  0.00    +0.000 C 
ENDROOT
BRANCH   5   6
ATOM      6  C   UNL     1       3.978   4.537  17.796  0.00  0.00    +0.000 A 
ATOM      7  C   UNL     1       5.272   4.184  18.218  0.00  0.00    +0.000 A 
ATOM      8  N   UNL     1       6.129   4.059  17.204  0.00  0.00    +0.000 NA
ATOM      9  N   UNL     1       5.400   4.354  16.091  0.00  0.00    +0.000 N 
ATOM     10  C   UNL     1       4.100   4.643  16.428  0.00  0.00    +0.000 A 
BRANCH   9  11
ATOM     11  C   UNL     1       5.985   4.297  14.799  0.00  0.00    +0.000 A 
ATOM     12  C   UNL     1       5.401   3.490  13.808  0.00  0.00    +0.000 A 
ATOM     13  C   UNL     1       5.946   3.448  12.520  0.00  0.00    +0.000 A 
ATOM     14  C   UNL     1       7.076   4.202  12.211  0.00  0.00    +0.000 A 
ATOM     15  C   UNL     1       7.667   4.995  13.192  0.00  0.00    +0.000 A 
ATOM     16  C   UNL     1       7.123   5.039  14.474  0.00  0.00    +0.000 A 
ATOM     17  F   UNL     1       7.751   5.819  15.365  0.00  0.00    +0.000 F 
ENDBRANCH   9  11
ENDBRANCH   5   6
BRANCH   1  19
ATOM     18  O   UNL     1       2.920   7.566  18.073  0.00  0.00    +0.000 OA
ATOM     19  C   UNL     1       2.545   7.145  19.164  0.00  0.00    +0.000 C 
ATOM     20  N   UNL     1       1.694   7.848  19.986  0.00  0.00    +0.000 N 
ATOM     21  H   UNL     1       1.578   7.552  20.945  0.00  0.00    +0.000 HD
BRANCH  20  22
ATOM     22  C   UNL     1       1.281   9.194  19.649  0.00  0.00    +0.000 C 
BRANCH  22  23
ATOM     23  C   UNL     1       0.407   9.800  20.719  0.00  0.00    +0.000 A 
ATOM     24  C   UNL     1       0.367   9.223  22.011  0.00  0.00    +0.000 A 
ATOM     25  C   UNL     1      -0.429   9.769  23.024  0.00  0.00    +0.000 A 
ATOM     26  C   UNL     1      -1.180  10.882  22.716  0.00  0.00    +0.000 A 
ATOM     27  C   UNL     1      -1.160  11.442  21.461  0.00  0.00    +0.000 A 
ATOM     28  C   UNL     1      -0.385  10.927  20.443  0.00  0.00    +0.000 A 
ATOM     29  O   UNL     1      -1.972  12.529  21.368  0.00  0.00    +0.000 OA
ATOM     30  C   UNL     1      -2.522  12.573  22.701  0.00  0.00    +0.000 C 
ATOM     31  O   UNL     1      -2.003  11.546  23.571  0.00  0.00    +0.000 OA
ENDBRANCH  22  23
ENDBRANCH  20  22
ENDBRANCH   1  19
TORSDOF 5
ENDMDL
