MODEL 1
REMARK VINA RESULT:      -8.5      0.000      0.000
REMARK  Name = 
REMARK  6 active torsions:
REMARK  status: ('A' for Active; 'I' for Inactive)
REMARK    1  A    between atoms: C_1  and  C_2
REMARK    2  A    between atoms: C_5  and  N_6
REMARK    3  A    between atoms: C_7  and  C_9
REMARK    4  A    between atoms: C_9  and  C_10
REMARK    5  A    between atoms: N_12  and  C_13
REMARK    6  A    between atoms: C_23  and  C_24
REMARK                            x       y       z     vdW  Elec       q    Type
REMARK                         _______ _______ _______ _____ _____    ______ ____
ROOT
ATOM      1  N   UNL     1       1.614   8.056  21.229  0.00  0.00    +0.000 N 
ATOM      2  C   UNL     1       0.359   8.442  21.680  0.00  0.00    +0.000 C 
ATOM      3  O   UNL     1      -0.709   7.901  21.402  0.00  0.00    +0.000 OA
ATOM      4  H   UNL     1       2.424   8.490  21.661  0.00  0.00    +0.000 HD
ENDROOT
BRANCH   1   9
ATOM      5  C   UNL     1       2.382   3.802  17.419  0.00  0.00    +0.000 C 
ATOM      6  C   UNL     1       2.213   4.863  18.468  0.00  0.00    +0.000 A 
ATOM      7  C   UNL     1       2.555   6.179  18.130  0.00  0.00    +0.000 A 
ATOM      8  C   UNL     1       2.387   7.226  19.037  0.00  0.00    +0.000 A 
ATOM      9  C   UNL     1       1.864   7.004  20.309  0.00  0.00    +0.000 A 
ATOM     10  C   UNL     1       1.569   5.682  20.678  0.00  0.00    +0.000 A 
ATOM     11  C   UNL     1       1.726   4.602  19.765  0.00  0.00    +0.000 A 
BRANCH  11  12
ATOM     12  C   UNL     1       1.339   3.215  20.248  0.00  0.00    +0.000 C 
ATOM     13  F   UNL     1       0.310   2.632  19.576  0.00  0.00    +0.000 F 
ATOM     14  F   UNL     1       2.375   2.334  20.161  0.00  0.00    +0.000 F 
ATOM     15  F   UNL     1       0.962   3.213  21.558  0.00  0.00    +0.000 F 
ENDBRANCH  11  12
ENDBRANCH   1   9
BRANCH   2  16
ATOM     16  C   UNL     1       0.334   9.586  22.668  0.00  0.00    +0.000 C 
BRANCH  16  17
ATOM     17  C   UNL     1       0.175  10.954  22.059  0.00  0.00    +0.000 A 
ATOM     18  N   UNL     1       1.078  11.295  21.192  0.00  0.00    +0.000 NA
ATOM     19  N   UNL     1       1.009  12.529  20.612  0.00  0.00    +0.000 N 
ATOM     20  C   UNL     1       2.064  12.858  19.674  0.00  0.00    +0.000 C 
ATOM     21  C   UNL     1       0.019  13.470  20.875  0.00  0.00    +0.000 A 
ATOM     22  O   UNL     1      -0.012  14.591  20.371  0.00  0.00    +0.000 OA
ATOM     23  C   UNL     1      -1.049  13.053  21.801  0.00  0.00    +0.000 A 
ATOM     24  C   UNL     1      -2.145  13.895  22.031  0.00  0.00    +0.000 A 
ATOM     25  C   UNL     1      -3.171  13.485  22.880  0.00  0.00    +0.000 A 
ATOM     26  C   UNL     1      -3.093  12.247  23.516  0.00  0.00    +0.000 A 
ATOM     27  C   UNL     1      -1.996  11.407  23.292  0.00  0.00    +0.000 A 
ATOM     28  C   UNL     1      -0.977  11.807  22.419  0.00  0.00    +0.000 A 
ENDBRANCH  16  17
ENDBRANCH   2  16
TORSDOF 4
ENDMDL
MODEL 2
REMARK VINA RESULT:      -8.3      1.353      2.603
REMARK  Name = 
REMARK  6 active torsions:
REMARK  status: ('A' for Active; 'I' for Inactive)
REMARK    1  A    between atoms: C_1  and  C_2
REMARK    2  A    between atoms: C_5  and  N_6
REMARK    3  A    between atoms: C_7  and  C_9
REMARK    4  A    between atoms: C_9  and  C_10
REMARK    5  A    between atoms: N_12  and  C_13
REMARK    6  A    between atoms: C_23  and  C_24
REMARK                            x       y       z     vdW  Elec       q    Type
REMARK                         _______ _______ _______ _____ _____    ______ ____
ROOT
ATOM      1  N   UNL     1       1.731   7.973  21.207  0.00  0.00    +0.000 N 
ATOM      2  C   UNL     1       0.490   8.453  21.603  0.00  0.00    +0.000 C 
ATOM      3  O   UNL     1      -0.602   7.997  21.272  0.00  0.00    +0.000 OA
ATOM      4  H   UNL     1       2.551   8.341  21.679  0.00  0.00    +0.000 HD
ENDROOT
BRANCH   1   9
ATOM      5  C   UNL     1       2.339   3.679  17.412  0.00  0.00    +0.000 C 
ATOM      6  C   UNL     1       2.211   4.751  18.457  0.00  0.00    +0.000 A 
ATOM      7  C   UNL     1       2.586   6.055  18.109  0.00  0.00    +0.000 A 
ATOM      8  C   UNL     1       2.457   7.110  19.011  0.00  0.00    +0.000 A 
ATOM      9  C   UNL     1       1.941   6.909  20.290  0.00  0.00    +0.000 A 
ATOM     10  C   UNL     1       1.614   5.599  20.669  0.00  0.00    +0.000 A 
ATOM     11  C   UNL     1       1.731   4.510  19.761  0.00  0.00    +0.000 A 
BRANCH  11  12
ATOM     12  C   UNL     1       1.311   3.137  20.255  0.00  0.00    +0.000 C 
ATOM     13  F   UNL     1       0.254   2.582  19.601  0.00  0.00    +0.000 F 
ATOM     14  F   UNL     1       2.318   2.225  20.155  0.00  0.00    +0.000 F 
ATOM     15  F   UNL     1       0.954   3.150  21.572  0.00  0.00    +0.000 F 
ENDBRANCH  11  12
ENDBRANCH   1   9
BRANCH   2  16
ATOM     16  C   UNL     1       0.507   9.590  22.599  0.00  0.00    +0.000 C 
BRANCH  16  17
ATOM     17  C   UNL     1      -0.390  10.750  22.260  0.00  0.00    +0.000 A 
ATOM     18  N   UNL     1      -1.362  10.975  23.089  0.00  0.00    +0.000 NA
ATOM     19  N   UNL     1      -2.227  12.000  22.836  0.00  0.00    +0.000 N 
ATOM     20  C   UNL     1      -3.307  12.179  23.786  0.00  0.00    +0.000 C 
ATOM     21  C   UNL     1      -2.143  12.851  21.739  0.00  0.00    +0.000 A 
ATOM     22  O   UNL     1      -2.949  13.749  21.505  0.00  0.00    +0.000 OA
ATOM     23  C   UNL     1      -0.994  12.645  20.839  0.00  0.00    +0.000 A 
ATOM     24  C   UNL     1      -0.769  13.529  19.775  0.00  0.00    +0.000 A 
ATOM     25  C   UNL     1       0.337  13.353  18.946  0.00  0.00    +0.000 A 
ATOM     26  C   UNL     1       1.204  12.283  19.164  0.00  0.00    +0.000 A 
ATOM     27  C   UNL     1       0.978  11.396  20.221  0.00  0.00    +0.000 A 
ATOM     28  C   UNL     1      -0.119  11.587  21.071  0.00  0.00    +0.000 A 
ENDBRANCH  16  17
ENDBRANCH   2  16
TORSDOF 4
ENDMDL
MODEL 3
REMARK VINA RESULT:      -8.3      2.737      3.302
REMARK  Name = 
REMARK  6 active torsions:
REMARK  status: ('A' for Active; 'I' for Inactive)
REMARK    1  A    between atoms: C_1  and  C_2
REMARK    2  A    between atoms: C_5  and  N_6
REMARK    3  A    between atoms: C_7  and  C_9
REMARK    4  A    between atoms: C_9  and  C_10
REMARK    5  A    between atoms: N_12  and  C_13
REMARK    6  A    between atoms: C_23  and  C_24
REMARK                            x       y       z     vdW  Elec       q    Type
REMARK                         _______ _______ _______ _____ _____    ______ ____
ROOT
ATOM      1  N   UNL     1       2.705   7.396  17.978  0.00  0.00    +0.000 N 
ATOM      2  C   UNL     1       1.983   8.371  18.654  0.00  0.00    +0.000 C 
ATOM      3  O   UNL     1       1.662   8.342  19.840  0.00  0.00    +0.000 OA
ATOM      4  H   UNL     1       3.038   7.619  17.045  0.00  0.00    +0.000 HD
ENDROOT
BRANCH   1   9
ATOM      5  C   UNL     1       4.402   2.281  20.018  0.00  0.00    +0.000 C 
ATOM      6  C   UNL     1       3.913   3.622  19.551  0.00  0.00    +0.000 A 
ATOM      7  C   UNL     1       4.855   4.516  19.023  0.00  0.00    +0.000 A 
ATOM      8  C   UNL     1       4.472   5.763  18.530  0.00  0.00    +0.000 A 
ATOM      9  C   UNL     1       3.137   6.165  18.536  0.00  0.00    +0.000 A 
ATOM     10  C   UNL     1       2.193   5.301  19.113  0.00  0.00    +0.000 A 
ATOM     11  C   UNL     1       2.562   4.022  19.614  0.00  0.00    +0.000 A 
BRANCH  11  12
ATOM     12  C   UNL     1       1.459   3.145  20.179  0.00  0.00    +0.000 C 
ATOM     13  F   UNL     1       1.272   1.960  19.539  0.00  0.00    +0.000 F 
ATOM     14  F   UNL     1       1.679   2.822  21.485  0.00  0.00    +0.000 F 
ATOM     15  F   UNL     1       0.244   3.765  20.152  0.00  0.00    +0.000 F 
ENDBRANCH  11  12
ENDBRANCH   1   9
BRANCH   2  16
ATOM     16  C   UNL     1       1.639   9.610  17.859  0.00  0.00    +0.000 C 
BRANCH  16  17
ATOM     17  C   UNL     1       0.742  10.593  18.564  0.00  0.00    +0.000 A 
ATOM     18  N   UNL     1       1.336  11.438  19.348  0.00  0.00    +0.000 NA
ATOM     19  N   UNL     1       0.584  12.347  20.035  0.00  0.00    +0.000 N 
ATOM     20  C   UNL     1       1.306  13.244  20.916  0.00  0.00    +0.000 C 
ATOM     21  C   UNL     1      -0.801  12.450  19.952  0.00  0.00    +0.000 A 
ATOM     22  O   UNL     1      -1.469  13.251  20.602  0.00  0.00    +0.000 OA
ATOM     23  C   UNL     1      -1.467  11.541  19.002  0.00  0.00    +0.000 A 
ATOM     24  C   UNL     1      -2.844  11.655  18.771  0.00  0.00    +0.000 A 
ATOM     25  C   UNL     1      -3.466  10.818  17.847  0.00  0.00    +0.000 A 
ATOM     26  C   UNL     1      -2.720   9.854  17.172  0.00  0.00    +0.000 A 
ATOM     27  C   UNL     1      -1.347   9.733  17.406  0.00  0.00    +0.000 A 
ATOM     28  C   UNL     1      -0.715  10.592  18.315  0.00  0.00    +0.000 A 
ENDBRANCH  16  17
ENDBRANCH   2  16
TORSDOF 4
ENDMDL
MODEL 4
REMARK VINA RESULT:      -8.2      2.821      3.465
REMARK  Name = 
REMARK  6 active torsions:
REMARK  status: ('A' for Active; 'I' for Inactive)
REMARK    1  A    between atoms: C_1  and  C_2
REMARK    2  A    between atoms: C_5  and  N_6
REMARK    3  A    between atoms: C_7  and  C_9
REMARK    4  A    between atoms: C_9  and  C_10
REMARK    5  A    between atoms: N_12  and  C_13
REMARK    6  A    between atoms: C_23  and  C_24
REMARK                            x       y       z     vdW  Elec       q    Type
REMARK                         _______ _______ _______ _____ _____    ______ ____
ROOT
ATOM      1  N   UNL     1       2.677   7.478  17.919  0.00  0.00    +0.000 N 
ATOM      2  C   UNL     1       1.962   8.434  18.627  0.00  0.00    +0.000 C 
ATOM      3  O   UNL     1       1.637   8.366  19.810  0.00  0.00    +0.000 OA
ATOM      4  H   UNL     1       3.015   7.731  16.995  0.00  0.00    +0.000 HD
ENDROOT
BRANCH   1   9
ATOM      5  C   UNL     1       4.454   2.318  19.769  0.00  0.00    +0.000 C 
ATOM      6  C   UNL     1       3.920   3.648  19.320  0.00  0.00    +0.000 A 
ATOM      7  C   UNL     1       4.748   4.770  19.463  0.00  0.00    +0.000 A 
ATOM      8  C   UNL     1       4.339   6.031  19.031  0.00  0.00    +0.000 A 
ATOM      9  C   UNL     1       3.094   6.223  18.433  0.00  0.00    +0.000 A 
ATOM     10  C   UNL     1       2.235   5.118  18.336  0.00  0.00    +0.000 A 
ATOM     11  C   UNL     1       2.636   3.821  18.763  0.00  0.00    +0.000 A 
BRANCH  11  12
ATOM     12  C   UNL     1       1.648   2.684  18.575  0.00  0.00    +0.000 C 
ATOM     13  F   UNL     1       1.413   1.929  19.682  0.00  0.00    +0.000 F 
ATOM     14  F   UNL     1       0.424   3.129  18.173  0.00  0.00    +0.000 F 
ATOM     15  F   UNL     1       2.054   1.803  17.616  0.00  0.00    +0.000 F 
ENDBRANCH  11  12
ENDBRANCH   1   9
BRANCH   2  16
ATOM     16  C   UNL     1       1.633   9.705  17.877  0.00  0.00    +0.000 C 
BRANCH  16  17
ATOM     17  C   UNL     1       0.697  10.644  18.590  0.00  0.00    +0.000 A 
ATOM     18  N   UNL     1       1.254  11.488  19.402  0.00  0.00    +0.000 NA
ATOM     19  N   UNL     1       0.465  12.359  20.098  0.00  0.00    +0.000 N 
ATOM     20  C   UNL     1       1.148  13.255  21.010  0.00  0.00    +0.000 C 
ATOM     21  C   UNL     1      -0.920  12.423  19.997  0.00  0.00    +0.000 A 
ATOM     22  O   UNL     1      -1.621  13.188  20.655  0.00  0.00    +0.000 OA
ATOM     23  C   UNL     1      -1.546  11.517  19.016  0.00  0.00    +0.000 A 
ATOM     24  C   UNL     1      -2.922  11.597  18.767  0.00  0.00    +0.000 A 
ATOM     25  C   UNL     1      -3.505  10.764  17.814  0.00  0.00    +0.000 A 
ATOM     26  C   UNL     1      -2.721   9.838  17.128  0.00  0.00    +0.000 A 
ATOM     27  C   UNL     1      -1.348   9.752  17.380  0.00  0.00    +0.000 A 
ATOM     28  C   UNL     1      -0.756  10.607  18.318  0.00  0.00    +0.000 A 
ENDBRANCH  16  17
ENDBRANCH   2  16
TORSDOF 4
ENDMDL
MODEL 5
REMARK VINA RESULT:      -8.1      2.738      3.287
REMARK  Name = 
REMARK  6 active torsions:
REMARK  status: ('A' for Active; 'I' for Inactive)
REMARK    1  A    between atoms: C_1  and  C_2
REMARK    2  A    between atoms: C_5  and  N_6
REMARK    3  A    between atoms: C_7  and  C_9
REMARK    4  A    between atoms: C_9  and  C_10
REMARK    5  A    between atoms: N_12  and  C_13
REMARK    6  A    between atoms: C_23  and  C_24
REMARK                            x       y       z     vdW  Elec       q    Type
REMARK                         _______ _______ _______ _____ _____    ______ ____
ROOT
ATOM      1  N   UNL     1       2.508   7.466  17.785  0.00  0.00    +0.000 N 
ATOM      2  C   UNL     1       2.009   8.285  18.790  0.00  0.00    +0.000 C 
ATOM      3  O   UNL     1       1.800   7.956  19.955  0.00  0.00    +0.000 OA
ATOM      4  H   UNL     1       2.782   7.906  16.912  0.00  0.00    +0.000 HD
ENDROOT
BRANCH   1   9
ATOM      5  C   UNL     1       3.524   1.806  18.149  0.00  0.00    +0.000 C 
ATOM      6  C   UNL     1       3.240   3.280  18.131  0.00  0.00    +0.000 A 
ATOM      7  C   UNL     1       4.141   4.115  17.457  0.00  0.00    +0.000 A 
ATOM      8  C   UNL     1       3.923   5.489  17.362  0.00  0.00    +0.000 A 
ATOM      9  C   UNL     1       2.795   6.083  17.925  0.00  0.00    +0.000 A 
ATOM     10  C   UNL     1       1.914   5.266  18.650  0.00  0.00    +0.000 A 
ATOM     11  C   UNL     1       2.115   3.861  18.752  0.00  0.00    +0.000 A 
BRANCH  11  12
ATOM     12  C   UNL     1       1.081   3.060  19.523  0.00  0.00    +0.000 C 
ATOM     13  F   UNL     1       0.280   2.264  18.766  0.00  0.00    +0.000 F 
ATOM     14  F   UNL     1       1.653   2.231  20.441  0.00  0.00    +0.000 F 
ATOM     15  F   UNL     1       0.231   3.860  20.229  0.00  0.00    +0.000 F 
ENDBRANCH  11  12
ENDBRANCH   1   9
BRANCH   2  16
ATOM     16  C   UNL     1       1.788   9.733  18.415  0.00  0.00    +0.000 C 
BRANCH  16  17
ATOM     17  C   UNL     1       0.358  10.197  18.477  0.00  0.00    +0.000 A 
ATOM     18  N   UNL     1      -0.416   9.773  17.526  0.00  0.00    +0.000 NA
ATOM     19  N   UNL     1      -1.722  10.169  17.506  0.00  0.00    +0.000 N 
ATOM     20  C   UNL     1      -2.525   9.683  16.401  0.00  0.00    +0.000 C 
ATOM     21  C   UNL     1      -2.308  11.003  18.452  0.00  0.00    +0.000 A 
ATOM     22  O   UNL     1      -3.478  11.380  18.404  0.00  0.00    +0.000 OA
ATOM     23  C   UNL     1      -1.450  11.422  19.575  0.00  0.00    +0.000 A 
ATOM     24  C   UNL     1      -1.991  12.167  20.631  0.00  0.00    +0.000 A 
ATOM     25  C   UNL     1      -1.186  12.532  21.708  0.00  0.00    +0.000 A 
ATOM     26  C   UNL     1       0.161  12.175  21.721  0.00  0.00    +0.000 A 
ATOM     27  C   UNL     1       0.705  11.437  20.664  0.00  0.00    +0.000 A 
ATOM     28  C   UNL     1      -0.109  11.046  19.593  0.00  0.00    +0.000 A 
ENDBRANCH  16  17
ENDBRANCH   2  16
TORSDOF 4
ENDMDL
MODEL 6
REMARK VINA RESULT:      -8.1      8.262     10.950
REMARK  Name = 
REMARK  6 active torsions:
REMARK  status: ('A' for Active; 'I' for Inactive)
REMARK    1  A    between atoms: C_1  and  C_2
REMARK    2  A    between atoms: C_5  and  N_6
REMARK    3  A    between atoms: C_7  and  C_9
REMARK    4  A    between atoms: C_9  and  C_10
REMARK    5  A    between atoms: N_12  and  C_13
REMARK    6  A    between atoms: C_23  and  C_24
REMARK                            x       y       z     vdW  Elec       q    Type
REMARK                         _______ _______ _______ _____ _____    ______ ____
ROOT
ATOM      1  N   UNL     1       8.981   8.835  19.015  0.00  0.00    +0.000 N 
ATOM      2  C   UNL     1       8.068   8.177  18.202  0.00  0.00    +0.000 C 
ATOM      3  O   UNL     1       7.401   8.685  17.304  0.00  0.00    +0.000 OA
ATOM      4  H   UNL     1       9.579   8.267  19.608  0.00  0.00    +0.000 HD
ENDROOT
BRANCH   1   9
ATOM      5  C   UNL     1      10.292  14.447  18.979  0.00  0.00    +0.000 C 
ATOM      6  C   UNL     1       9.886  13.001  19.031  0.00  0.00    +0.000 A 
ATOM      7  C   UNL     1       9.989  12.248  17.855  0.00  0.00    +0.000 A 
ATOM      8  C   UNL     1       9.671  10.890  17.835  0.00  0.00    +0.000 A 
ATOM      9  C   UNL     1       9.245  10.230  18.986  0.00  0.00    +0.000 A 
ATOM     10  C   UNL     1       9.084  10.986  20.156  0.00  0.00    +0.000 A 
ATOM     11  C   UNL     1       9.412  12.370  20.200  0.00  0.00    +0.000 A 
BRANCH  11  12
ATOM     12  C   UNL     1       9.242  13.089  21.527  0.00  0.00    +0.000 C 
ATOM     13  F   UNL     1       8.217  13.981  21.578  0.00  0.00    +0.000 F 
ATOM     14  F   UNL     1       9.021  12.223  22.555  0.00  0.00    +0.000 F 
ATOM     15  F   UNL     1      10.355  13.798  21.874  0.00  0.00    +0.000 F 
ENDBRANCH  11  12
ENDBRANCH   1   9
BRANCH   2  16
ATOM     16  C   UNL     1       7.961   6.682  18.403  0.00  0.00    +0.000 C 
BRANCH  16  17
ATOM     17  C   UNL     1       7.088   5.965  17.409  0.00  0.00    +0.000 A 
ATOM     18  N   UNL     1       7.589   5.816  16.221  0.00  0.00    +0.000 NA
ATOM     19  N   UNL     1       6.847   5.191  15.261  0.00  0.00    +0.000 N 
ATOM     20  C   UNL     1       7.453   5.083  13.949  0.00  0.00    +0.000 C 
ATOM     21  C   UNL     1       5.569   4.679  15.460  0.00  0.00    +0.000 A 
ATOM     22  O   UNL     1       4.898   4.149  14.577  0.00  0.00    +0.000 OA
ATOM     23  C   UNL     1       5.031   4.779  16.828  0.00  0.00    +0.000 A 
ATOM     24  C   UNL     1       3.801   4.188  17.143  0.00  0.00    +0.000 A 
ATOM     25  C   UNL     1       3.310   4.253  18.446  0.00  0.00    +0.000 A 
ATOM     26  C   UNL     1       4.035   4.928  19.427  0.00  0.00    +0.000 A 
ATOM     27  C   UNL     1       5.260   5.525  19.114  0.00  0.00    +0.000 A 
ATOM     28  C   UNL     1       5.767   5.437  17.811  0.00  0.00    +0.000 A 
ENDBRANCH  16  17
ENDBRANCH   2  16
TORSDOF 4
ENDMDL
MODEL 7
REMARK VINA RESULT:      -8.0      4.501      9.142
REMARK  Name = 
REMARK  6 active torsions:
REMARK  status: ('A' for Active; 'I' for Inactive)
REMARK    1  A    between atoms: C_1  and  C_2
REMARK    2  A    between atoms: C_5  and  N_6
REMARK    3  A    between atoms: C_7  and  C_9
REMARK    4  A    between atoms: C_9  and  C_10
REMARK    5  A    between atoms: N_12  and  C_13
REMARK    6  A    between atoms: C_23  and  C_24
REMARK                            x       y       z     vdW  Elec       q    Type
REMARK                         _______ _______ _______ _____ _____    ______ ____
ROOT
ATOM      1  N   UNL     1       1.362   9.504  17.762  0.00  0.00    +0.000 N 
ATOM      2  C   UNL     1       2.046   8.580  18.541  0.00  0.00    +0.000 C 
ATOM      3  O   UNL     1       1.734   8.214  19.672  0.00  0.00    +0.000 OA
ATOM      4  H   UNL     1       1.638   9.595  16.789  0.00  0.00    +0.000 HD
ENDROOT
BRANCH   1   9
ATOM      5  C   UNL     1      -3.348  12.269  19.600  0.00  0.00    +0.000 C 
ATOM      6  C   UNL     1      -2.144  11.562  19.046  0.00  0.00    +0.000 A 
ATOM      7  C   UNL     1      -0.899  11.827  19.631  0.00  0.00    +0.000 A 
ATOM      8  C   UNL     1       0.257  11.178  19.200  0.00  0.00    +0.000 A 
ATOM      9  C   UNL     1       0.217  10.233  18.176  0.00  0.00    +0.000 A 
ATOM     10  C   UNL     1      -1.014  10.000  17.545  0.00  0.00    +0.000 A 
ATOM     11  C   UNL     1      -2.207  10.646  17.975  0.00  0.00    +0.000 A 
BRANCH  11  12
ATOM     12  C   UNL     1      -3.495  10.292  17.254  0.00  0.00    +0.000 C 
ATOM     13  F   UNL     1      -3.363   9.412  16.225  0.00  0.00    +0.000 F 
ATOM     14  F   UNL     1      -4.415   9.735  18.091  0.00  0.00    +0.000 F 
ATOM     15  F   UNL     1      -4.102  11.389  16.716  0.00  0.00    +0.000 F 
ENDBRANCH  11  12
ENDBRANCH   1   9
BRANCH   2  16
ATOM     16  C   UNL     1       3.236   7.915  17.887  0.00  0.00    +0.000 C 
BRANCH  16  17
ATOM     17  C   UNL     1       3.225   6.410  17.921  0.00  0.00    +0.000 A 
ATOM     18  N   UNL     1       2.319   5.868  18.673  0.00  0.00    +0.000 NA
ATOM     19  N   UNL     1       2.261   4.507  18.768  0.00  0.00    +0.000 N 
ATOM     20  C   UNL     1       1.243   3.967  19.647  0.00  0.00    +0.000 C 
ATOM     21  C   UNL     1       3.110   3.633  18.098  0.00  0.00    +0.000 A 
ATOM     22  O   UNL     1       3.069   2.411  18.219  0.00  0.00    +0.000 OA
ATOM     23  C   UNL     1       4.090   4.246  17.183  0.00  0.00    +0.000 A 
ATOM     24  C   UNL     1       4.906   3.435  16.384  0.00  0.00    +0.000 A 
ATOM     25  C   UNL     1       5.807   4.017  15.494  0.00  0.00    +0.000 A 
ATOM     26  C   UNL     1       5.910   5.405  15.419  0.00  0.00    +0.000 A 
ATOM     27  C   UNL     1       5.101   6.217  16.222  0.00  0.00    +0.000 A 
ATOM     28  C   UNL     1       4.176   5.634  17.097  0.00  0.00    +0.000 A 
ENDBRANCH  16  17
ENDBRANCH   2  16
TORSDOF 4
ENDMDL
MODEL 8
REMARK VINA RESULT:      -8.0      7.691     11.092
REMARK  Name = 
REMARK  6 active torsions:
REMARK  status: ('A' for Active; 'I' for Inactive)
REMARK    1  A    between atoms: C_1  and  C_2
REMARK    2  A    between atoms: C_5  and  N_6
REMARK    3  A    between atoms: C_7  and  C_9
REMARK    4  A    between atoms: C_9  and  C_10
REMARK    5  A    between atoms: N_12  and  C_13
REMARK    6  A    between atoms: C_23  and  C_24
REMARK                            x       y       z     vdW  Elec       q    Type
REMARK                         _______ _______ _______ _____ _____    ______ ____
ROOT
ATOM      1  N   UNL     1       8.906   8.616  19.062  0.00  0.00    +0.000 N 
ATOM      2  C   UNL     1       8.003   7.930  18.261  0.00  0.00    +0.000 C 
ATOM      3  O   UNL     1       7.328   8.412  17.354  0.00  0.00    +0.000 OA
ATOM      4  H   UNL     1       9.511   8.068  19.665  0.00  0.00    +0.000 HD
ENDROOT
BRANCH   1   9
ATOM      5  C   UNL     1      10.137  14.243  18.914  0.00  0.00    +0.000 C 
ATOM      6  C   UNL     1       9.753  12.794  18.998  0.00  0.00    +0.000 A 
ATOM      7  C   UNL     1       9.810  12.031  17.824  0.00  0.00    +0.000 A 
ATOM      8  C   UNL     1       9.509  10.669  17.831  0.00  0.00    +0.000 A 
ATOM      9  C   UNL     1       9.149  10.013  19.007  0.00  0.00    +0.000 A 
ATOM     10  C   UNL     1       9.035  10.778  20.178  0.00  0.00    +0.000 A 
ATOM     11  C   UNL     1       9.345  12.167  20.194  0.00  0.00    +0.000 A 
BRANCH  11  12
ATOM     12  C   UNL     1       9.231  12.896  21.521  0.00  0.00    +0.000 C 
ATOM     13  F   UNL     1      10.299  13.669  21.853  0.00  0.00    +0.000 F 
ATOM     14  F   UNL     1       8.154  13.731  21.557  0.00  0.00    +0.000 F 
ATOM     15  F   UNL     1       9.067  12.037  22.567  0.00  0.00    +0.000 F 
ENDBRANCH  11  12
ENDBRANCH   1   9
BRANCH   2  16
ATOM     16  C   UNL     1       7.917   6.438  18.488  0.00  0.00    +0.000 C 
BRANCH  16  17
ATOM     17  C   UNL     1       6.608   5.806  18.098  0.00  0.00    +0.000 A 
ATOM     18  N   UNL     1       5.668   5.856  18.991  0.00  0.00    +0.000 NA
ATOM     19  N   UNL     1       4.458   5.286  18.714  0.00  0.00    +0.000 N 
ATOM     20  C   UNL     1       3.462   5.352  19.765  0.00  0.00    +0.000 C 
ATOM     21  C   UNL     1       4.141   4.649  17.520  0.00  0.00    +0.000 A 
ATOM     22  O   UNL     1       3.059   4.110  17.297  0.00  0.00    +0.000 OA
ATOM     23  C   UNL     1       5.182   4.660  16.477  0.00  0.00    +0.000 A 
ATOM     24  C   UNL     1       4.906   4.143  15.204  0.00  0.00    +0.000 A 
ATOM     25  C   UNL     1       5.880   4.186  14.209  0.00  0.00    +0.000 A 
ATOM     26  C   UNL     1       7.135   4.723  14.490  0.00  0.00    +0.000 A 
ATOM     27  C   UNL     1       7.416   5.234  15.761  0.00  0.00    +0.000 A 
ATOM     28  C   UNL     1       6.429   5.215  16.755  0.00  0.00    +0.000 A 
ENDBRANCH  16  17
ENDBRANCH   2  16
TORSDOF 4
ENDMDL
MODEL 9
REMARK VINA RESULT:      -7.9      4.477      8.881
REMARK  Name = 
REMARK  6 active torsions:
REMARK  status: ('A' for Active; 'I' for Inactive)
REMARK    1  A    between atoms: C_1  and  C_2
REMARK    2  A    between atoms: C_5  and  N_6
REMARK    3  A    between atoms: C_7  and  C_9
REMARK    4  A    between atoms: C_9  and  C_10
REMARK    5  A    between atoms: N_12  and  C_13
REMARK    6  A    between atoms: C_23  and  C_24
REMARK                            x       y       z     vdW  Elec       q    Type
REMARK                         _______ _______ _______ _____ _____    ______ ____
ROOT
ATOM      1  N   UNL     1       1.846   8.102  19.183  0.00  0.00    +0.000 N 
ATOM      2  C   UNL     1       2.291   8.581  17.959  0.00  0.00    +0.000 C 
ATOM      3  O   UNL     1       2.216   9.743  17.565  0.00  0.00    +0.000 OA
ATOM      4  H   UNL     1       2.114   7.157  19.445  0.00  0.00    +0.000 HD
ENDROOT
BRANCH   1   9
ATOM      5  C   UNL     1      -1.139  11.089  23.104  0.00  0.00    +0.000 C 
ATOM      6  C   UNL     1      -0.335  10.379  22.052  0.00  0.00    +0.000 A 
ATOM      7  C   UNL     1       0.408   9.257  22.440  0.00  0.00    +0.000 A 
ATOM      8  C   UNL     1       1.146   8.522  21.513  0.00  0.00    +0.000 A 
ATOM      9  C   UNL     1       1.164   8.870  20.163  0.00  0.00    +0.000 A 
ATOM     10  C   UNL     1       0.468  10.023  19.772  0.00  0.00    +0.000 A 
ATOM     11  C   UNL     1      -0.297  10.783  20.701  0.00  0.00    +0.000 A 
BRANCH  11  12
ATOM     12  C   UNL     1      -1.048  11.990  20.169  0.00  0.00    +0.000 C 
ATOM     13  F   UNL     1      -0.744  13.174  20.767  0.00  0.00    +0.000 F 
ATOM     14  F   UNL     1      -0.826  12.188  18.839  0.00  0.00    +0.000 F 
ATOM     15  F   UNL     1      -2.399  11.855  20.302  0.00  0.00    +0.000 F 
ENDBRANCH  11  12
ENDBRANCH   1   9
BRANCH   2  16
ATOM     16  C   UNL     1       3.004   7.582  17.076  0.00  0.00    +0.000 C 
BRANCH  16  17
ATOM     17  C   UNL     1       3.586   6.395  17.795  0.00  0.00    +0.000 A 
ATOM     18  N   UNL     1       2.732   5.513  18.214  0.00  0.00    +0.000 NA
ATOM     19  N   UNL     1       3.187   4.418  18.891  0.00  0.00    +0.000 N 
ATOM     20  C   UNL     1       2.178   3.486  19.356  0.00  0.00    +0.000 C 
ATOM     21  C   UNL     1       4.525   4.161  19.167  0.00  0.00    +0.000 A 
ATOM     22  O   UNL     1       4.918   3.188  19.809  0.00  0.00    +0.000 OA
ATOM     23  C   UNL     1       5.501   5.123  18.625  0.00  0.00    +0.000 A 
ATOM     24  C   UNL     1       6.874   4.879  18.757  0.00  0.00    +0.000 A 
ATOM     25  C   UNL     1       7.795   5.771  18.213  0.00  0.00    +0.000 A 
ATOM     26  C   UNL     1       7.347   6.917  17.558  0.00  0.00    +0.000 A 
ATOM     27  C   UNL     1       5.976   7.167  17.430  0.00  0.00    +0.000 A 
ATOM     28  C   UNL     1       5.049   6.257  17.954  0.00  0.00    +0.000 A 
ENDBRANCH  16  17
ENDBRANCH   2  16
TORSDOF 4
ENDMDL
