MODEL 1
REMARK VINA RESULT:      -8.8      0.000      0.000
REMARK  Name = 
REMARK  10 active torsions:
REMARK  status: ('A' for Active; 'I' for Inactive)
REMARK    1  A    between atoms: C_1  and  C_2
REMARK    2  A    between atoms: C_6  and  C_7
REMARK    3  A    between atoms: C_10  and  S_11
REMARK    4  A    between atoms: S_11  and  C_12
REMARK    5  A    between atoms: C_12  and  C_13
REMARK    6  A    between atoms: N_15  and  C_16
REMARK    7  A    between atoms: C_20  and  C_21
REMARK    8  A    between atoms: C_21  and  O_23
REMARK    9  A    between atoms: N_25  and  C_26
REMARK   10  A    between atoms: C_26  and  C_27
REMARK                            x       y       z     vdW  Elec       q    Type
REMARK                         _______ _______ _______ _____ _____    ______ ____
ROOT
ATOM      1  C   UNL     1       4.312   4.264  19.402  0.00  0.00    +0.000 A 
ATOM      2  N   UNL     1       5.481   4.028  19.975  0.00  0.00    +0.000 NA
ATOM      3  N   UNL     1       6.450   4.779  19.352  0.00  0.00    +0.000 NA
ATOM      4  C   UNL     1       5.863   5.484  18.418  0.00  0.00    +0.000 A 
ATOM      5  N   UNL     1       4.508   5.236  18.435  0.00  0.00    +0.000 N 
ENDROOT
BRANCH   1  11
ATOM      6  C   UNL     1       2.546   2.150  17.630  0.00  0.00    +0.000 C 
ATOM      7  C   UNL     1       2.354   2.671  19.001  0.00  0.00    +0.000 A 
ATOM      8  O   UNL     1       1.248   2.203  19.647  0.00  0.00    +0.000 OA
ATOM      9  C   UNL     1       1.236   2.763  20.877  0.00  0.00    +0.000 A 
ATOM     10  C   UNL     1       2.331   3.583  21.041  0.00  0.00    +0.000 A 
ATOM     11  C   UNL     1       3.059   3.545  19.819  0.00  0.00    +0.000 A 
ENDBRANCH   1  11
BRANCH   4  12
ATOM     12  S   UNL     1       6.643   6.573  17.309  0.00  0.00    +0.000 S 
BRANCH  12  13
ATOM     13  C   UNL     1       8.055   7.166  18.288  0.00  0.00    +0.000 C 
BRANCH  13  14
ATOM     14  C   UNL     1       8.281   8.679  18.193  0.00  0.00    +0.000 C 
ATOM     15  O   UNL     1       7.653   9.326  17.355  0.00  0.00    +0.000 OA
ATOM     16  N   UNL     1       9.158   9.231  19.117  0.00  0.00    +0.000 N 
ATOM     17  H   UNL     1       9.715   8.566  19.644  0.00  0.00    +0.000 HD
BRANCH  16  18
ATOM     18  C   UNL     1       9.495  10.600  19.258  0.00  0.00    +0.000 A 
ATOM     19  C   UNL     1      10.038  11.372  18.226  0.00  0.00    +0.000 A 
ATOM     20  C   UNL     1      10.406  12.706  18.440  0.00  0.00    +0.000 A 
ATOM     21  C   UNL     1      10.231  13.294  19.690  0.00  0.00    +0.000 A 
ATOM     22  C   UNL     1       9.643  12.554  20.720  0.00  0.00    +0.000 A 
ATOM     23  C   UNL     1       9.275  11.212  20.501  0.00  0.00    +0.000 A 
BRANCH  22  24
ATOM     24  C   UNL     1       9.458  13.116  22.085  0.00  0.00    +0.000 C 
ATOM     25  O   UNL     1       9.695  14.284  22.345  0.00  0.00    +0.000 OA
BRANCH  24  26
ATOM     26  O   UNL     1       9.039  12.231  23.010  0.00  0.00    +0.000 OA
ATOM     27  H   UNL     1       8.102  11.969  22.956  0.00  0.00    +0.000 HD
ENDBRANCH  24  26
ENDBRANCH  22  24
ENDBRANCH  16  18
ENDBRANCH  13  14
ENDBRANCH  12  13
ENDBRANCH   4  12
BRANCH   5  28
ATOM     28  C   UNL     1       3.510   5.904  17.622  0.00  0.00    +0.000 C 
BRANCH  28  29
ATOM     29  C   UNL     1       2.764   7.023  18.319  0.00  0.00    +0.000 A 
ATOM     30  C   UNL     1       2.389   8.226  17.697  0.00  0.00    +0.000 A 
ATOM     31  C   UNL     1       1.732   9.230  18.413  0.00  0.00    +0.000 A 
ATOM     32  C   UNL     1       1.428   9.049  19.758  0.00  0.00    +0.000 A 
ATOM     33  C   UNL     1       1.769   7.857  20.388  0.00  0.00    +0.000 A 
ATOM     34  C   UNL     1       2.430   6.851  19.675  0.00  0.00    +0.000 A 
ENDBRANCH  28  29
ENDBRANCH   5  28
TORSDOF 9
ENDMDL
MODEL 2
REMARK VINA RESULT:      -8.5      4.968      9.065
REMARK  Name = 
REMARK  10 active torsions:
REMARK  status: ('A' for Active; 'I' for Inactive)
REMARK    1  A    between atoms: C_1  and  C_2
REMARK    2  A    between atoms: C_6  and  C_7
REMARK    3  A    between atoms: C_10  and  S_11
REMARK    4  A    between atoms: S_11  and  C_12
REMARK    5  A    between atoms: C_12  and  C_13
REMARK    6  A    between atoms: N_15  and  C_16
REMARK    7  A    between atoms: C_20  and  C_21
REMARK    8  A    between atoms: C_21  and  O_23
REMARK    9  A    between atoms: N_25  and  C_26
REMARK   10  A    between atoms: C_26  and  C_27
REMARK                            x       y       z     vdW  Elec       q    Type
REMARK                         _______ _______ _______ _____ _____    ______ ____
ROOT
ATOM      1  C   UNL     1       4.112   6.979  17.342  0.00  0.00    +0.000 A 
ATOM      2  N   UNL     1       3.699   8.080  16.735  0.00  0.00    +0.000 NA
ATOM      3  N   UNL     1       2.672   8.638  17.460  0.00  0.00    +0.000 NA
ATOM      4  C   UNL     1       2.480   7.887  18.515  0.00  0.00    +0.000 A 
ATOM      5  N   UNL     1       3.391   6.854  18.518  0.00  0.00    +0.000 N 
ENDROOT
BRANCH   1  11
ATOM      6  C   UNL     1       7.350   7.448  17.486  0.00  0.00    +0.000 C 
ATOM      7  C   UNL     1       6.548   6.380  16.852  0.00  0.00    +0.000 A 
ATOM      8  O   UNL     1       7.270   5.422  16.204  0.00  0.00    +0.000 OA
ATOM      9  C   UNL     1       6.391   4.528  15.702  0.00  0.00    +0.000 A 
ATOM     10  C   UNL     1       5.102   4.889  16.027  0.00  0.00    +0.000 A 
ATOM     11  C   UNL     1       5.188   6.105  16.762  0.00  0.00    +0.000 A 
ENDBRANCH   1  11
BRANCH   4  12
ATOM     12  S   UNL     1       1.270   8.126  19.741  0.00  0.00    +0.000 S 
BRANCH  12  13
ATOM     13  C   UNL     1       1.221   9.938  19.878  0.00  0.00    +0.000 C 
BRANCH  13  14
ATOM     14  C   UNL     1       0.170  10.597  18.979  0.00  0.00    +0.000 C 
ATOM     15  O   UNL     1       0.383  11.727  18.537  0.00  0.00    +0.000 OA
ATOM     16  N   UNL     1      -0.950   9.834  18.677  0.00  0.00    +0.000 N 
ATOM     17  H   UNL     1      -1.065   8.989  19.227  0.00  0.00    +0.000 HD
BRANCH  16  18
ATOM     18  C   UNL     1      -2.031  10.203  17.838  0.00  0.00    +0.000 A 
ATOM     19  C   UNL     1      -2.111   9.860  16.486  0.00  0.00    +0.000 A 
ATOM     20  C   UNL     1      -3.175  10.303  15.691  0.00  0.00    +0.000 A 
ATOM     21  C   UNL     1      -4.184  11.093  16.239  0.00  0.00    +0.000 A 
ATOM     22  C   UNL     1      -4.148  11.403  17.602  0.00  0.00    +0.000 A 
ATOM     23  C   UNL     1      -3.074  10.957  18.397  0.00  0.00    +0.000 A 
BRANCH  22  24
ATOM     24  C   UNL     1      -5.178  12.267  18.238  0.00  0.00    +0.000 C 
ATOM     25  O   UNL     1      -5.474  12.168  19.417  0.00  0.00    +0.000 OA
BRANCH  24  26
ATOM     26  O   UNL     1      -5.776  13.142  17.404  0.00  0.00    +0.000 OA
ATOM     27  H   UNL     1      -6.339  12.754  16.711  0.00  0.00    +0.000 HD
ENDBRANCH  24  26
ENDBRANCH  22  24
ENDBRANCH  16  18
ENDBRANCH  13  14
ENDBRANCH  12  13
ENDBRANCH   4  12
BRANCH   5  28
ATOM     28  C   UNL     1       3.564   5.873  19.572  0.00  0.00    +0.000 C 
BRANCH  28  29
ATOM     29  C   UNL     1       2.553   4.743  19.565  0.00  0.00    +0.000 A 
ATOM     30  C   UNL     1       1.893   4.272  20.711  0.00  0.00    +0.000 A 
ATOM     31  C   UNL     1       0.998   3.200  20.634  0.00  0.00    +0.000 A 
ATOM     32  C   UNL     1       0.738   2.591  19.411  0.00  0.00    +0.000 A 
ATOM     33  C   UNL     1       1.362   3.057  18.259  0.00  0.00    +0.000 A 
ATOM     34  C   UNL     1       2.262   4.125  18.335  0.00  0.00    +0.000 A 
ENDBRANCH  28  29
ENDBRANCH   5  28
TORSDOF 9
ENDMDL
MODEL 3
REMARK VINA RESULT:      -8.5      5.069      9.119
REMARK  Name = 
REMARK  10 active torsions:
REMARK  status: ('A' for Active; 'I' for Inactive)
REMARK    1  A    between atoms: C_1  and  C_2
REMARK    2  A    between atoms: C_6  and  C_7
REMARK    3  A    between atoms: C_10  and  S_11
REMARK    4  A    between atoms: S_11  and  C_12
REMARK    5  A    between atoms: C_12  and  C_13
REMARK    6  A    between atoms: N_15  and  C_16
REMARK    7  A    between atoms: C_20  and  C_21
REMARK    8  A    between atoms: C_21  and  O_23
REMARK    9  A    between atoms: N_25  and  C_26
REMARK   10  A    between atoms: C_26  and  C_27
REMARK                            x       y       z     vdW  Elec       q    Type
REMARK                         _______ _______ _______ _____ _____    ______ ____
ROOT
ATOM      1  C   UNL     1       3.748   6.994  17.637  0.00  0.00    +0.000 A 
ATOM      2  N   UNL     1       3.446   8.083  16.948  0.00  0.00    +0.000 NA
ATOM      3  N   UNL     1       2.483   8.794  17.625  0.00  0.00    +0.000 NA
ATOM      4  C   UNL     1       2.219   8.147  18.732  0.00  0.00    +0.000 A 
ATOM      5  N   UNL     1       3.022   7.030  18.816  0.00  0.00    +0.000 N 
ENDROOT
BRANCH   1  11
ATOM      6  C   UNL     1       6.999   7.305  17.403  0.00  0.00    +0.000 C 
ATOM      7  C   UNL     1       6.099   6.187  17.045  0.00  0.00    +0.000 A 
ATOM      8  O   UNL     1       6.719   5.093  16.518  0.00  0.00    +0.000 OA
ATOM      9  C   UNL     1       5.761   4.174  16.265  0.00  0.00    +0.000 A 
ATOM     10  C   UNL     1       4.524   4.656  16.635  0.00  0.00    +0.000 A 
ATOM     11  C   UNL     1       4.728   5.975  17.129  0.00  0.00    +0.000 A 
ENDBRANCH   1  11
BRANCH   4  12
ATOM     12  S   UNL     1       1.044   8.598  19.931  0.00  0.00    +0.000 S 
BRANCH  12  13
ATOM     13  C   UNL     1       1.039  10.411  19.796  0.00  0.00    +0.000 C 
BRANCH  13  14
ATOM     14  C   UNL     1      -0.065  10.960  18.886  0.00  0.00    +0.000 C 
ATOM     15  O   UNL     1      -0.011  12.135  18.522  0.00  0.00    +0.000 OA
ATOM     16  N   UNL     1      -1.039  10.056  18.485  0.00  0.00    +0.000 N 
ATOM     17  H   UNL     1      -1.044   9.169  18.978  0.00  0.00    +0.000 HD
BRANCH  16  18
ATOM     18  C   UNL     1      -2.130  10.311  17.616  0.00  0.00    +0.000 A 
ATOM     19  C   UNL     1      -2.148   9.938  16.269  0.00  0.00    +0.000 A 
ATOM     20  C   UNL     1      -3.229  10.268  15.444  0.00  0.00    +0.000 A 
ATOM     21  C   UNL     1      -4.318  10.972  15.955  0.00  0.00    +0.000 A 
ATOM     22  C   UNL     1      -4.341  11.308  17.311  0.00  0.00    +0.000 A 
ATOM     23  C   UNL     1      -3.250  10.976  18.138  0.00  0.00    +0.000 A 
BRANCH  22  24
ATOM     24  C   UNL     1      -5.460  12.085  17.908  0.00  0.00    +0.000 C 
ATOM     25  O   UNL     1      -5.315  12.778  18.902  0.00  0.00    +0.000 OA
BRANCH  24  26
ATOM     26  O   UNL     1      -6.646  11.940  17.285  0.00  0.00    +0.000 OA
ATOM     27  H   UNL     1      -7.429  12.234  17.784  0.00  0.00    +0.000 HD
ENDBRANCH  24  26
ENDBRANCH  22  24
ENDBRANCH  16  18
ENDBRANCH  13  14
ENDBRANCH  12  13
ENDBRANCH   4  12
BRANCH   5  28
ATOM     28  C   UNL     1       3.097   6.119  19.942  0.00  0.00    +0.000 C 
BRANCH  28  29
ATOM     29  C   UNL     1       2.270   4.857  19.798  0.00  0.00    +0.000 A 
ATOM     30  C   UNL     1       1.776   4.376  18.575  0.00  0.00    +0.000 A 
ATOM     31  C   UNL     1       0.988   3.222  18.523  0.00  0.00    +0.000 A 
ATOM     32  C   UNL     1       0.691   2.523  19.688  0.00  0.00    +0.000 A 
ATOM     33  C   UNL     1       1.190   2.969  20.908  0.00  0.00    +0.000 A 
ATOM     34  C   UNL     1       1.974   4.125  20.963  0.00  0.00    +0.000 A 
ENDBRANCH  28  29
ENDBRANCH   5  28
TORSDOF 9
ENDMDL
MODEL 4
REMARK VINA RESULT:      -8.4      4.831      9.186
REMARK  Name = 
REMARK  10 active torsions:
REMARK  status: ('A' for Active; 'I' for Inactive)
REMARK    1  A    between atoms: C_1  and  C_2
REMARK    2  A    between atoms: C_6  and  C_7
REMARK    3  A    between atoms: C_10  and  S_11
REMARK    4  A    between atoms: S_11  and  C_12
REMARK    5  A    between atoms: C_12  and  C_13
REMARK    6  A    between atoms: N_15  and  C_16
REMARK    7  A    between atoms: C_20  and  C_21
REMARK    8  A    between atoms: C_21  and  O_23
REMARK    9  A    between atoms: N_25  and  C_26
REMARK   10  A    between atoms: C_26  and  C_27
REMARK                            x       y       z     vdW  Elec       q    Type
REMARK                         _______ _______ _______ _____ _____    ______ ____
ROOT
ATOM      1  C   UNL     1       3.691   6.776  17.687  0.00  0.00    +0.000 A 
ATOM      2  N   UNL     1       3.459   7.878  16.993  0.00  0.00    +0.000 NA
ATOM      3  N   UNL     1       2.553   8.658  17.673  0.00  0.00    +0.000 NA
ATOM      4  C   UNL     1       2.256   8.038  18.787  0.00  0.00    +0.000 A 
ATOM      5  N   UNL     1       2.980   6.869  18.872  0.00  0.00    +0.000 N 
ENDROOT
BRANCH   1  11
ATOM      6  C   UNL     1       6.947   6.591  17.988  0.00  0.00    +0.000 C 
ATOM      7  C   UNL     1       5.976   5.688  17.332  0.00  0.00    +0.000 A 
ATOM      8  O   UNL     1       6.520   4.588  16.738  0.00  0.00    +0.000 OA
ATOM      9  C   UNL     1       5.503   3.875  16.207  0.00  0.00    +0.000 A 
ATOM     10  C   UNL     1       4.299   4.496  16.460  0.00  0.00    +0.000 A 
ATOM     11  C   UNL     1       4.595   5.689  17.178  0.00  0.00    +0.000 A 
ENDBRANCH   1  11
BRANCH   4  12
ATOM     12  S   UNL     1       1.125   8.576  19.993  0.00  0.00    +0.000 S 
BRANCH  12  13
ATOM     13  C   UNL     1       1.176  10.381  19.784  0.00  0.00    +0.000 C 
BRANCH  13  14
ATOM     14  C   UNL     1      -0.133  10.980  19.257  0.00  0.00    +0.000 C 
ATOM     15  O   UNL     1      -0.458  12.114  19.611  0.00  0.00    +0.000 OA
ATOM     16  N   UNL     1      -0.847  10.202  18.355  0.00  0.00    +0.000 N 
ATOM     17  H   UNL     1      -0.544   9.237  18.272  0.00  0.00    +0.000 HD
BRANCH  16  18
ATOM     18  C   UNL     1      -2.055  10.551  17.701  0.00  0.00    +0.000 A 
ATOM     19  C   UNL     1      -3.112  11.212  18.333  0.00  0.00    +0.000 A 
ATOM     20  C   UNL     1      -4.306  11.479  17.651  0.00  0.00    +0.000 A 
ATOM     21  C   UNL     1      -4.460  11.095  16.321  0.00  0.00    +0.000 A 
ATOM     22  C   UNL     1      -3.395  10.479  15.658  0.00  0.00    +0.000 A 
ATOM     23  C   UNL     1      -2.196  10.211  16.347  0.00  0.00    +0.000 A 
BRANCH  22  24
ATOM     24  C   UNL     1      -3.509  10.018  14.248  0.00  0.00    +0.000 C 
ATOM     25  O   UNL     1      -2.534   9.866  13.531  0.00  0.00    +0.000 OA
BRANCH  24  26
ATOM     26  O   UNL     1      -4.771   9.812  13.820  0.00  0.00    +0.000 OA
ATOM     27  H   UNL     1      -5.398  10.539  13.978  0.00  0.00    +0.000 HD
ENDBRANCH  24  26
ENDBRANCH  22  24
ENDBRANCH  16  18
ENDBRANCH  13  14
ENDBRANCH  12  13
ENDBRANCH   4  12
BRANCH   5  28
ATOM     28  C   UNL     1       3.004   5.962  20.003  0.00  0.00    +0.000 C 
BRANCH  28  29
ATOM     29  C   UNL     1       2.647   4.526  19.677  0.00  0.00    +0.000 A 
ATOM     30  C   UNL     1       3.529   3.443  19.827  0.00  0.00    +0.000 A 
ATOM     31  C   UNL     1       3.142   2.147  19.472  0.00  0.00    +0.000 A 
ATOM     32  C   UNL     1       1.865   1.909  18.974  0.00  0.00    +0.000 A 
ATOM     33  C   UNL     1       0.967   2.963  18.840  0.00  0.00    +0.000 A 
ATOM     34  C   UNL     1       1.354   4.260  19.190  0.00  0.00    +0.000 A 
ENDBRANCH  28  29
ENDBRANCH   5  28
TORSDOF 9
ENDMDL
MODEL 5
REMARK VINA RESULT:      -8.2      5.232      8.762
REMARK  Name = 
REMARK  10 active torsions:
REMARK  status: ('A' for Active; 'I' for Inactive)
REMARK    1  A    between atoms: C_1  and  C_2
REMARK    2  A    between atoms: C_6  and  C_7
REMARK    3  A    between atoms: C_10  and  S_11
REMARK    4  A    between atoms: S_11  and  C_12
REMARK    5  A    between atoms: C_12  and  C_13
REMARK    6  A    between atoms: N_15  and  C_16
REMARK    7  A    between atoms: C_20  and  C_21
REMARK    8  A    between atoms: C_21  and  O_23
REMARK    9  A    between atoms: N_25  and  C_26
REMARK   10  A    between atoms: C_26  and  C_27
REMARK                            x       y       z     vdW  Elec       q    Type
REMARK                         _______ _______ _______ _____ _____    ______ ____
ROOT
ATOM      1  C   UNL     1       3.767   6.829  17.859  0.00  0.00    +0.000 A 
ATOM      2  N   UNL     1       3.318   8.021  17.502  0.00  0.00    +0.000 NA
ATOM      3  N   UNL     1       2.400   8.455  18.430  0.00  0.00    +0.000 NA
ATOM      4  C   UNL     1       2.313   7.536  19.358  0.00  0.00    +0.000 A 
ATOM      5  N   UNL     1       3.188   6.510  19.076  0.00  0.00    +0.000 N 
ENDROOT
BRANCH   1  11
ATOM      6  C   UNL     1       6.960   7.431  17.452  0.00  0.00    +0.000 C 
ATOM      7  C   UNL     1       6.085   6.386  16.878  0.00  0.00    +0.000 A 
ATOM      8  O   UNL     1       6.703   5.521  16.024  0.00  0.00    +0.000 OA
ATOM      9  C   UNL     1       5.771   4.634  15.610  0.00  0.00    +0.000 A 
ATOM     10  C   UNL     1       4.555   4.906  16.198  0.00  0.00    +0.000 A 
ATOM     11  C   UNL     1       4.742   6.057  17.014  0.00  0.00    +0.000 A 
ENDBRANCH   1  11
BRANCH   4  12
ATOM     12  S   UNL     1       1.264   7.572  20.745  0.00  0.00    +0.000 S 
BRANCH  12  13
ATOM     13  C   UNL     1       1.305   9.330  21.207  0.00  0.00    +0.000 C 
BRANCH  13  14
ATOM     14  C   UNL     1      -0.021  10.061  20.973  0.00  0.00    +0.000 C 
ATOM     15  O   UNL     1      -0.757   9.689  20.059  0.00  0.00    +0.000 OA
ATOM     16  N   UNL     1      -0.329  11.080  21.865  0.00  0.00    +0.000 N 
ATOM     17  H   UNL     1       0.430  11.377  22.470  0.00  0.00    +0.000 HD
BRANCH  16  18
ATOM     18  C   UNL     1      -1.507  11.868  21.883  0.00  0.00    +0.000 A 
ATOM     19  C   UNL     1      -1.937  12.639  20.800  0.00  0.00    +0.000 A 
ATOM     20  C   UNL     1      -3.078  13.444  20.895  0.00  0.00    +0.000 A 
ATOM     21  C   UNL     1      -3.815  13.487  22.077  0.00  0.00    +0.000 A 
ATOM     22  C   UNL     1      -3.429  12.684  23.154  0.00  0.00    +0.000 A 
ATOM     23  C   UNL     1      -2.280  11.876  23.054  0.00  0.00    +0.000 A 
BRANCH  22  24
ATOM     24  C   UNL     1      -4.157  12.709  24.452  0.00  0.00    +0.000 C 
ATOM     25  O   UNL     1      -5.057  11.927  24.709  0.00  0.00    +0.000 OA
BRANCH  24  26
ATOM     26  O   UNL     1      -3.764  13.678  25.302  0.00  0.00    +0.000 OA
ATOM     27  H   UNL     1      -2.929  14.127  25.080  0.00  0.00    +0.000 HD
ENDBRANCH  24  26
ENDBRANCH  22  24
ENDBRANCH  16  18
ENDBRANCH  13  14
ENDBRANCH  12  13
ENDBRANCH   4  12
BRANCH   5  28
ATOM     28  C   UNL     1       3.455   5.362  19.921  0.00  0.00    +0.000 C 
BRANCH  28  29
ATOM     29  C   UNL     1       2.763   4.082  19.497  0.00  0.00    +0.000 A 
ATOM     30  C   UNL     1       1.370   3.903  19.501  0.00  0.00    +0.000 A 
ATOM     31  C   UNL     1       0.802   2.681  19.129  0.00  0.00    +0.000 A 
ATOM     32  C   UNL     1       1.613   1.621  18.737  0.00  0.00    +0.000 A 
ATOM     33  C   UNL     1       2.994   1.784  18.703  0.00  0.00    +0.000 A 
ATOM     34  C   UNL     1       3.565   3.004  19.079  0.00  0.00    +0.000 A 
ENDBRANCH  28  29
ENDBRANCH   5  28
TORSDOF 9
ENDMDL
MODEL 6
REMARK VINA RESULT:      -8.1      5.122      9.179
REMARK  Name = 
REMARK  10 active torsions:
REMARK  status: ('A' for Active; 'I' for Inactive)
REMARK    1  A    between atoms: C_1  and  C_2
REMARK    2  A    between atoms: C_6  and  C_7
REMARK    3  A    between atoms: C_10  and  S_11
REMARK    4  A    between atoms: S_11  and  C_12
REMARK    5  A    between atoms: C_12  and  C_13
REMARK    6  A    between atoms: N_15  and  C_16
REMARK    7  A    between atoms: C_20  and  C_21
REMARK    8  A    between atoms: C_21  and  O_23
REMARK    9  A    between atoms: N_25  and  C_26
REMARK   10  A    between atoms: C_26  and  C_27
REMARK                            x       y       z     vdW  Elec       q    Type
REMARK                         _______ _______ _______ _____ _____    ______ ____
ROOT
ATOM      1  C   UNL     1      -0.152  12.642  20.972  0.00  0.00    +0.000 A 
ATOM      2  N   UNL     1      -0.038  12.479  22.280  0.00  0.00    +0.000 NA
ATOM      3  N   UNL     1      -0.028  11.134  22.568  0.00  0.00    +0.000 NA
ATOM      4  C   UNL     1      -0.113  10.486  21.433  0.00  0.00    +0.000 A 
ATOM      5  N   UNL     1      -0.145  11.385  20.390  0.00  0.00    +0.000 N 
ENDROOT
BRANCH   1  11
ATOM      6  C   UNL     1       2.068  14.132  19.081  0.00  0.00    +0.000 C 
ATOM      7  C   UNL     1       0.743  14.578  19.563  0.00  0.00    +0.000 A 
ATOM      8  O   UNL     1       0.374  15.828  19.164  0.00  0.00    +0.000 OA
ATOM      9  C   UNL     1      -0.854  16.066  19.676  0.00  0.00    +0.000 A 
ATOM     10  C   UNL     1      -1.292  14.975  20.395  0.00  0.00    +0.000 A 
ATOM     11  C   UNL     1      -0.253  14.004  20.344  0.00  0.00    +0.000 A 
ENDBRANCH   1  11
BRANCH   4  12
ATOM     12  S   UNL     1      -0.179   8.760  21.237  0.00  0.00    +0.000 S 
BRANCH  12  13
ATOM     13  C   UNL     1       1.582   8.314  21.187  0.00  0.00    +0.000 C 
BRANCH  13  14
ATOM     14  C   UNL     1       2.023   7.688  19.860  0.00  0.00    +0.000 C 
ATOM     15  O   UNL     1       1.801   8.292  18.810  0.00  0.00    +0.000 OA
ATOM     16  N   UNL     1       2.706   6.482  19.944  0.00  0.00    +0.000 N 
ATOM     17  H   UNL     1       2.685   6.028  20.851  0.00  0.00    +0.000 HD
BRANCH  16  18
ATOM     18  C   UNL     1       3.248   5.734  18.868  0.00  0.00    +0.000 A 
ATOM     19  C   UNL     1       2.624   4.613  18.315  0.00  0.00    +0.000 A 
ATOM     20  C   UNL     1       3.235   3.878  17.292  0.00  0.00    +0.000 A 
ATOM     21  C   UNL     1       4.482   4.258  16.799  0.00  0.00    +0.000 A 
ATOM     22  C   UNL     1       5.098   5.407  17.304  0.00  0.00    +0.000 A 
ATOM     23  C   UNL     1       4.480   6.141  18.335  0.00  0.00    +0.000 A 
BRANCH  22  24
ATOM     24  C   UNL     1       6.442   5.845  16.840  0.00  0.00    +0.000 C 
ATOM     25  O   UNL     1       7.340   5.054  16.606  0.00  0.00    +0.000 OA
BRANCH  24  26
ATOM     26  O   UNL     1       6.595   7.180  16.730  0.00  0.00    +0.000 OA
ATOM     27  H   UNL     1       7.100   7.488  15.957  0.00  0.00    +0.000 HD
ENDBRANCH  24  26
ENDBRANCH  22  24
ENDBRANCH  16  18
ENDBRANCH  13  14
ENDBRANCH  12  13
ENDBRANCH   4  12
BRANCH   5  28
ATOM     28  C   UNL     1      -0.133  11.053  18.978  0.00  0.00    +0.000 C 
BRANCH  28  29
ATOM     29  C   UNL     1      -1.501  10.936  18.338  0.00  0.00    +0.000 A 
ATOM     30  C   UNL     1      -2.599  11.744  18.676  0.00  0.00    +0.000 A 
ATOM     31  C   UNL     1      -3.844  11.556  18.068  0.00  0.00    +0.000 A 
ATOM     32  C   UNL     1      -4.011  10.567  17.104  0.00  0.00    +0.000 A 
ATOM     33  C   UNL     1      -2.931   9.770  16.737  0.00  0.00    +0.000 A 
ATOM     34  C   UNL     1      -1.686   9.954  17.348  0.00  0.00    +0.000 A 
ENDBRANCH  28  29
ENDBRANCH   5  28
TORSDOF 9
ENDMDL
MODEL 7
REMARK VINA RESULT:      -8.1      5.074      8.945
REMARK  Name = 
REMARK  10 active torsions:
REMARK  status: ('A' for Active; 'I' for Inactive)
REMARK    1  A    between atoms: C_1  and  C_2
REMARK    2  A    between atoms: C_6  and  C_7
REMARK    3  A    between atoms: C_10  and  S_11
REMARK    4  A    between atoms: S_11  and  C_12
REMARK    5  A    between atoms: C_12  and  C_13
REMARK    6  A    between atoms: N_15  and  C_16
REMARK    7  A    between atoms: C_20  and  C_21
REMARK    8  A    between atoms: C_21  and  O_23
REMARK    9  A    between atoms: N_25  and  C_26
REMARK   10  A    between atoms: C_26  and  C_27
REMARK                            x       y       z     vdW  Elec       q    Type
REMARK                         _______ _______ _______ _____ _____    ______ ____
ROOT
ATOM      1  C   UNL     1      -0.302  11.723  21.738  0.00  0.00    +0.000 A 
ATOM      2  N   UNL     1       0.196  10.974  22.708  0.00  0.00    +0.000 NA
ATOM      3  N   UNL     1       0.799   9.866  22.161  0.00  0.00    +0.000 NA
ATOM      4  C   UNL     1       0.685   9.957  20.859  0.00  0.00    +0.000 A 
ATOM      5  N   UNL     1       0.042  11.131  20.534  0.00  0.00    +0.000 N 
ENDROOT
BRANCH   1  11
ATOM      6  C   UNL     1      -3.046  12.013  23.501  0.00  0.00    +0.000 C 
ATOM      7  C   UNL     1      -2.250  13.019  22.766  0.00  0.00    +0.000 A 
ATOM      8  O   UNL     1      -2.737  14.292  22.817  0.00  0.00    +0.000 OA
ATOM      9  C   UNL     1      -1.889  15.074  22.114  0.00  0.00    +0.000 A 
ATOM     10  C   UNL     1      -0.847  14.324  21.615  0.00  0.00    +0.000 A 
ATOM     11  C   UNL     1      -1.079  12.978  22.018  0.00  0.00    +0.000 A 
ENDBRANCH   1  11
BRANCH   4  12
ATOM     12  S   UNL     1       1.245   8.794  19.695  0.00  0.00    +0.000 S 
BRANCH  12  13
ATOM     13  C   UNL     1       1.542   7.330  20.732  0.00  0.00    +0.000 C 
BRANCH  13  14
ATOM     14  C   UNL     1       2.375   6.244  20.042  0.00  0.00    +0.000 C 
ATOM     15  O   UNL     1       2.533   5.161  20.607  0.00  0.00    +0.000 OA
ATOM     16  N   UNL     1       2.857   6.547  18.776  0.00  0.00    +0.000 N 
ATOM     17  H   UNL     1       2.781   7.521  18.499  0.00  0.00    +0.000 HD
BRANCH  16  18
ATOM     18  C   UNL     1       3.610   5.699  17.926  0.00  0.00    +0.000 A 
ATOM     19  C   UNL     1       3.190   4.422  17.541  0.00  0.00    +0.000 A 
ATOM     20  C   UNL     1       4.002   3.604  16.747  0.00  0.00    +0.000 A 
ATOM     21  C   UNL     1       5.249   4.054  16.316  0.00  0.00    +0.000 A 
ATOM     22  C   UNL     1       5.663   5.347  16.648  0.00  0.00    +0.000 A 
ATOM     23  C   UNL     1       4.844   6.165  17.449  0.00  0.00    +0.000 A 
BRANCH  22  24
ATOM     24  C   UNL     1       6.995   5.872  16.243  0.00  0.00    +0.000 C 
ATOM     25  O   UNL     1       7.566   6.751  16.868  0.00  0.00    +0.000 OA
BRANCH  24  26
ATOM     26  O   UNL     1       7.504   5.322  15.122  0.00  0.00    +0.000 OA
ATOM     27  H   UNL     1       8.264   5.786  14.727  0.00  0.00    +0.000 HD
ENDBRANCH  24  26
ENDBRANCH  22  24
ENDBRANCH  16  18
ENDBRANCH  13  14
ENDBRANCH  12  13
ENDBRANCH   4  12
BRANCH   5  28
ATOM     28  C   UNL     1      -0.178  11.638  19.193  0.00  0.00    +0.000 C 
BRANCH  28  29
ATOM     29  C   UNL     1      -1.518  11.275  18.586  0.00  0.00    +0.000 A 
ATOM     30  C   UNL     1      -2.719  11.943  18.874  0.00  0.00    +0.000 A 
ATOM     31  C   UNL     1      -3.926  11.530  18.302  0.00  0.00    +0.000 A 
ATOM     32  C   UNL     1      -3.953  10.451  17.424  0.00  0.00    +0.000 A 
ATOM     33  C   UNL     1      -2.771   9.790  17.106  0.00  0.00    +0.000 A 
ATOM     34  C   UNL     1      -1.564  10.198  17.680  0.00  0.00    +0.000 A 
ENDBRANCH  28  29
ENDBRANCH   5  28
TORSDOF 9
ENDMDL
MODEL 8
REMARK VINA RESULT:      -8.1      4.465      8.632
REMARK  Name = 
REMARK  10 active torsions:
REMARK  status: ('A' for Active; 'I' for Inactive)
REMARK    1  A    between atoms: C_1  and  C_2
REMARK    2  A    between atoms: C_6  and  C_7
REMARK    3  A    between atoms: C_10  and  S_11
REMARK    4  A    between atoms: S_11  and  C_12
REMARK    5  A    between atoms: C_12  and  C_13
REMARK    6  A    between atoms: N_15  and  C_16
REMARK    7  A    between atoms: C_20  and  C_21
REMARK    8  A    between atoms: C_21  and  O_23
REMARK    9  A    between atoms: N_25  and  C_26
REMARK   10  A    between atoms: C_26  and  C_27
REMARK                            x       y       z     vdW  Elec       q    Type
REMARK                         _______ _______ _______ _____ _____    ______ ____
ROOT
ATOM      1  C   UNL     1       4.241   6.691  17.540  0.00  0.00    +0.000 A 
ATOM      2  N   UNL     1       3.699   7.857  17.226  0.00  0.00    +0.000 NA
ATOM      3  N   UNL     1       2.715   8.158  18.140  0.00  0.00    +0.000 NA
ATOM      4  C   UNL     1       2.680   7.185  19.016  0.00  0.00    +0.000 A 
ATOM      5  N   UNL     1       3.652   6.257  18.715  0.00  0.00    +0.000 N 
ENDROOT
BRANCH   1  11
ATOM      6  C   UNL     1       7.450   7.347  17.560  0.00  0.00    +0.000 C 
ATOM      7  C   UNL     1       6.654   6.400  16.749  0.00  0.00    +0.000 A 
ATOM      8  O   UNL     1       7.369   5.674  15.843  0.00  0.00    +0.000 OA
ATOM      9  C   UNL     1       6.498   4.859  15.206  0.00  0.00    +0.000 A 
ATOM     10  C   UNL     1       5.224   5.041  15.699  0.00  0.00    +0.000 A 
ATOM     11  C   UNL     1       5.309   6.056  16.694  0.00  0.00    +0.000 A 
ENDBRANCH   1  11
BRANCH   4  12
ATOM     12  S   UNL     1       1.587   7.054  20.361  0.00  0.00    +0.000 S 
BRANCH  12  13
ATOM     13  C   UNL     1       1.791   8.666  21.176  0.00  0.00    +0.000 C 
BRANCH  13  14
ATOM     14  C   UNL     1       0.614   9.624  20.955  0.00  0.00    +0.000 C 
ATOM     15  O   UNL     1       0.265  10.365  21.874  0.00  0.00    +0.000 OA
ATOM     16  N   UNL     1       0.049   9.624  19.687  0.00  0.00    +0.000 N 
ATOM     17  H   UNL     1       0.334   8.861  19.080  0.00  0.00    +0.000 HD
BRANCH  16  18
ATOM     18  C   UNL     1      -1.012  10.443  19.228  0.00  0.00    +0.000 A 
ATOM     19  C   UNL     1      -1.549  11.499  19.971  0.00  0.00    +0.000 A 
ATOM     20  C   UNL     1      -2.637  12.238  19.491  0.00  0.00    +0.000 A 
ATOM     21  C   UNL     1      -3.203  11.938  18.253  0.00  0.00    +0.000 A 
ATOM     22  C   UNL     1      -2.647  10.919  17.474  0.00  0.00    +0.000 A 
ATOM     23  C   UNL     1      -1.553  10.177  17.961  0.00  0.00    +0.000 A 
BRANCH  22  24
ATOM     24  C   UNL     1      -3.225  10.532  16.159  0.00  0.00    +0.000 C 
ATOM     25  O   UNL     1      -4.329  10.906  15.798  0.00  0.00    +0.000 OA
BRANCH  24  26
ATOM     26  O   UNL     1      -2.450   9.717  15.417  0.00  0.00    +0.000 OA
ATOM     27  H   UNL     1      -1.793  10.156  14.848  0.00  0.00    +0.000 HD
ENDBRANCH  24  26
ENDBRANCH  22  24
ENDBRANCH  16  18
ENDBRANCH  13  14
ENDBRANCH  12  13
ENDBRANCH   4  12
BRANCH   5  28
ATOM     28  C   UNL     1       3.994   5.093  19.510  0.00  0.00    +0.000 C 
BRANCH  28  29
ATOM     29  C   UNL     1       2.960   3.985  19.495  0.00  0.00    +0.000 A 
ATOM     30  C   UNL     1       2.400   3.448  18.324  0.00  0.00    +0.000 A 
ATOM     31  C   UNL     1       1.424   2.449  18.388  0.00  0.00    +0.000 A 
ATOM     32  C   UNL     1       1.000   1.961  19.619  0.00  0.00    +0.000 A 
ATOM     33  C   UNL     1       1.558   2.462  20.791  0.00  0.00    +0.000 A 
ATOM     34  C   UNL     1       2.531   3.464  20.730  0.00  0.00    +0.000 A 
ENDBRANCH  28  29
ENDBRANCH   5  28
TORSDOF 9
ENDMDL
MODEL 9
REMARK VINA RESULT:      -8.1      5.009      9.180
REMARK  Name = 
REMARK  10 active torsions:
REMARK  status: ('A' for Active; 'I' for Inactive)
REMARK    1  A    between atoms: C_1  and  C_2
REMARK    2  A    between atoms: C_6  and  C_7
REMARK    3  A    between atoms: C_10  and  S_11
REMARK    4  A    between atoms: S_11  and  C_12
REMARK    5  A    between atoms: C_12  and  C_13
REMARK    6  A    between atoms: N_15  and  C_16
REMARK    7  A    between atoms: C_20  and  C_21
REMARK    8  A    between atoms: C_21  and  O_23
REMARK    9  A    between atoms: N_25  and  C_26
REMARK   10  A    between atoms: C_26  and  C_27
REMARK                            x       y       z     vdW  Elec       q    Type
REMARK                         _______ _______ _______ _____ _____    ______ ____
ROOT
ATOM      1  C   UNL     1       4.366   6.650  17.210  0.00  0.00    +0.000 A 
ATOM      2  N   UNL     1       4.026   7.786  16.623  0.00  0.00    +0.000 NA
ATOM      3  N   UNL     1       3.049   8.405  17.368  0.00  0.00    +0.000 NA
ATOM      4  C   UNL     1       2.816   7.654  18.415  0.00  0.00    +0.000 A 
ATOM      5  N   UNL     1       3.652   6.559  18.393  0.00  0.00    +0.000 N 
ENDROOT
BRANCH   1  11
ATOM      6  C   UNL     1       7.615   6.678  17.619  0.00  0.00    +0.000 C 
ATOM      7  C   UNL     1       6.742   5.796  16.815  0.00  0.00    +0.000 A 
ATOM      8  O   UNL     1       7.392   4.826  16.110  0.00  0.00    +0.000 OA
ATOM      9  C   UNL     1       6.453   4.112  15.452  0.00  0.00    +0.000 A 
ATOM     10  C   UNL     1       5.196   4.600  15.731  0.00  0.00    +0.000 A 
ATOM     11  C   UNL     1       5.371   5.710  16.605  0.00  0.00    +0.000 A 
ENDBRANCH   1  11
BRANCH   4  12
ATOM     12  S   UNL     1       1.641   7.961  19.659  0.00  0.00    +0.000 S 
BRANCH  12  13
ATOM     13  C   UNL     1       1.202   9.697  19.347  0.00  0.00    +0.000 C 
BRANCH  13  14
ATOM     14  C   UNL     1      -0.205  10.074  19.826  0.00  0.00    +0.000 C 
ATOM     15  O   UNL     1      -0.729   9.414  20.724  0.00  0.00    +0.000 OA
ATOM     16  N   UNL     1      -0.779  11.192  19.235  0.00  0.00    +0.000 N 
ATOM     17  H   UNL     1      -0.303  11.545  18.410  0.00  0.00    +0.000 HD
BRANCH  16  18
ATOM     18  C   UNL     1      -2.042  11.760  19.536  0.00  0.00    +0.000 A 
ATOM     19  C   UNL     1      -2.297  12.507  20.689  0.00  0.00    +0.000 A 
ATOM     20  C   UNL     1      -3.581  12.995  20.963  0.00  0.00    +0.000 A 
ATOM     21  C   UNL     1      -4.631  12.749  20.082  0.00  0.00    +0.000 A 
ATOM     22  C   UNL     1      -4.384  12.048  18.898  0.00  0.00    +0.000 A 
ATOM     23  C   UNL     1      -3.092  11.558  18.628  0.00  0.00    +0.000 A 
BRANCH  22  24
ATOM     24  C   UNL     1      -5.471  11.728  17.934  0.00  0.00    +0.000 C 
ATOM     25  O   UNL     1      -5.431  12.082  16.767  0.00  0.00    +0.000 OA
BRANCH  24  26
ATOM     26  O   UNL     1      -6.509  11.046  18.457  0.00  0.00    +0.000 OA
ATOM     27  H   UNL     1      -6.988  11.488  19.180  0.00  0.00    +0.000 HD
ENDBRANCH  24  26
ENDBRANCH  22  24
ENDBRANCH  16  18
ENDBRANCH  13  14
ENDBRANCH  12  13
ENDBRANCH   4  12
BRANCH   5  28
ATOM     28  C   UNL     1       3.766   5.554  19.432  0.00  0.00    +0.000 C 
BRANCH  28  29
ATOM     29  C   UNL     1       2.733   4.447  19.366  0.00  0.00    +0.000 A 
ATOM     30  C   UNL     1       1.727   4.251  20.327  0.00  0.00    +0.000 A 
ATOM     31  C   UNL     1       0.829   3.186  20.219  0.00  0.00    +0.000 A 
ATOM     32  C   UNL     1       0.910   2.306  19.145  0.00  0.00    +0.000 A 
ATOM     33  C   UNL     1       1.882   2.495  18.169  0.00  0.00    +0.000 A 
ATOM     34  C   UNL     1       2.786   3.557  18.277  0.00  0.00    +0.000 A 
ENDBRANCH  28  29
ENDBRANCH   5  28
TORSDOF 9
ENDMDL
