MODEL 1
REMARK VINA RESULT:      -7.2      0.000      0.000
REMARK  Name = 
REMARK  5 active torsions:
REMARK  status: ('A' for Active; 'I' for Inactive)
REMARK    1  A    between atoms: C_1  and  C_2
REMARK    2  A    between atoms: C_4  and  N_5
REMARK    3  A    between atoms: C_9  and  N_10
REMARK    4  A    between atoms: C_11  and  C_13
REMARK    5  A    between atoms: N_24  and  C_25
REMARK                            x       y       z     vdW  Elec       q    Type
REMARK                         _______ _______ _______ _____ _____    ______ ____
ROOT
ATOM      1  N   UNL     1      -1.278  11.423  18.249  0.00  0.00    +0.000 N 
ATOM      2  C   UNL     1      -0.537  12.691  18.160  0.00  0.00    +0.000 C 
ATOM      3  C   UNL     1       0.880  12.628  18.698  0.00  0.00    +0.000 C 
ATOM      4  C   UNL     1       0.943  11.860  20.004  0.00  0.00    +0.000 C 
ATOM      5  C   UNL     1       0.443  10.428  19.857  0.00  0.00    +0.000 C 
ATOM      6  C   UNL     1      -0.922  10.354  19.160  0.00  0.00    +0.000 C 
ATOM      7  O   UNL     1      -1.668   9.387  19.275  0.00  0.00    +0.000 OA
ENDROOT
BRANCH   1  11
ATOM      8  C   UNL     1      -4.045  10.225  14.276  0.00  0.00    +0.000 C 
ATOM      9  C   UNL     1      -3.563  10.671  15.605  0.00  0.00    +0.000 A 
ATOM     10  C   UNL     1      -2.234  10.704  16.093  0.00  0.00    +0.000 A 
ATOM     11  C   UNL     1      -2.338  11.195  17.374  0.00  0.00    +0.000 A 
ATOM     12  N   UNL     1      -3.671  11.421  17.584  0.00  0.00    +0.000 N 
ATOM     13  C   UNL     1      -4.270  12.096  18.709  0.00  0.00    +0.000 C 
ATOM     14  N   UNL     1      -4.435  11.136  16.510  0.00  0.00    +0.000 NA
ENDBRANCH   1  11
BRANCH   5  15
ATOM     15  N   UNL     1       1.424   9.516  19.268  0.00  0.00    +0.000 N 
ATOM     16  C   UNL     1       1.675   8.264  19.783  0.00  0.00    +0.000 C 
ATOM     17  O   UNL     1       1.178   7.888  20.840  0.00  0.00    +0.000 OA
ATOM     18  H   UNL     1       1.832   9.760  18.374  0.00  0.00    +0.000 HD
BRANCH  16  19
ATOM     19  C   UNL     1       2.565   7.413  19.018  0.00  0.00    +0.000 A 
ATOM     20  C   UNL     1       3.279   7.820  17.849  0.00  0.00    +0.000 A 
ATOM     21  C   UNL     1       4.010   6.747  17.400  0.00  0.00    +0.000 A 
ATOM     22  C   UNL     1       4.889   6.537  16.300  0.00  0.00    +0.000 A 
ATOM     23  C   UNL     1       5.449   5.325  16.121  0.00  0.00    +0.000 A 
ATOM     24  C   UNL     1       5.180   4.222  17.030  0.00  0.00    +0.000 A 
ATOM     25  C   UNL     1       4.358   4.424  18.075  0.00  0.00    +0.000 A 
ATOM     26  N   UNL     1       3.779   5.678  18.253  0.00  0.00    +0.000 N 
ATOM     27  C   UNL     1       2.911   6.088  19.243  0.00  0.00    +0.000 A 
ENDBRANCH  16  19
ENDBRANCH   5  15
TORSDOF 3
ENDMDL
MODEL 2
REMARK VINA RESULT:      -7.0      3.579      8.372
REMARK  Name = 
REMARK  5 active torsions:
REMARK  status: ('A' for Active; 'I' for Inactive)
REMARK    1  A    between atoms: C_1  and  C_2
REMARK    2  A    between atoms: C_4  and  N_5
REMARK    3  A    between atoms: C_9  and  N_10
REMARK    4  A    between atoms: C_11  and  C_13
REMARK    5  A    between atoms: N_24  and  C_25
REMARK                            x       y       z     vdW  Elec       q    Type
REMARK                         _______ _______ _______ _____ _____    ______ ____
ROOT
ATOM      1  N   UNL     1       3.809   4.279  17.736  0.00  0.00    +0.000 N 
ATOM      2  C   UNL     1       2.559   3.595  17.372  0.00  0.00    +0.000 C 
ATOM      3  C   UNL     1       1.481   3.651  18.439  0.00  0.00    +0.000 C 
ATOM      4  C   UNL     1       2.053   3.397  19.819  0.00  0.00    +0.000 C 
ATOM      5  C   UNL     1       3.126   4.411  20.196  0.00  0.00    +0.000 C 
ATOM      6  C   UNL     1       4.191   4.569  19.103  0.00  0.00    +0.000 C 
ATOM      7  O   UNL     1       5.310   5.016  19.335  0.00  0.00    +0.000 OA
ENDROOT
BRANCH   1  11
ATOM      8  C   UNL     1       7.092   4.574  13.992  0.00  0.00    +0.000 C 
ATOM      9  C   UNL     1       6.114   4.866  15.068  0.00  0.00    +0.000 A 
ATOM     10  C   UNL     1       5.435   3.954  15.912  0.00  0.00    +0.000 A 
ATOM     11  C   UNL     1       4.649   4.738  16.724  0.00  0.00    +0.000 A 
ATOM     12  N   UNL     1       4.884   6.031  16.340  0.00  0.00    +0.000 N 
ATOM     13  C   UNL     1       4.430   7.228  17.004  0.00  0.00    +0.000 C 
ATOM     14  N   UNL     1       5.795   6.136  15.352  0.00  0.00    +0.000 NA
ENDBRANCH   1  11
BRANCH   5  15
ATOM     15  N   UNL     1       2.592   5.697  20.649  0.00  0.00    +0.000 N 
ATOM     16  C   UNL     1       2.120   6.652  19.777  0.00  0.00    +0.000 C 
ATOM     17  O   UNL     1       2.232   6.529  18.561  0.00  0.00    +0.000 OA
ATOM     18  H   UNL     1       2.441   5.832  21.641  0.00  0.00    +0.000 HD
BRANCH  16  19
ATOM     19  C   UNL     1       1.489   7.816  20.367  0.00  0.00    +0.000 A 
ATOM     20  C   UNL     1       0.816   7.828  21.627  0.00  0.00    +0.000 A 
ATOM     21  C   UNL     1       0.345   9.100  21.848  0.00  0.00    +0.000 A 
ATOM     22  C   UNL     1      -0.395   9.715  22.897  0.00  0.00    +0.000 A 
ATOM     23  C   UNL     1      -0.726  11.018  22.799  0.00  0.00    +0.000 A 
ATOM     24  C   UNL     1      -0.340  11.815  21.645  0.00  0.00    +0.000 A 
ATOM     25  C   UNL     1       0.368  11.236  20.661  0.00  0.00    +0.000 A 
ATOM     26  N   UNL     1       0.705   9.888  20.765  0.00  0.00    +0.000 N 
ATOM     27  C   UNL     1       1.411   9.110  19.872  0.00  0.00    +0.000 A 
ENDBRANCH  16  19
ENDBRANCH   5  15
TORSDOF 3
ENDMDL
MODEL 3
REMARK VINA RESULT:      -7.0      2.867      4.723
REMARK  Name = 
REMARK  5 active torsions:
REMARK  status: ('A' for Active; 'I' for Inactive)
REMARK    1  A    between atoms: C_1  and  C_2
REMARK    2  A    between atoms: C_4  and  N_5
REMARK    3  A    between atoms: C_9  and  N_10
REMARK    4  A    between atoms: C_11  and  C_13
REMARK    5  A    between atoms: N_24  and  C_25
REMARK                            x       y       z     vdW  Elec       q    Type
REMARK                         _______ _______ _______ _____ _____    ______ ____
ROOT
ATOM      1  N   UNL     1      -0.608  11.553  20.271  0.00  0.00    +0.000 N 
ATOM      2  C   UNL     1      -1.680  11.370  19.280  0.00  0.00    +0.000 C 
ATOM      3  C   UNL     1      -1.379  10.333  18.215  0.00  0.00    +0.000 C 
ATOM      4  C   UNL     1       0.044  10.458  17.706  0.00  0.00    +0.000 C 
ATOM      5  C   UNL     1       1.072  10.288  18.817  0.00  0.00    +0.000 C 
ATOM      6  C   UNL     1       0.770  11.172  20.035  0.00  0.00    +0.000 C 
ATOM      7  O   UNL     1       1.630  11.482  20.852  0.00  0.00    +0.000 OA
ENDROOT
BRANCH   1  11
ATOM      8  C   UNL     1      -1.695  14.553  24.105  0.00  0.00    +0.000 C 
ATOM      9  C   UNL     1      -1.401  13.390  23.233  0.00  0.00    +0.000 A 
ATOM     10  C   UNL     1      -1.124  13.380  21.844  0.00  0.00    +0.000 A 
ATOM     11  C   UNL     1      -0.928  12.055  21.531  0.00  0.00    +0.000 A 
ATOM     12  N   UNL     1      -1.093  11.363  22.700  0.00  0.00    +0.000 N 
ATOM     13  C   UNL     1      -0.818   9.966  22.927  0.00  0.00    +0.000 C 
ATOM     14  N   UNL     1      -1.353  12.159  23.757  0.00  0.00    +0.000 NA
ENDBRANCH   1  11
BRANCH   5  15
ATOM     15  N   UNL     1       1.322   8.893  19.185  0.00  0.00    +0.000 N 
ATOM     16  C   UNL     1       2.228   8.102  18.517  0.00  0.00    +0.000 C 
ATOM     17  O   UNL     1       2.792   8.484  17.496  0.00  0.00    +0.000 OA
ATOM     18  H   UNL     1       0.914   8.542  20.043  0.00  0.00    +0.000 HD
BRANCH  16  19
ATOM     19  C   UNL     1       2.480   6.787  19.076  0.00  0.00    +0.000 A 
ATOM     20  C   UNL     1       1.809   6.243  20.213  0.00  0.00    +0.000 A 
ATOM     21  C   UNL     1       2.315   4.987  20.447  0.00  0.00    +0.000 A 
ATOM     22  C   UNL     1       2.059   3.981  21.420  0.00  0.00    +0.000 A 
ATOM     23  C   UNL     1       2.761   2.831  21.386  0.00  0.00    +0.000 A 
ATOM     24  C   UNL     1       3.776   2.591  20.372  0.00  0.00    +0.000 A 
ATOM     25  C   UNL     1       4.009   3.538  19.447  0.00  0.00    +0.000 A 
ATOM     26  N   UNL     1       3.283   4.726  19.489  0.00  0.00    +0.000 N 
ATOM     27  C   UNL     1       3.373   5.815  18.649  0.00  0.00    +0.000 A 
ENDBRANCH  16  19
ENDBRANCH   5  15
TORSDOF 3
ENDMDL
MODEL 4
REMARK VINA RESULT:      -7.0      0.452      1.159
REMARK  Name = 
REMARK  5 active torsions:
REMARK  status: ('A' for Active; 'I' for Inactive)
REMARK    1  A    between atoms: C_1  and  C_2
REMARK    2  A    between atoms: C_4  and  N_5
REMARK    3  A    between atoms: C_9  and  N_10
REMARK    4  A    between atoms: C_11  and  C_13
REMARK    5  A    between atoms: N_24  and  C_25
REMARK                            x       y       z     vdW  Elec       q    Type
REMARK                         _______ _______ _______ _____ _____    ______ ____
ROOT
ATOM      1  N   UNL     1      -1.239  11.421  18.277  0.00  0.00    +0.000 N 
ATOM      2  C   UNL     1      -0.497  12.689  18.202  0.00  0.00    +0.000 C 
ATOM      3  C   UNL     1       0.941  12.602  18.677  0.00  0.00    +0.000 C 
ATOM      4  C   UNL     1       1.055  11.788  19.951  0.00  0.00    +0.000 C 
ATOM      5  C   UNL     1       0.543  10.363  19.774  0.00  0.00    +0.000 C 
ATOM      6  C   UNL     1      -0.850  10.318  19.132  0.00  0.00    +0.000 C 
ATOM      7  O   UNL     1      -1.595   9.350  19.244  0.00  0.00    +0.000 OA
ENDROOT
BRANCH   1  11
ATOM      8  C   UNL     1      -4.178  10.354  14.390  0.00  0.00    +0.000 C 
ATOM      9  C   UNL     1      -3.637  10.762  15.709  0.00  0.00    +0.000 A 
ATOM     10  C   UNL     1      -2.290  10.765  16.145  0.00  0.00    +0.000 A 
ATOM     11  C   UNL     1      -2.336  11.227  17.439  0.00  0.00    +0.000 A 
ATOM     12  N   UNL     1      -3.657  11.467  17.707  0.00  0.00    +0.000 N 
ATOM     13  C   UNL     1      -4.201  12.124  18.870  0.00  0.00    +0.000 C 
ATOM     14  N   UNL     1      -4.466  11.218  16.658  0.00  0.00    +0.000 NA
ENDBRANCH   1  11
BRANCH   5  15
ATOM     15  N   UNL     1       1.495   9.470  19.112  0.00  0.00    +0.000 N 
ATOM     16  C   UNL     1       1.775   8.207  19.581  0.00  0.00    +0.000 C 
ATOM     17  O   UNL     1       1.333   7.802  20.653  0.00  0.00    +0.000 OA
ATOM     18  H   UNL     1       1.855   9.739  18.205  0.00  0.00    +0.000 HD
BRANCH  16  19
ATOM     19  C   UNL     1       2.626   7.378  18.749  0.00  0.00    +0.000 A 
ATOM     20  C   UNL     1       2.727   5.957  18.847  0.00  0.00    +0.000 A 
ATOM     21  C   UNL     1       3.631   5.527  17.906  0.00  0.00    +0.000 A 
ATOM     22  C   UNL     1       4.146   4.253  17.536  0.00  0.00    +0.000 A 
ATOM     23  C   UNL     1       5.065   4.169  16.554  0.00  0.00    +0.000 A 
ATOM     24  C   UNL     1       5.543   5.353  15.858  0.00  0.00    +0.000 A 
ATOM     25  C   UNL     1       5.048   6.555  16.201  0.00  0.00    +0.000 A 
ATOM     26  N   UNL     1       4.100   6.636  17.219  0.00  0.00    +0.000 N 
ATOM     27  C   UNL     1       3.479   7.759  17.723  0.00  0.00    +0.000 A 
ENDBRANCH  16  19
ENDBRANCH   5  15
TORSDOF 3
ENDMDL
MODEL 5
REMARK VINA RESULT:      -7.0      2.874      8.870
REMARK  Name = 
REMARK  5 active torsions:
REMARK  status: ('A' for Active; 'I' for Inactive)
REMARK    1  A    between atoms: C_1  and  C_2
REMARK    2  A    between atoms: C_4  and  N_5
REMARK    3  A    between atoms: C_9  and  N_10
REMARK    4  A    between atoms: C_11  and  C_13
REMARK    5  A    between atoms: N_24  and  C_25
REMARK                            x       y       z     vdW  Elec       q    Type
REMARK                         _______ _______ _______ _____ _____    ______ ____
ROOT
ATOM      1  N   UNL     1       0.645  10.867  19.009  0.00  0.00    +0.000 N 
ATOM      2  C   UNL     1       1.483  12.056  19.230  0.00  0.00    +0.000 C 
ATOM      3  C   UNL     1       0.718  13.366  19.251  0.00  0.00    +0.000 C 
ATOM      4  C   UNL     1      -0.315  13.422  18.143  0.00  0.00    +0.000 C 
ATOM      5  C   UNL     1      -1.334  12.294  18.245  0.00  0.00    +0.000 C 
ATOM      6  C   UNL     1      -0.670  10.919  18.405  0.00  0.00    +0.000 C 
ATOM      7  O   UNL     1      -1.249   9.874  18.127  0.00  0.00    +0.000 OA
ENDROOT
BRANCH   1  11
ATOM      8  C   UNL     1       2.734   6.348  19.326  0.00  0.00    +0.000 C 
ATOM      9  C   UNL     1       2.016   7.618  19.594  0.00  0.00    +0.000 A 
ATOM     10  C   UNL     1       1.815   8.716  18.722  0.00  0.00    +0.000 A 
ATOM     11  C   UNL     1       1.096   9.628  19.459  0.00  0.00    +0.000 A 
ATOM     12  N   UNL     1       0.911   9.056  20.689  0.00  0.00    +0.000 N 
ATOM     13  C   UNL     1       0.069   9.543  21.754  0.00  0.00    +0.000 C 
ATOM     14  N   UNL     1       1.438   7.819  20.785  0.00  0.00    +0.000 NA
ENDBRANCH   1  11
BRANCH   5  15
ATOM     15  N   UNL     1      -2.381  12.530  19.240  0.00  0.00    +0.000 N 
ATOM     16  C   UNL     1      -3.689  12.149  19.044  0.00  0.00    +0.000 C 
ATOM     17  O   UNL     1      -4.078  11.700  17.970  0.00  0.00    +0.000 OA
ATOM     18  H   UNL     1      -2.107  12.860  20.158  0.00  0.00    +0.000 HD
BRANCH  16  19
ATOM     19  C   UNL     1      -4.591  12.315  20.168  0.00  0.00    +0.000 A 
ATOM     20  C   UNL     1      -4.222  12.862  21.435  0.00  0.00    +0.000 A 
ATOM     21  C   UNL     1      -5.333  12.853  22.243  0.00  0.00    +0.000 A 
ATOM     22  C   UNL     1      -5.585  13.251  23.586  0.00  0.00    +0.000 A 
ATOM     23  C   UNL     1      -6.817  13.089  24.106  0.00  0.00    +0.000 A 
ATOM     24  C   UNL     1      -7.902  12.517  23.324  0.00  0.00    +0.000 A 
ATOM     25  C   UNL     1      -7.666  12.151  22.052  0.00  0.00    +0.000 A 
ATOM     26  N   UNL     1      -6.389  12.318  21.521  0.00  0.00    +0.000 N 
ATOM     27  C   UNL     1      -5.940  12.004  20.256  0.00  0.00    +0.000 A 
ENDBRANCH  16  19
ENDBRANCH   5  15
TORSDOF 3
ENDMDL
MODEL 6
REMARK VINA RESULT:      -7.0      2.917      4.663
REMARK  Name = 
REMARK  5 active torsions:
REMARK  status: ('A' for Active; 'I' for Inactive)
REMARK    1  A    between atoms: C_1  and  C_2
REMARK    2  A    between atoms: C_4  and  N_5
REMARK    3  A    between atoms: C_9  and  N_10
REMARK    4  A    between atoms: C_11  and  C_13
REMARK    5  A    between atoms: N_24  and  C_25
REMARK                            x       y       z     vdW  Elec       q    Type
REMARK                         _______ _______ _______ _____ _____    ______ ____
ROOT
ATOM      1  N   UNL     1      -0.571  11.526  20.290  0.00  0.00    +0.000 N 
ATOM      2  C   UNL     1      -1.601  11.329  19.258  0.00  0.00    +0.000 C 
ATOM      3  C   UNL     1      -1.256  10.274  18.224  0.00  0.00    +0.000 C 
ATOM      4  C   UNL     1       0.188  10.390  17.774  0.00  0.00    +0.000 C 
ATOM      5  C   UNL     1       1.168  10.238  18.931  0.00  0.00    +0.000 C 
ATOM      6  C   UNL     1       0.815  11.142  20.120  0.00  0.00    +0.000 C 
ATOM      7  O   UNL     1       1.639  11.465  20.968  0.00  0.00    +0.000 OA
ENDROOT
BRANCH   1  11
ATOM      8  C   UNL     1      -1.875  14.583  24.011  0.00  0.00    +0.000 C 
ATOM      9  C   UNL     1      -1.514  13.410  23.179  0.00  0.00    +0.000 A 
ATOM     10  C   UNL     1      -1.200  13.373  21.798  0.00  0.00    +0.000 A 
ATOM     11  C   UNL     1      -0.945  12.049  21.527  0.00  0.00    +0.000 A 
ATOM     12  N   UNL     1      -1.115  11.382  22.710  0.00  0.00    +0.000 N 
ATOM     13  C   UNL     1      -0.794  10.003  22.983  0.00  0.00    +0.000 C 
ATOM     14  N   UNL     1      -1.434  12.195  23.738  0.00  0.00    +0.000 NA
ENDBRANCH   1  11
BRANCH   5  15
ATOM     15  N   UNL     1       1.400   8.849  19.331  0.00  0.00    +0.000 N 
ATOM     16  C   UNL     1       2.229   8.004  18.628  0.00  0.00    +0.000 C 
ATOM     17  O   UNL     1       2.726   8.331  17.554  0.00  0.00    +0.000 OA
ATOM     18  H   UNL     1       1.047   8.542  20.229  0.00  0.00    +0.000 HD
BRANCH  16  19
ATOM     19  C   UNL     1       2.480   6.703  19.216  0.00  0.00    +0.000 A 
ATOM     20  C   UNL     1       3.487   5.790  18.777  0.00  0.00    +0.000 A 
ATOM     21  C   UNL     1       3.419   4.667  19.565  0.00  0.00    +0.000 A 
ATOM     22  C   UNL     1       4.138   3.439  19.605  0.00  0.00    +0.000 A 
ATOM     23  C   UNL     1       3.804   2.505  20.516  0.00  0.00    +0.000 A 
ATOM     24  C   UNL     1       2.724   2.722  21.467  0.00  0.00    +0.000 A 
ATOM     25  C   UNL     1       2.053   3.886  21.435  0.00  0.00    +0.000 A 
ATOM     26  N   UNL     1       2.400   4.848  20.488  0.00  0.00    +0.000 N 
ATOM     27  C   UNL     1       1.839   6.090  20.283  0.00  0.00    +0.000 A 
ENDBRANCH  16  19
ENDBRANCH   5  15
TORSDOF 3
ENDMDL
MODEL 7
REMARK VINA RESULT:      -6.9      2.861      8.845
REMARK  Name = 
REMARK  5 active torsions:
REMARK  status: ('A' for Active; 'I' for Inactive)
REMARK    1  A    between atoms: C_1  and  C_2
REMARK    2  A    between atoms: C_4  and  N_5
REMARK    3  A    between atoms: C_9  and  N_10
REMARK    4  A    between atoms: C_11  and  C_13
REMARK    5  A    between atoms: N_24  and  C_25
REMARK                            x       y       z     vdW  Elec       q    Type
REMARK                         _______ _______ _______ _____ _____    ______ ____
ROOT
ATOM      1  N   UNL     1       0.671  10.973  18.846  0.00  0.00    +0.000 N 
ATOM      2  C   UNL     1       1.496  12.168  19.086  0.00  0.00    +0.000 C 
ATOM      3  C   UNL     1       0.713  13.465  19.162  0.00  0.00    +0.000 C 
ATOM      4  C   UNL     1      -0.344  13.538  18.077  0.00  0.00    +0.000 C 
ATOM      5  C   UNL     1      -1.344  12.392  18.165  0.00  0.00    +0.000 C 
ATOM      6  C   UNL     1      -0.657  11.023  18.270  0.00  0.00    +0.000 C 
ATOM      7  O   UNL     1      -1.225   9.978  17.972  0.00  0.00    +0.000 OA
ENDROOT
BRANCH   1  11
ATOM      8  C   UNL     1       2.798   6.463  18.973  0.00  0.00    +0.000 C 
ATOM      9  C   UNL     1       2.086   7.722  19.300  0.00  0.00    +0.000 A 
ATOM     10  C   UNL     1       1.839   8.837  18.461  0.00  0.00    +0.000 A 
ATOM     11  C   UNL     1       1.149   9.728  19.249  0.00  0.00    +0.000 A 
ATOM     12  N   UNL     1       1.024   9.130  20.474  0.00  0.00    +0.000 N 
ATOM     13  C   UNL     1       0.229   9.589  21.586  0.00  0.00    +0.000 C 
ATOM     14  N   UNL     1       1.562   7.895  20.520  0.00  0.00    +0.000 NA
ENDBRANCH   1  11
BRANCH   5  15
ATOM     15  N   UNL     1      -2.374  12.582  19.188  0.00  0.00    +0.000 N 
ATOM     16  C   UNL     1      -3.686  12.212  18.996  0.00  0.00    +0.000 C 
ATOM     17  O   UNL     1      -4.093  11.814  17.908  0.00  0.00    +0.000 OA
ATOM     18  H   UNL     1      -2.084  12.869  20.115  0.00  0.00    +0.000 HD
BRANCH  16  19
ATOM     19  C   UNL     1      -4.568  12.325  20.141  0.00  0.00    +0.000 A 
ATOM     20  C   UNL     1      -5.945  11.947  20.150  0.00  0.00    +0.000 A 
ATOM     21  C   UNL     1      -6.450  12.204  21.401  0.00  0.00    +0.000 A 
ATOM     22  C   UNL     1      -7.731  12.052  22.004  0.00  0.00    +0.000 A 
ATOM     23  C   UNL     1      -7.909  12.427  23.286  0.00  0.00    +0.000 A 
ATOM     24  C   UNL     1      -6.820  12.984  24.073  0.00  0.00    +0.000 A 
ATOM     25  C   UNL     1      -5.609  13.118  23.506  0.00  0.00    +0.000 A 
ATOM     26  N   UNL     1      -5.430  12.731  22.180  0.00  0.00    +0.000 N 
ATOM     27  C   UNL     1      -4.284  12.791  21.417  0.00  0.00    +0.000 A 
ENDBRANCH  16  19
ENDBRANCH   5  15
TORSDOF 3
ENDMDL
MODEL 8
REMARK VINA RESULT:      -6.7      3.624      8.234
REMARK  Name = 
REMARK  5 active torsions:
REMARK  status: ('A' for Active; 'I' for Inactive)
REMARK    1  A    between atoms: C_1  and  C_2
REMARK    2  A    between atoms: C_4  and  N_5
REMARK    3  A    between atoms: C_9  and  N_10
REMARK    4  A    between atoms: C_11  and  C_13
REMARK    5  A    between atoms: N_24  and  C_25
REMARK                            x       y       z     vdW  Elec       q    Type
REMARK                         _______ _______ _______ _____ _____    ______ ____
ROOT
ATOM      1  N   UNL     1       3.731   4.423  17.867  0.00  0.00    +0.000 N 
ATOM      2  C   UNL     1       2.497   3.706  17.511  0.00  0.00    +0.000 C 
ATOM      3  C   UNL     1       1.417   3.752  18.576  0.00  0.00    +0.000 C 
ATOM      4  C   UNL     1       1.993   3.528  19.960  0.00  0.00    +0.000 C 
ATOM      5  C   UNL     1       3.043   4.571  20.325  0.00  0.00    +0.000 C 
ATOM      6  C   UNL     1       4.106   4.738  19.231  0.00  0.00    +0.000 C 
ATOM      7  O   UNL     1       5.214   5.212  19.458  0.00  0.00    +0.000 OA
ENDROOT
BRANCH   1  11
ATOM      8  C   UNL     1       7.018   4.744  14.128  0.00  0.00    +0.000 C 
ATOM      9  C   UNL     1       6.029   5.028  15.196  0.00  0.00    +0.000 A 
ATOM     10  C   UNL     1       5.372   4.111  16.053  0.00  0.00    +0.000 A 
ATOM     11  C   UNL     1       4.562   4.887  16.850  0.00  0.00    +0.000 A 
ATOM     12  N   UNL     1       4.763   6.179  16.446  0.00  0.00    +0.000 N 
ATOM     13  C   UNL     1       4.275   7.375  17.088  0.00  0.00    +0.000 C 
ATOM     14  N   UNL     1       5.674   6.292  15.458  0.00  0.00    +0.000 NA
ENDBRANCH   1  11
BRANCH   5  15
ATOM     15  N   UNL     1       2.481   5.850  20.761  0.00  0.00    +0.000 N 
ATOM     16  C   UNL     1       2.039   6.806  19.875  0.00  0.00    +0.000 C 
ATOM     17  O   UNL     1       2.205   6.691  18.664  0.00  0.00    +0.000 OA
ATOM     18  H   UNL     1       2.285   5.978  21.746  0.00  0.00    +0.000 HD
BRANCH  16  19
ATOM     19  C   UNL     1       1.375   7.963  20.444  0.00  0.00    +0.000 A 
ATOM     20  C   UNL     1       1.228   9.223  19.788  0.00  0.00    +0.000 A 
ATOM     21  C   UNL     1       0.555  10.069  20.635  0.00  0.00    +0.000 A 
ATOM     22  C   UNL     1       0.130  11.425  20.550  0.00  0.00    +0.000 A 
ATOM     23  C   UNL     1      -0.512  11.985  21.594  0.00  0.00    +0.000 A 
ATOM     24  C   UNL     1      -0.786  11.234  22.809  0.00  0.00    +0.000 A 
ATOM     25  C   UNL     1      -0.394   9.950  22.884  0.00  0.00    +0.000 A 
ATOM     26  N   UNL     1       0.272   9.377  21.803  0.00  0.00    +0.000 N 
ATOM     27  C   UNL     1       0.759   8.093  21.680  0.00  0.00    +0.000 A 
ENDBRANCH  16  19
ENDBRANCH   5  15
TORSDOF 3
ENDMDL
MODEL 9
REMARK VINA RESULT:      -6.6      2.066      2.703
REMARK  Name = 
REMARK  5 active torsions:
REMARK  status: ('A' for Active; 'I' for Inactive)
REMARK    1  A    between atoms: C_1  and  C_2
REMARK    2  A    between atoms: C_4  and  N_5
REMARK    3  A    between atoms: C_9  and  N_10
REMARK    4  A    between atoms: C_11  and  C_13
REMARK    5  A    between atoms: N_24  and  C_25
REMARK                            x       y       z     vdW  Elec       q    Type
REMARK                         _______ _______ _______ _____ _____    ______ ____
ROOT
ATOM      1  N   UNL     1      -1.181  12.310  19.606  0.00  0.00    +0.000 N 
ATOM      2  C   UNL     1      -0.390  13.168  18.711  0.00  0.00    +0.000 C 
ATOM      3  C   UNL     1       1.075  12.786  18.610  0.00  0.00    +0.000 C 
ATOM      4  C   UNL     1       1.656  12.453  19.970  0.00  0.00    +0.000 C 
ATOM      5  C   UNL     1       0.925  11.298  20.644  0.00  0.00    +0.000 C 
ATOM      6  C   UNL     1      -0.597  11.494  20.652  0.00  0.00    +0.000 C 
ATOM      7  O   UNL     1      -1.330  10.915  21.445  0.00  0.00    +0.000 OA
ENDROOT
BRANCH   1  11
ATOM      8  C   UNL     1      -5.708  11.161  17.855  0.00  0.00    +0.000 C 
ATOM      9  C   UNL     1      -4.565  11.709  18.625  0.00  0.00    +0.000 A 
ATOM     10  C   UNL     1      -3.182  11.472  18.435  0.00  0.00    +0.000 A 
ATOM     11  C   UNL     1      -2.557  12.213  19.410  0.00  0.00    +0.000 A 
ATOM     12  N   UNL     1      -3.556  12.831  20.112  0.00  0.00    +0.000 N 
ATOM     13  C   UNL     1      -3.406  13.851  21.121  0.00  0.00    +0.000 C 
ATOM     14  N   UNL     1      -4.788  12.562  19.633  0.00  0.00    +0.000 NA
ENDBRANCH   1  11
BRANCH   5  15
ATOM     15  N   UNL     1       1.319   9.979  20.148  0.00  0.00    +0.000 N 
ATOM     16  C   UNL     1       1.507   8.900  20.982  0.00  0.00    +0.000 C 
ATOM     17  O   UNL     1       1.475   9.013  22.204  0.00  0.00    +0.000 OA
ATOM     18  H   UNL     1       1.319   9.821  19.148  0.00  0.00    +0.000 HD
BRANCH  16  19
ATOM     19  C   UNL     1       1.754   7.621  20.345  0.00  0.00    +0.000 A 
ATOM     20  C   UNL     1       1.400   6.352  20.898  0.00  0.00    +0.000 A 
ATOM     21  C   UNL     1       1.797   5.376  20.016  0.00  0.00    +0.000 A 
ATOM     22  C   UNL     1       1.728   3.954  20.014  0.00  0.00    +0.000 A 
ATOM     23  C   UNL     1       2.241   3.267  18.974  0.00  0.00    +0.000 A 
ATOM     24  C   UNL     1       2.861   3.946  17.847  0.00  0.00    +0.000 A 
ATOM     25  C   UNL     1       2.915   5.289  17.845  0.00  0.00    +0.000 A 
ATOM     26  N   UNL     1       2.387   5.995  18.923  0.00  0.00    +0.000 N 
ATOM     27  C   UNL     1       2.349   7.359  19.119  0.00  0.00    +0.000 A 
ENDBRANCH  16  19
ENDBRANCH   5  15
TORSDOF 3
ENDMDL
