MODEL 1
REMARK VINA RESULT:      -9.7      0.000      0.000
REMARK  Name = 
REMARK  4 active torsions:
REMARK  status: ('A' for Active; 'I' for Inactive)
REMARK    1  A    between atoms: C_2  and  C_16
REMARK    2  A    between atoms: N_3  and  C_4
REMARK    3  A    between atoms: C_8  and  N_9
REMARK    4  A    between atoms: C_19  and  N_20
REMARK                            x       y       z     vdW  Elec       q    Type
REMARK                         _______ _______ _______ _____ _____    ______ ____
ROOT
ATOM      1  O   UNL     1       3.044   5.945  19.355  0.00  0.00    +0.000 OA
ATOM      2  C   UNL     1       3.136   6.896  18.590  0.00  0.00    +0.000 C 
ATOM      3  N   UNL     1       4.065   7.069  17.578  0.00  0.00    +0.000 N 
ATOM      4  H   UNL     1       4.091   7.972  17.123  0.00  0.00    +0.000 HD
ENDROOT
BRANCH   3   5
ATOM      5  C   UNL     1       5.108   6.166  17.254  0.00  0.00    +0.000 A 
ATOM      6  C   UNL     1       5.954   5.606  18.211  0.00  0.00    +0.000 A 
ATOM      7  C   UNL     1       6.985   4.755  17.829  0.00  0.00    +0.000 A 
ATOM      8  C   UNL     1       7.175   4.445  16.485  0.00  0.00    +0.000 A 
ATOM      9  C   UNL     1       6.339   4.971  15.494  0.00  0.00    +0.000 A 
ATOM     10  C   UNL     1       5.303   5.837  15.900  0.00  0.00    +0.000 A 
BRANCH   9  11
ATOM     11  N   UNL     1       6.517   4.620  14.127  0.00  0.00    +0.000 N 
ATOM     12  C   UNL     1       5.582   3.804  13.393  0.00  0.00    +0.000 C 
ATOM     13  C   UNL     1       6.393   3.280  12.227  0.00  0.00    +0.000 C 
ATOM     14  C   UNL     1       7.361   4.411  11.937  0.00  0.00    +0.000 C 
ATOM     15  C   UNL     1       7.562   5.046  13.290  0.00  0.00    +0.000 C 
ATOM     16  O   UNL     1       8.474   5.828  13.521  0.00  0.00    +0.000 OA
ENDBRANCH   9  11
ENDBRANCH   3   5
BRANCH   2  17
ATOM     17  C   UNL     1       2.240   8.052  18.842  0.00  0.00    +0.000 A 
ATOM     18  C   UNL     1       2.161   8.993  17.812  0.00  0.00    +0.000 A 
ATOM     19  C   UNL     1       1.276  10.051  17.918  0.00  0.00    +0.000 A 
ATOM     20  C   UNL     1       0.479  10.190  19.064  0.00  0.00    +0.000 A 
ATOM     21  C   UNL     1       0.613   9.315  20.145  0.00  0.00    +0.000 A 
ATOM     22  C   UNL     1       1.493   8.224  20.020  0.00  0.00    +0.000 A 
BRANCH  20  23
ATOM     23  N   UNL     1      -0.494  11.214  19.016  0.00  0.00    +0.000 N 
ATOM     24  C   UNL     1      -0.666  12.108  20.055  0.00  0.00    +0.000 A 
ATOM     25  N   UNL     1      -1.914  12.472  20.204  0.00  0.00    +0.000 NA
ATOM     26  C   UNL     1      -2.575  11.843  19.185  0.00  0.00    +0.000 A 
ATOM     27  C   UNL     1      -3.955  11.775  18.958  0.00  0.00    +0.000 A 
ATOM     28  C   UNL     1      -4.415  11.097  17.829  0.00  0.00    +0.000 A 
ATOM     29  C   UNL     1      -3.515  10.535  16.921  0.00  0.00    +0.000 A 
ATOM     30  C   UNL     1      -2.131  10.552  17.152  0.00  0.00    +0.000 A 
ATOM     31  C   UNL     1      -1.693  11.180  18.324  0.00  0.00    +0.000 A 
ENDBRANCH  20  23
ENDBRANCH   2  17
TORSDOF 4
ENDMDL
MODEL 2
REMARK VINA RESULT:      -9.6      1.293      2.195
REMARK  Name = 
REMARK  4 active torsions:
REMARK  status: ('A' for Active; 'I' for Inactive)
REMARK    1  A    between atoms: C_2  and  C_16
REMARK    2  A    between atoms: N_3  and  C_4
REMARK    3  A    between atoms: C_8  and  N_9
REMARK    4  A    between atoms: C_19  and  N_20
REMARK                            x       y       z     vdW  Elec       q    Type
REMARK                         _______ _______ _______ _____ _____    ______ ____
ROOT
ATOM      1  O   UNL     1       2.797   5.532  18.719  0.00  0.00    +0.000 OA
ATOM      2  C   UNL     1       3.123   6.657  18.364  0.00  0.00    +0.000 C 
ATOM      3  N   UNL     1       4.280   7.022  17.696  0.00  0.00    +0.000 N 
ATOM      4  H   UNL     1       4.464   8.011  17.594  0.00  0.00    +0.000 HD
ENDROOT
BRANCH   3   5
ATOM      5  C   UNL     1       5.322   6.141  17.313  0.00  0.00    +0.000 A 
ATOM      6  C   UNL     1       6.231   5.597  18.220  0.00  0.00    +0.000 A 
ATOM      7  C   UNL     1       7.256   4.768  17.780  0.00  0.00    +0.000 A 
ATOM      8  C   UNL     1       7.378   4.463  16.427  0.00  0.00    +0.000 A 
ATOM      9  C   UNL     1       6.478   4.974  15.485  0.00  0.00    +0.000 A 
ATOM     10  C   UNL     1       5.449   5.817  15.949  0.00  0.00    +0.000 A 
BRANCH   9  11
ATOM     11  N   UNL     1       6.587   4.628  14.109  0.00  0.00    +0.000 N 
ATOM     12  C   UNL     1       5.619   3.811  13.420  0.00  0.00    +0.000 C 
ATOM     13  C   UNL     1       6.372   3.294  12.212  0.00  0.00    +0.000 C 
ATOM     14  C   UNL     1       7.320   4.430  11.878  0.00  0.00    +0.000 C 
ATOM     15  C   UNL     1       7.587   5.061  13.222  0.00  0.00    +0.000 C 
ATOM     16  O   UNL     1       8.506   5.846  13.409  0.00  0.00    +0.000 OA
ENDBRANCH   9  11
ENDBRANCH   3   5
BRANCH   2  17
ATOM     17  C   UNL     1       2.255   7.780  18.799  0.00  0.00    +0.000 A 
ATOM     18  C   UNL     1       1.927   8.711  17.811  0.00  0.00    +0.000 A 
ATOM     19  C   UNL     1       1.043   9.735  18.101  0.00  0.00    +0.000 A 
ATOM     20  C   UNL     1       0.496   9.849  19.388  0.00  0.00    +0.000 A 
ATOM     21  C   UNL     1       0.886   8.986  20.415  0.00  0.00    +0.000 A 
ATOM     22  C   UNL     1       1.761   7.928  20.107  0.00  0.00    +0.000 A 
BRANCH  20  23
ATOM     23  N   UNL     1      -0.505  10.834  19.545  0.00  0.00    +0.000 N 
ATOM     24  C   UNL     1      -0.823  11.720  18.534  0.00  0.00    +0.000 A 
ATOM     25  N   UNL     1      -1.171  12.897  18.986  0.00  0.00    +0.000 NA
ATOM     26  C   UNL     1      -1.141  12.760  20.347  0.00  0.00    +0.000 A 
ATOM     27  C   UNL     1      -1.293  13.753  21.322  0.00  0.00    +0.000 A 
ATOM     28  C   UNL     1      -1.256  13.382  22.667  0.00  0.00    +0.000 A 
ATOM     29  C   UNL     1      -1.112  12.041  23.031  0.00  0.00    +0.000 A 
ATOM     30  C   UNL     1      -0.914  11.037  22.072  0.00  0.00    +0.000 A 
ATOM     31  C   UNL     1      -0.889  11.438  20.731  0.00  0.00    +0.000 A 
ENDBRANCH  20  23
ENDBRANCH   2  17
TORSDOF 4
ENDMDL
MODEL 3
REMARK VINA RESULT:      -9.5      1.171      2.326
REMARK  Name = 
REMARK  4 active torsions:
REMARK  status: ('A' for Active; 'I' for Inactive)
REMARK    1  A    between atoms: C_2  and  C_16
REMARK    2  A    between atoms: N_3  and  C_4
REMARK    3  A    between atoms: C_8  and  N_9
REMARK    4  A    between atoms: C_19  and  N_20
REMARK                            x       y       z     vdW  Elec       q    Type
REMARK                         _______ _______ _______ _____ _____    ______ ____
ROOT
ATOM      1  O   UNL     1       2.694   5.591  18.155  0.00  0.00    +0.000 OA
ATOM      2  C   UNL     1       3.193   6.707  18.117  0.00  0.00    +0.000 C 
ATOM      3  N   UNL     1       4.481   7.035  17.728  0.00  0.00    +0.000 N 
ATOM      4  H   UNL     1       4.783   7.988  17.882  0.00  0.00    +0.000 HD
ENDROOT
BRANCH   3   5
ATOM      5  C   UNL     1       5.475   6.115  17.314  0.00  0.00    +0.000 A 
ATOM      6  C   UNL     1       6.374   5.516  18.197  0.00  0.00    +0.000 A 
ATOM      7  C   UNL     1       7.353   4.649  17.727  0.00  0.00    +0.000 A 
ATOM      8  C   UNL     1       7.439   4.361  16.367  0.00  0.00    +0.000 A 
ATOM      9  C   UNL     1       6.547   4.926  15.449  0.00  0.00    +0.000 A 
ATOM     10  C   UNL     1       5.565   5.807  15.944  0.00  0.00    +0.000 A 
BRANCH   9  11
ATOM     11  N   UNL     1       6.618   4.598  14.066  0.00  0.00    +0.000 N 
ATOM     12  C   UNL     1       5.632   3.788  13.394  0.00  0.00    +0.000 C 
ATOM     13  C   UNL     1       6.351   3.288  12.159  0.00  0.00    +0.000 C 
ATOM     14  C   UNL     1       7.287   4.429  11.813  0.00  0.00    +0.000 C 
ATOM     15  C   UNL     1       7.592   5.044  13.156  0.00  0.00    +0.000 C 
ATOM     16  O   UNL     1       8.515   5.828  13.327  0.00  0.00    +0.000 OA
ENDBRANCH   9  11
ENDBRANCH   3   5
BRANCH   2  17
ATOM     17  C   UNL     1       2.384   7.826  18.663  0.00  0.00    +0.000 A 
ATOM     18  C   UNL     1       2.172   8.900  17.794  0.00  0.00    +0.000 A 
ATOM     19  C   UNL     1       1.349   9.942  18.182  0.00  0.00    +0.000 A 
ATOM     20  C   UNL     1       0.747   9.929  19.449  0.00  0.00    +0.000 A 
ATOM     21  C   UNL     1       1.023   8.913  20.367  0.00  0.00    +0.000 A 
ATOM     22  C   UNL     1       1.838   7.841  19.957  0.00  0.00    +0.000 A 
BRANCH  20  23
ATOM     23  N   UNL     1      -0.189  10.959  19.696  0.00  0.00    +0.000 N 
ATOM     24  C   UNL     1      -1.408  11.006  19.049  0.00  0.00    +0.000 A 
ATOM     25  N   UNL     1      -1.810  12.231  18.820  0.00  0.00    +0.000 NA
ATOM     26  C   UNL     1      -0.848  13.015  19.394  0.00  0.00    +0.000 A 
ATOM     27  C   UNL     1      -0.707  14.407  19.324  0.00  0.00    +0.000 A 
ATOM     28  C   UNL     1       0.343  15.010  20.017  0.00  0.00    +0.000 A 
ATOM     29  C   UNL     1       1.211  14.245  20.801  0.00  0.00    +0.000 A 
ATOM     30  C   UNL     1       1.115  12.845  20.849  0.00  0.00    +0.000 A 
ATOM     31  C   UNL     1       0.095  12.254  20.094  0.00  0.00    +0.000 A 
ENDBRANCH  20  23
ENDBRANCH   2  17
TORSDOF 4
ENDMDL
MODEL 4
REMARK VINA RESULT:      -9.3      1.679      2.096
REMARK  Name = 
REMARK  4 active torsions:
REMARK  status: ('A' for Active; 'I' for Inactive)
REMARK    1  A    between atoms: C_2  and  C_16
REMARK    2  A    between atoms: N_3  and  C_4
REMARK    3  A    between atoms: C_8  and  N_9
REMARK    4  A    between atoms: C_19  and  N_20
REMARK                            x       y       z     vdW  Elec       q    Type
REMARK                         _______ _______ _______ _____ _____    ______ ____
ROOT
ATOM      1  O   UNL     1       2.661   5.379  18.073  0.00  0.00    +0.000 OA
ATOM      2  C   UNL     1       3.166   6.481  18.239  0.00  0.00    +0.000 C 
ATOM      3  N   UNL     1       4.478   6.847  17.989  0.00  0.00    +0.000 N 
ATOM      4  H   UNL     1       4.773   7.760  18.306  0.00  0.00    +0.000 HD
ENDROOT
BRANCH   3   5
ATOM      5  C   UNL     1       5.494   5.986  17.503  0.00  0.00    +0.000 A 
ATOM      6  C   UNL     1       6.463   5.411  18.326  0.00  0.00    +0.000 A 
ATOM      7  C   UNL     1       7.458   4.605  17.787  0.00  0.00    +0.000 A 
ATOM      8  C   UNL     1       7.491   4.355  16.417  0.00  0.00    +0.000 A 
ATOM      9  C   UNL     1       6.530   4.898  15.558  0.00  0.00    +0.000 A 
ATOM     10  C   UNL     1       5.532   5.718  16.122  0.00  0.00    +0.000 A 
BRANCH   9  11
ATOM     11  N   UNL     1       6.549   4.609  14.165  0.00  0.00    +0.000 N 
ATOM     12  C   UNL     1       5.516   3.852  13.501  0.00  0.00    +0.000 C 
ATOM     13  C   UNL     1       6.181   3.364  12.231  0.00  0.00    +0.000 C 
ATOM     14  C   UNL     1       7.146   4.483  11.888  0.00  0.00    +0.000 C 
ATOM     15  C   UNL     1       7.510   5.048  13.239  0.00  0.00    +0.000 C 
ATOM     16  O   UNL     1       8.465   5.794  13.404  0.00  0.00    +0.000 OA
ENDBRANCH   9  11
ENDBRANCH   3   5
BRANCH   2  17
ATOM     17  C   UNL     1       2.328   7.514  18.897  0.00  0.00    +0.000 A 
ATOM     18  C   UNL     1       2.004   7.271  20.234  0.00  0.00    +0.000 A 
ATOM     19  C   UNL     1       1.310   8.226  20.955  0.00  0.00    +0.000 A 
ATOM     20  C   UNL     1       0.916   9.424  20.339  0.00  0.00    +0.000 A 
ATOM     21  C   UNL     1       1.147   9.644  18.979  0.00  0.00    +0.000 A 
ATOM     22  C   UNL     1       1.878   8.683  18.258  0.00  0.00    +0.000 A 
BRANCH  20  23
ATOM     23  N   UNL     1       0.345  10.395  21.193  0.00  0.00    +0.000 N 
ATOM     24  C   UNL     1      -0.054  10.092  22.480  0.00  0.00    +0.000 A 
ATOM     25  N   UNL     1      -1.108  10.771  22.853  0.00  0.00    +0.000 NA
ATOM     26  C   UNL     1      -1.373  11.596  21.795  0.00  0.00    +0.000 A 
ATOM     27  C   UNL     1      -2.476  12.437  21.605  0.00  0.00    +0.000 A 
ATOM     28  C   UNL     1      -2.529  13.222  20.452  0.00  0.00    +0.000 A 
ATOM     29  C   UNL     1      -1.482  13.200  19.528  0.00  0.00    +0.000 A 
ATOM     30  C   UNL     1      -0.389  12.333  19.676  0.00  0.00    +0.000 A 
ATOM     31  C   UNL     1      -0.386  11.505  20.806  0.00  0.00    +0.000 A 
ENDBRANCH  20  23
ENDBRANCH   2  17
TORSDOF 4
ENDMDL
MODEL 5
REMARK VINA RESULT:      -9.1      4.159     11.345
REMARK  Name = 
REMARK  4 active torsions:
REMARK  status: ('A' for Active; 'I' for Inactive)
REMARK    1  A    between atoms: C_2  and  C_16
REMARK    2  A    between atoms: N_3  and  C_4
REMARK    3  A    between atoms: C_8  and  N_9
REMARK    4  A    between atoms: C_19  and  N_20
REMARK                            x       y       z     vdW  Elec       q    Type
REMARK                         _______ _______ _______ _____ _____    ______ ____
ROOT
ATOM      1  O   UNL     1      -0.382  11.688  18.963  0.00  0.00    +0.000 OA
ATOM      2  C   UNL     1      -0.022  10.957  19.875  0.00  0.00    +0.000 C 
ATOM      3  N   UNL     1      -0.223  11.149  21.232  0.00  0.00    +0.000 N 
ATOM      4  H   UNL     1       0.254  10.521  21.865  0.00  0.00    +0.000 HD
ENDROOT
BRANCH   3   5
ATOM      5  C   UNL     1      -0.878  12.262  21.817  0.00  0.00    +0.000 A 
ATOM      6  C   UNL     1      -0.224  13.454  22.128  0.00  0.00    +0.000 A 
ATOM      7  C   UNL     1      -0.912  14.497  22.735  0.00  0.00    +0.000 A 
ATOM      8  C   UNL     1      -2.266  14.365  23.031  0.00  0.00    +0.000 A 
ATOM      9  C   UNL     1      -2.965  13.193  22.722  0.00  0.00    +0.000 A 
ATOM     10  C   UNL     1      -2.250  12.144  22.111  0.00  0.00    +0.000 A 
BRANCH   9  11
ATOM     11  N   UNL     1      -4.357  13.080  22.994  0.00  0.00    +0.000 N 
ATOM     12  C   UNL     1      -5.377  13.315  22.003  0.00  0.00    +0.000 C 
ATOM     13  C   UNL     1      -6.621  13.593  22.820  0.00  0.00    +0.000 C 
ATOM     14  C   UNL     1      -6.434  12.726  24.050  0.00  0.00    +0.000 C 
ATOM     15  C   UNL     1      -4.935  12.678  24.211  0.00  0.00    +0.000 C 
ATOM     16  O   UNL     1      -4.395  12.292  25.238  0.00  0.00    +0.000 OA
ENDBRANCH   9  11
ENDBRANCH   3   5
BRANCH   2  17
ATOM     17  C   UNL     1       0.831   9.797  19.513  0.00  0.00    +0.000 A 
ATOM     18  C   UNL     1       1.157   8.934  20.562  0.00  0.00    +0.000 A 
ATOM     19  C   UNL     1       1.865   7.775  20.301  0.00  0.00    +0.000 A 
ATOM     20  C   UNL     1       2.271   7.479  18.990  0.00  0.00    +0.000 A 
ATOM     21  C   UNL     1       2.038   8.375  17.945  0.00  0.00    +0.000 A 
ATOM     22  C   UNL     1       1.292   9.538  18.211  0.00  0.00    +0.000 A 
BRANCH  20  23
ATOM     23  N   UNL     1       2.857   6.207  18.801  0.00  0.00    +0.000 N 
ATOM     24  C   UNL     1       3.759   5.963  17.784  0.00  0.00    +0.000 A 
ATOM     25  N   UNL     1       3.664   4.748  17.307  0.00  0.00    +0.000 NA
ATOM     26  C   UNL     1       2.707   4.153  18.083  0.00  0.00    +0.000 A 
ATOM     27  C   UNL     1       2.114   2.895  17.917  0.00  0.00    +0.000 A 
ATOM     28  C   UNL     1       1.169   2.472  18.853  0.00  0.00    +0.000 A 
ATOM     29  C   UNL     1       0.854   3.269  19.956  0.00  0.00    +0.000 A 
ATOM     30  C   UNL     1       1.402   4.551  20.118  0.00  0.00    +0.000 A 
ATOM     31  C   UNL     1       2.298   4.984  19.133  0.00  0.00    +0.000 A 
ENDBRANCH  20  23
ENDBRANCH   2  17
TORSDOF 4
ENDMDL
MODEL 6
REMARK VINA RESULT:      -9.0      2.706     10.024
REMARK  Name = 
REMARK  4 active torsions:
REMARK  status: ('A' for Active; 'I' for Inactive)
REMARK    1  A    between atoms: C_2  and  C_16
REMARK    2  A    between atoms: N_3  and  C_4
REMARK    3  A    between atoms: C_8  and  N_9
REMARK    4  A    between atoms: C_19  and  N_20
REMARK                            x       y       z     vdW  Elec       q    Type
REMARK                         _______ _______ _______ _____ _____    ______ ____
ROOT
ATOM      1  O   UNL     1       0.582   8.120  21.226  0.00  0.00    +0.000 OA
ATOM      2  C   UNL     1       1.221   8.378  20.215  0.00  0.00    +0.000 C 
ATOM      3  N   UNL     1       1.103   9.502  19.414  0.00  0.00    +0.000 N 
ATOM      4  H   UNL     1       1.609   9.502  18.539  0.00  0.00    +0.000 HD
ENDROOT
BRANCH   3   5
ATOM      5  C   UNL     1       0.190  10.566  19.618  0.00  0.00    +0.000 A 
ATOM      6  C   UNL     1       0.428  11.614  20.506  0.00  0.00    +0.000 A 
ATOM      7  C   UNL     1      -0.522  12.611  20.692  0.00  0.00    +0.000 A 
ATOM      8  C   UNL     1      -1.721  12.576  19.984  0.00  0.00    +0.000 A 
ATOM      9  C   UNL     1      -1.994  11.552  19.071  0.00  0.00    +0.000 A 
ATOM     10  C   UNL     1      -1.020  10.548  18.900  0.00  0.00    +0.000 A 
BRANCH   9  11
ATOM     11  N   UNL     1      -3.205  11.544  18.323  0.00  0.00    +0.000 N 
ATOM     12  C   UNL     1      -4.489  11.867  18.895  0.00  0.00    +0.000 C 
ATOM     13  C   UNL     1      -5.481  11.242  17.938  0.00  0.00    +0.000 C 
ATOM     14  C   UNL     1      -4.793  11.361  16.592  0.00  0.00    +0.000 C 
ATOM     15  C   UNL     1      -3.329  11.287  16.947  0.00  0.00    +0.000 C 
ATOM     16  O   UNL     1      -2.458  11.086  16.112  0.00  0.00    +0.000 OA
ENDBRANCH   9  11
ENDBRANCH   3   5
BRANCH   2  17
ATOM     17  C   UNL     1       2.137   7.325  19.709  0.00  0.00    +0.000 A 
ATOM     18  C   UNL     1       2.831   7.637  18.537  0.00  0.00    +0.000 A 
ATOM     19  C   UNL     1       3.779   6.757  18.048  0.00  0.00    +0.000 A 
ATOM     20  C   UNL     1       4.026   5.547  18.715  0.00  0.00    +0.000 A 
ATOM     21  C   UNL     1       3.277   5.174  19.832  0.00  0.00    +0.000 A 
ATOM     22  C   UNL     1       2.334   6.086  20.343  0.00  0.00    +0.000 A 
BRANCH  20  23
ATOM     23  N   UNL     1       5.112   4.786  18.224  0.00  0.00    +0.000 N 
ATOM     24  C   UNL     1       6.301   4.677  18.918  0.00  0.00    +0.000 A 
ATOM     25  N   UNL     1       7.340   4.593  18.127  0.00  0.00    +0.000 NA
ATOM     26  C   UNL     1       6.807   4.582  16.867  0.00  0.00    +0.000 A 
ATOM     27  C   UNL     1       7.479   4.645  15.640  0.00  0.00    +0.000 A 
ATOM     28  C   UNL     1       6.731   4.590  14.463  0.00  0.00    +0.000 A 
ATOM     29  C   UNL     1       5.344   4.432  14.509  0.00  0.00    +0.000 A 
ATOM     30  C   UNL     1       4.646   4.412  15.726  0.00  0.00    +0.000 A 
ATOM     31  C   UNL     1       5.408   4.535  16.895  0.00  0.00    +0.000 A 
ENDBRANCH  20  23
ENDBRANCH   2  17
TORSDOF 4
ENDMDL
MODEL 7
REMARK VINA RESULT:      -9.0      2.744      4.040
REMARK  Name = 
REMARK  4 active torsions:
REMARK  status: ('A' for Active; 'I' for Inactive)
REMARK    1  A    between atoms: C_2  and  C_16
REMARK    2  A    between atoms: N_3  and  C_4
REMARK    3  A    between atoms: C_8  and  N_9
REMARK    4  A    between atoms: C_19  and  N_20
REMARK                            x       y       z     vdW  Elec       q    Type
REMARK                         _______ _______ _______ _____ _____    ______ ____
ROOT
ATOM      1  O   UNL     1       2.128   8.350  19.111  0.00  0.00    +0.000 OA
ATOM      2  C   UNL     1       1.642   8.112  20.208  0.00  0.00    +0.000 C 
ATOM      3  N   UNL     1       1.654   6.904  20.885  0.00  0.00    +0.000 N 
ATOM      4  H   UNL     1       1.091   6.836  21.722  0.00  0.00    +0.000 HD
ENDROOT
BRANCH   3   5
ATOM      5  C   UNL     1       2.229   5.699  20.409  0.00  0.00    +0.000 A 
ATOM      6  C   UNL     1       1.713   4.438  20.711  0.00  0.00    +0.000 A 
ATOM      7  C   UNL     1       2.342   3.290  20.245  0.00  0.00    +0.000 A 
ATOM      8  C   UNL     1       3.489   3.388  19.463  0.00  0.00    +0.000 A 
ATOM      9  C   UNL     1       4.031   4.632  19.122  0.00  0.00    +0.000 A 
ATOM     10  C   UNL     1       3.383   5.786  19.608  0.00  0.00    +0.000 A 
BRANCH   9  11
ATOM     11  N   UNL     1       5.182   4.725  18.292  0.00  0.00    +0.000 N 
ATOM     12  C   UNL     1       5.131   4.618  16.855  0.00  0.00    +0.000 C 
ATOM     13  C   UNL     1       6.548   4.258  16.465  0.00  0.00    +0.000 C 
ATOM     14  C   UNL     1       7.390   4.970  17.506  0.00  0.00    +0.000 C 
ATOM     15  C   UNL     1       6.495   4.986  18.720  0.00  0.00    +0.000 C 
ATOM     16  O   UNL     1       6.911   5.242  19.841  0.00  0.00    +0.000 OA
ENDBRANCH   9  11
ENDBRANCH   3   5
BRANCH   2  17
ATOM     17  C   UNL     1       0.841   9.191  20.839  0.00  0.00    +0.000 A 
ATOM     18  C   UNL     1       0.662  10.342  20.068  0.00  0.00    +0.000 A 
ATOM     19  C   UNL     1      -0.153  11.359  20.534  0.00  0.00    +0.000 A 
ATOM     20  C   UNL     1      -0.778  11.241  21.784  0.00  0.00    +0.000 A 
ATOM     21  C   UNL     1      -0.536  10.141  22.610  0.00  0.00    +0.000 A 
ATOM     22  C   UNL     1       0.270   9.097  22.119  0.00  0.00    +0.000 A 
BRANCH  20  23
ATOM     23  N   UNL     1      -1.704  12.260  22.107  0.00  0.00    +0.000 N 
ATOM     24  C   UNL     1      -1.887  12.696  23.404  0.00  0.00    +0.000 A 
ATOM     25  N   UNL     1      -3.124  13.047  23.648  0.00  0.00    +0.000 NA
ATOM     26  C   UNL     1      -3.762  12.895  22.447  0.00  0.00    +0.000 A 
ATOM     27  C   UNL     1      -5.131  12.999  22.172  0.00  0.00    +0.000 A 
ATOM     28  C   UNL     1      -5.565  12.834  20.856  0.00  0.00    +0.000 A 
ATOM     29  C   UNL     1      -4.646  12.611  19.827  0.00  0.00    +0.000 A 
ATOM     30  C   UNL     1      -3.276  12.459  20.086  0.00  0.00    +0.000 A 
ATOM     31  C   UNL     1      -2.868  12.563  21.422  0.00  0.00    +0.000 A 
ENDBRANCH  20  23
ENDBRANCH   2  17
TORSDOF 4
ENDMDL
MODEL 8
REMARK VINA RESULT:      -8.9      6.378      8.805
REMARK  Name = 
REMARK  4 active torsions:
REMARK  status: ('A' for Active; 'I' for Inactive)
REMARK    1  A    between atoms: C_2  and  C_16
REMARK    2  A    between atoms: N_3  and  C_4
REMARK    3  A    between atoms: C_8  and  N_9
REMARK    4  A    between atoms: C_19  and  N_20
REMARK                            x       y       z     vdW  Elec       q    Type
REMARK                         _______ _______ _______ _____ _____    ______ ____
ROOT
ATOM      1  O   UNL     1       8.460   7.015  18.888  0.00  0.00    +0.000 OA
ATOM      2  C   UNL     1       7.943   7.876  18.188  0.00  0.00    +0.000 C 
ATOM      3  N   UNL     1       7.033   7.685  17.161  0.00  0.00    +0.000 N 
ATOM      4  H   UNL     1       6.804   8.488  16.591  0.00  0.00    +0.000 HD
ENDROOT
BRANCH   3   5
ATOM      5  C   UNL     1       6.542   6.432  16.719  0.00  0.00    +0.000 A 
ATOM      6  C   UNL     1       7.138   5.701  15.690  0.00  0.00    +0.000 A 
ATOM      7  C   UNL     1       6.589   4.495  15.273  0.00  0.00    +0.000 A 
ATOM      8  C   UNL     1       5.443   3.997  15.887  0.00  0.00    +0.000 A 
ATOM      9  C   UNL     1       4.823   4.689  16.934  0.00  0.00    +0.000 A 
ATOM     10  C   UNL     1       5.390   5.914  17.339  0.00  0.00    +0.000 A 
BRANCH   9  11
ATOM     11  N   UNL     1       3.673   4.157  17.581  0.00  0.00    +0.000 N 
ATOM     12  C   UNL     1       3.553   2.772  17.966  0.00  0.00    +0.000 C 
ATOM     13  C   UNL     1       2.061   2.563  18.113  0.00  0.00    +0.000 C 
ATOM     14  C   UNL     1       1.565   3.909  18.605  0.00  0.00    +0.000 C 
ATOM     15  C   UNL     1       2.539   4.881  17.986  0.00  0.00    +0.000 C 
ATOM     16  O   UNL     1       2.324   6.083  17.934  0.00  0.00    +0.000 OA
ENDBRANCH   9  11
ENDBRANCH   3   5
BRANCH   2  17
ATOM     17  C   UNL     1       8.429   9.268  18.363  0.00  0.00    +0.000 A 
ATOM     18  C   UNL     1       7.917  10.205  17.462  0.00  0.00    +0.000 A 
ATOM     19  C   UNL     1       8.237  11.543  17.611  0.00  0.00    +0.000 A 
ATOM     20  C   UNL     1       9.088  11.951  18.648  0.00  0.00    +0.000 A 
ATOM     21  C   UNL     1       9.685  11.019  19.499  0.00  0.00    +0.000 A 
ATOM     22  C   UNL     1       9.334   9.663  19.362  0.00  0.00    +0.000 A 
BRANCH  20  23
ATOM     23  N   UNL     1       9.236  13.348  18.807  0.00  0.00    +0.000 N 
ATOM     24  C   UNL     1       8.147  14.190  18.923  0.00  0.00    +0.000 A 
ATOM     25  N   UNL     1       8.355  15.361  18.378  0.00  0.00    +0.000 NA
ATOM     26  C   UNL     1       9.651  15.307  17.944  0.00  0.00    +0.000 A 
ATOM     27  C   UNL     1      10.345  16.242  17.164  0.00  0.00    +0.000 A 
ATOM     28  C   UNL     1      11.685  15.997  16.860  0.00  0.00    +0.000 A 
ATOM     29  C   UNL     1      12.332  14.863  17.358  0.00  0.00    +0.000 A 
ATOM     30  C   UNL     1      11.645  13.892  18.102  0.00  0.00    +0.000 A 
ATOM     31  C   UNL     1      10.285  14.124  18.342  0.00  0.00    +0.000 A 
ENDBRANCH  20  23
ENDBRANCH   2  17
TORSDOF 4
ENDMDL
MODEL 9
REMARK VINA RESULT:      -8.9      6.514      9.080
REMARK  Name = 
REMARK  4 active torsions:
REMARK  status: ('A' for Active; 'I' for Inactive)
REMARK    1  A    between atoms: C_2  and  C_16
REMARK    2  A    between atoms: N_3  and  C_4
REMARK    3  A    between atoms: C_8  and  N_9
REMARK    4  A    between atoms: C_19  and  N_20
REMARK                            x       y       z     vdW  Elec       q    Type
REMARK                         _______ _______ _______ _____ _____    ______ ____
ROOT
ATOM      1  O   UNL     1       8.462   7.182  18.843  0.00  0.00    +0.000 OA
ATOM      2  C   UNL     1       7.870   7.969  18.117  0.00  0.00    +0.000 C 
ATOM      3  N   UNL     1       6.920   7.669  17.155  0.00  0.00    +0.000 N 
ATOM      4  H   UNL     1       6.624   8.419  16.545  0.00  0.00    +0.000 HD
ENDROOT
BRANCH   3   5
ATOM      5  C   UNL     1       6.469   6.367  16.822  0.00  0.00    +0.000 A 
ATOM      6  C   UNL     1       7.037   5.601  15.804  0.00  0.00    +0.000 A 
ATOM      7  C   UNL     1       6.527   4.345  15.498  0.00  0.00    +0.000 A 
ATOM      8  C   UNL     1       5.448   3.834  16.214  0.00  0.00    +0.000 A 
ATOM      9  C   UNL     1       4.859   4.561  17.254  0.00  0.00    +0.000 A 
ATOM     10  C   UNL     1       5.386   5.835  17.546  0.00  0.00    +0.000 A 
BRANCH   9  11
ATOM     11  N   UNL     1       3.780   4.017  18.006  0.00  0.00    +0.000 N 
ATOM     12  C   UNL     1       2.398   4.150  17.616  0.00  0.00    +0.000 C 
ATOM     13  C   UNL     1       1.632   3.908  18.899  0.00  0.00    +0.000 C 
ATOM     14  C   UNL     1       2.496   2.904  19.638  0.00  0.00    +0.000 C 
ATOM     15  C   UNL     1       3.890   3.241  19.172  0.00  0.00    +0.000 C 
ATOM     16  O   UNL     1       4.891   2.826  19.739  0.00  0.00    +0.000 OA
ENDBRANCH   9  11
ENDBRANCH   3   5
BRANCH   2  17
ATOM     17  C   UNL     1       8.296   9.390  18.173  0.00  0.00    +0.000 A 
ATOM     18  C   UNL     1       9.331   9.677  19.066  0.00  0.00    +0.000 A 
ATOM     19  C   UNL     1       9.859  10.955  19.114  0.00  0.00    +0.000 A 
ATOM     20  C   UNL     1       9.343  11.961  18.284  0.00  0.00    +0.000 A 
ATOM     21  C   UNL     1       8.247  11.718  17.454  0.00  0.00    +0.000 A 
ATOM     22  C   UNL     1       7.732  10.410  17.387  0.00  0.00    +0.000 A 
BRANCH  20  23
ATOM     23  N   UNL     1      10.043  13.189  18.299  0.00  0.00    +0.000 N 
ATOM     24  C   UNL     1      11.270  13.338  17.683  0.00  0.00    +0.000 A 
ATOM     25  N   UNL     1      12.056  14.169  18.319  0.00  0.00    +0.000 NA
ATOM     26  C   UNL     1      11.292  14.631  19.355  0.00  0.00    +0.000 A 
ATOM     27  C   UNL     1      11.685  15.440  20.429  0.00  0.00    +0.000 A 
ATOM     28  C   UNL     1      10.724  15.820  21.367  0.00  0.00    +0.000 A 
ATOM     29  C   UNL     1       9.390  15.436  21.215  0.00  0.00    +0.000 A 
ATOM     30  C   UNL     1       8.983  14.589  20.172  0.00  0.00    +0.000 A 
ATOM     31  C   UNL     1       9.974  14.166  19.278  0.00  0.00    +0.000 A 
ENDBRANCH  20  23
ENDBRANCH   2  17
TORSDOF 4
ENDMDL
