MODEL 1
REMARK VINA RESULT:      -8.9      0.000      0.000
REMARK  Name = 
REMARK  6 active torsions:
REMARK  status: ('A' for Active; 'I' for Inactive)
REMARK    1  A    between atoms: C_1  and  C_2
REMARK    2  A    between atoms: C_7  and  C_8
REMARK    3  A    between atoms: N_10  and  C_11
REMARK    4  A    between atoms: N_10  and  C_12
REMARK    5  A    between atoms: C_12  and  C_13
REMARK    6  A    between atoms: N_16  and  C_17
REMARK                            x       y       z     vdW  Elec       q    Type
REMARK                         _______ _______ _______ _____ _____    ______ ____
ROOT
ATOM      1  C   UNL     1       3.283   5.937  19.188  0.00  0.00    +0.000 C 
ATOM      2  O   UNL     1       4.367   5.985  19.774  0.00  0.00    +0.000 OA
ATOM      3  N   UNL     1       2.861   4.776  18.528  0.00  0.00    +0.000 N 
ATOM      4  C   UNL     1       1.599   4.538  17.833  0.00  0.00    +0.000 C 
ENDROOT
BRANCH   1  11
ATOM      5  C   UNL     1      -1.481  12.318  21.209  0.00  0.00    +0.000 C 
ATOM      6  C   UNL     1      -0.848  10.987  20.818  0.00  0.00    +0.000 C 
ATOM      7  S   UNL     1       0.213  11.204  19.354  0.00  0.00    +0.000 S 
ATOM      8  C   UNL     1       0.990   9.600  19.328  0.00  0.00    +0.000 A 
ATOM      9  C   UNL     1       1.625   9.180  18.156  0.00  0.00    +0.000 A 
ATOM     10  C   UNL     1       2.356   7.986  18.137  0.00  0.00    +0.000 A 
ATOM     11  C   UNL     1       2.436   7.173  19.277  0.00  0.00    +0.000 A 
ATOM     12  C   UNL     1       1.713   7.541  20.410  0.00  0.00    +0.000 A 
ATOM     13  C   UNL     1       1.062   8.782  20.466  0.00  0.00    +0.000 A 
ATOM     14  N   UNL     1       0.607   9.211  21.722  0.00  0.00    +0.000 N 
ATOM     15  C   UNL     1      -0.080  10.369  21.976  0.00  0.00    +0.000 C 
ATOM     16  O   UNL     1      -0.153  10.773  23.137  0.00  0.00    +0.000 OA
ATOM     17  H   UNL     1       0.961   8.749  22.552  0.00  0.00    +0.000 HD
ENDBRANCH   1  11
BRANCH   3  18
ATOM     18  C   UNL     1       3.778   3.635  18.547  0.00  0.00    +0.000 C 
BRANCH  18  19
ATOM     19  C   UNL     1       4.912   3.846  17.594  0.00  0.00    +0.000 A 
ATOM     20  C   UNL     1       6.213   4.323  17.860  0.00  0.00    +0.000 A 
ATOM     21  N   UNL     1       6.975   4.397  16.764  0.00  0.00    +0.000 NA
ATOM     22  N   UNL     1       6.136   4.079  15.745  0.00  0.00    +0.000 N 
ATOM     23  C   UNL     1       4.917   3.649  16.229  0.00  0.00    +0.000 A 
BRANCH  22  24
ATOM     24  C   UNL     1       6.512   4.242  14.381  0.00  0.00    +0.000 A 
ATOM     25  C   UNL     1       5.942   3.432  13.389  0.00  0.00    +0.000 A 
ATOM     26  C   UNL     1       6.335   3.579  12.057  0.00  0.00    +0.000 A 
ATOM     27  C   UNL     1       7.313   4.515  11.707  0.00  0.00    +0.000 A 
ATOM     28  C   UNL     1       7.887   5.315  12.691  0.00  0.00    +0.000 A 
ATOM     29  C   UNL     1       7.485   5.187  14.023  0.00  0.00    +0.000 A 
ENDBRANCH  22  24
ENDBRANCH  18  19
ENDBRANCH   3  18
TORSDOF 4
ENDMDL
MODEL 2
REMARK VINA RESULT:      -8.2      0.964      1.463
REMARK  Name = 
REMARK  6 active torsions:
REMARK  status: ('A' for Active; 'I' for Inactive)
REMARK    1  A    between atoms: C_1  and  C_2
REMARK    2  A    between atoms: C_7  and  C_8
REMARK    3  A    between atoms: N_10  and  C_11
REMARK    4  A    between atoms: N_10  and  C_12
REMARK    5  A    between atoms: C_12  and  C_13
REMARK    6  A    between atoms: N_16  and  C_17
REMARK                            x       y       z     vdW  Elec       q    Type
REMARK                         _______ _______ _______ _____ _____    ______ ____
ROOT
ATOM      1  C   UNL     1       2.987   6.193  19.474  0.00  0.00    +0.000 C 
ATOM      2  O   UNL     1       2.500   5.247  20.099  0.00  0.00    +0.000 OA
ATOM      3  N   UNL     1       4.216   6.075  18.814  0.00  0.00    +0.000 N 
ATOM      4  C   UNL     1       4.904   7.073  17.999  0.00  0.00    +0.000 C 
ENDROOT
BRANCH   1  11
ATOM      5  C   UNL     1      -1.652  12.846  20.786  0.00  0.00    +0.000 C 
ATOM      6  C   UNL     1      -1.045  11.467  20.552  0.00  0.00    +0.000 C 
ATOM      7  S   UNL     1      -0.022  11.480  19.045  0.00  0.00    +0.000 S 
ATOM      8  C   UNL     1       0.737   9.875  19.204  0.00  0.00    +0.000 A 
ATOM      9  C   UNL     1       1.334   9.300  18.079  0.00  0.00    +0.000 A 
ATOM     10  C   UNL     1       2.052   8.103  18.193  0.00  0.00    +0.000 A 
ATOM     11  C   UNL     1       2.156   7.441  19.426  0.00  0.00    +0.000 A 
ATOM     12  C   UNL     1       1.468   7.962  20.521  0.00  0.00    +0.000 A 
ATOM     13  C   UNL     1       0.832   9.208  20.434  0.00  0.00    +0.000 A 
ATOM     14  N   UNL     1       0.418   9.801  21.637  0.00  0.00    +0.000 N 
ATOM     15  C   UNL     1      -0.250  10.991  21.759  0.00  0.00    +0.000 C 
ATOM     16  O   UNL     1      -0.286  11.542  22.860  0.00  0.00    +0.000 OA
ATOM     17  H   UNL     1       0.790   9.444  22.510  0.00  0.00    +0.000 HD
ENDBRANCH   1  11
BRANCH   3  18
ATOM     18  C   UNL     1       4.904   4.788  18.923  0.00  0.00    +0.000 C 
BRANCH  18  19
ATOM     19  C   UNL     1       5.843   4.586  17.776  0.00  0.00    +0.000 A 
ATOM     20  C   UNL     1       7.254   4.626  17.772  0.00  0.00    +0.000 A 
ATOM     21  N   UNL     1       7.778   4.411  16.562  0.00  0.00    +0.000 NA
ATOM     22  N   UNL     1       6.704   4.346  15.733  0.00  0.00    +0.000 N 
ATOM     23  C   UNL     1       5.527   4.350  16.455  0.00  0.00    +0.000 A 
BRANCH  22  24
ATOM     24  C   UNL     1       6.845   4.329  14.317  0.00  0.00    +0.000 A 
ATOM     25  C   UNL     1       7.682   5.255  13.679  0.00  0.00    +0.000 A 
ATOM     26  C   UNL     1       7.794   5.251  12.287  0.00  0.00    +0.000 A 
ATOM     27  C   UNL     1       7.058   4.342  11.520  0.00  0.00    +0.000 A 
ATOM     28  C   UNL     1       6.220   3.427  12.150  0.00  0.00    +0.000 A 
ATOM     29  C   UNL     1       6.116   3.412  13.543  0.00  0.00    +0.000 A 
ENDBRANCH  22  24
ENDBRANCH  18  19
ENDBRANCH   3  18
TORSDOF 4
ENDMDL
MODEL 3
REMARK VINA RESULT:      -8.0      3.994     10.115
REMARK  Name = 
REMARK  6 active torsions:
REMARK  status: ('A' for Active; 'I' for Inactive)
REMARK    1  A    between atoms: C_1  and  C_2
REMARK    2  A    between atoms: C_7  and  C_8
REMARK    3  A    between atoms: N_10  and  C_11
REMARK    4  A    between atoms: N_10  and  C_12
REMARK    5  A    between atoms: C_12  and  C_13
REMARK    6  A    between atoms: N_16  and  C_17
REMARK                            x       y       z     vdW  Elec       q    Type
REMARK                         _______ _______ _______ _____ _____    ______ ____
ROOT
ATOM      1  C   UNL     1       1.846   9.102  18.235  0.00  0.00    +0.000 C 
ATOM      2  O   UNL     1       1.993   9.804  17.232  0.00  0.00    +0.000 OA
ATOM      3  N   UNL     1       1.101   9.546  19.334  0.00  0.00    +0.000 N 
ATOM      4  C   UNL     1       0.793   8.829  20.569  0.00  0.00    +0.000 C 
ENDROOT
BRANCH   1  11
ATOM      5  C   UNL     1       3.857   1.139  18.484  0.00  0.00    +0.000 C 
ATOM      6  C   UNL     1       3.555   2.615  18.720  0.00  0.00    +0.000 C 
ATOM      7  S   UNL     1       4.465   3.640  17.521  0.00  0.00    +0.000 S 
ATOM      8  C   UNL     1       3.709   5.217  17.866  0.00  0.00    +0.000 A 
ATOM      9  C   UNL     1       4.351   6.379  17.430  0.00  0.00    +0.000 A 
ATOM     10  C   UNL     1       3.727   7.626  17.567  0.00  0.00    +0.000 A 
ATOM     11  C   UNL     1       2.468   7.737  18.175  0.00  0.00    +0.000 A 
ATOM     12  C   UNL     1       1.881   6.589  18.705  0.00  0.00    +0.000 A 
ATOM     13  C   UNL     1       2.454   5.330  18.483  0.00  0.00    +0.000 A 
ATOM     14  N   UNL     1       1.670   4.206  18.786  0.00  0.00    +0.000 N 
ATOM     15  C   UNL     1       2.061   2.898  18.674  0.00  0.00    +0.000 C 
ATOM     16  O   UNL     1       1.200   2.018  18.677  0.00  0.00    +0.000 OA
ATOM     17  H   UNL     1       0.673   4.330  18.919  0.00  0.00    +0.000 HD
ENDBRANCH   1  11
BRANCH   3  18
ATOM     18  C   UNL     1       0.527  10.890  19.243  0.00  0.00    +0.000 C 
BRANCH  18  19
ATOM     19  C   UNL     1      -0.891  10.834  18.771  0.00  0.00    +0.000 A 
ATOM     20  C   UNL     1      -1.440  10.085  17.709  0.00  0.00    +0.000 A 
ATOM     21  N   UNL     1      -2.753  10.283  17.556  0.00  0.00    +0.000 NA
ATOM     22  N   UNL     1      -3.056  11.260  18.448  0.00  0.00    +0.000 N 
ATOM     23  C   UNL     1      -1.974  11.538  19.257  0.00  0.00    +0.000 A 
BRANCH  22  24
ATOM     24  C   UNL     1      -4.325  11.906  18.456  0.00  0.00    +0.000 A 
ATOM     25  C   UNL     1      -5.107  11.943  17.294  0.00  0.00    +0.000 A 
ATOM     26  C   UNL     1      -6.339  12.601  17.302  0.00  0.00    +0.000 A 
ATOM     27  C   UNL     1      -6.789  13.246  18.459  0.00  0.00    +0.000 A 
ATOM     28  C   UNL     1      -6.010  13.218  19.612  0.00  0.00    +0.000 A 
ATOM     29  C   UNL     1      -4.786  12.546  19.617  0.00  0.00    +0.000 A 
ENDBRANCH  22  24
ENDBRANCH  18  19
ENDBRANCH   3  18
TORSDOF 4
ENDMDL
MODEL 4
REMARK VINA RESULT:      -7.9      3.566     11.499
REMARK  Name = 
REMARK  6 active torsions:
REMARK  status: ('A' for Active; 'I' for Inactive)
REMARK    1  A    between atoms: C_1  and  C_2
REMARK    2  A    between atoms: C_7  and  C_8
REMARK    3  A    between atoms: N_10  and  C_11
REMARK    4  A    between atoms: N_10  and  C_12
REMARK    5  A    between atoms: C_12  and  C_13
REMARK    6  A    between atoms: N_16  and  C_17
REMARK                            x       y       z     vdW  Elec       q    Type
REMARK                         _______ _______ _______ _____ _____    ______ ____
ROOT
ATOM      1  C   UNL     1       0.538  10.792  19.655  0.00  0.00    +0.000 C 
ATOM      2  O   UNL     1       1.214  11.659  20.214  0.00  0.00    +0.000 OA
ATOM      3  N   UNL     1      -0.731  11.079  19.137  0.00  0.00    +0.000 N 
ATOM      4  C   UNL     1      -1.635  10.190  18.412  0.00  0.00    +0.000 C 
ENDROOT
BRANCH   1  11
ATOM      5  C   UNL     1       4.661   3.994  17.583  0.00  0.00    +0.000 C 
ATOM      6  C   UNL     1       3.692   5.154  17.786  0.00  0.00    +0.000 C 
ATOM      7  S   UNL     1       3.347   5.379  19.560  0.00  0.00    +0.000 S 
ATOM      8  C   UNL     1       2.450   6.918  19.480  0.00  0.00    +0.000 A 
ATOM      9  C   UNL     1       1.671   7.299  20.576  0.00  0.00    +0.000 A 
ATOM     10  C   UNL     1       1.058   8.557  20.604  0.00  0.00    +0.000 A 
ATOM     11  C   UNL     1       1.182   9.443  19.523  0.00  0.00    +0.000 A 
ATOM     12  C   UNL     1       1.870   9.016  18.389  0.00  0.00    +0.000 A 
ATOM     13  C   UNL     1       2.567   7.800  18.395  0.00  0.00    +0.000 A 
ATOM     14  N   UNL     1       3.467   7.571  17.342  0.00  0.00    +0.000 N 
ATOM     15  C   UNL     1       4.210   6.436  17.152  0.00  0.00    +0.000 C 
ATOM     16  O   UNL     1       5.169   6.477  16.381  0.00  0.00    +0.000 OA
ATOM     17  H   UNL     1       3.755   8.355  16.769  0.00  0.00    +0.000 HD
ENDBRANCH   1  11
BRANCH   3  18
ATOM     18  C   UNL     1      -1.223  12.446  19.313  0.00  0.00    +0.000 C 
BRANCH  18  19
ATOM     19  C   UNL     1      -2.124  12.541  20.503  0.00  0.00    +0.000 A 
ATOM     20  C   UNL     1      -1.822  12.300  21.860  0.00  0.00    +0.000 A 
ATOM     21  N   UNL     1      -2.876  12.469  22.665  0.00  0.00    +0.000 NA
ATOM     22  N   UNL     1      -3.913  12.708  21.822  0.00  0.00    +0.000 N 
ATOM     23  C   UNL     1      -3.467  12.854  20.525  0.00  0.00    +0.000 A 
BRANCH  22  24
ATOM     24  C   UNL     1      -5.262  12.740  22.277  0.00  0.00    +0.000 A 
ATOM     25  C   UNL     1      -5.550  13.051  23.613  0.00  0.00    +0.000 A 
ATOM     26  C   UNL     1      -6.874  13.054  24.059  0.00  0.00    +0.000 A 
ATOM     27  C   UNL     1      -7.915  12.726  23.186  0.00  0.00    +0.000 A 
ATOM     28  C   UNL     1      -7.631  12.408  21.861  0.00  0.00    +0.000 A 
ATOM     29  C   UNL     1      -6.312  12.422  21.403  0.00  0.00    +0.000 A 
ENDBRANCH  22  24
ENDBRANCH  18  19
ENDBRANCH   3  18
TORSDOF 4
ENDMDL
MODEL 5
REMARK VINA RESULT:      -7.9      4.140     10.157
REMARK  Name = 
REMARK  6 active torsions:
REMARK  status: ('A' for Active; 'I' for Inactive)
REMARK    1  A    between atoms: C_1  and  C_2
REMARK    2  A    between atoms: C_7  and  C_8
REMARK    3  A    between atoms: N_10  and  C_11
REMARK    4  A    between atoms: N_10  and  C_12
REMARK    5  A    between atoms: C_12  and  C_13
REMARK    6  A    between atoms: N_16  and  C_17
REMARK                            x       y       z     vdW  Elec       q    Type
REMARK                         _______ _______ _______ _____ _____    ______ ____
ROOT
ATOM      1  C   UNL     1       1.647   9.472  18.479  0.00  0.00    +0.000 C 
ATOM      2  O   UNL     1       1.913  10.127  17.468  0.00  0.00    +0.000 OA
ATOM      3  N   UNL     1       0.732   9.938  19.430  0.00  0.00    +0.000 N 
ATOM      4  C   UNL     1       0.274   9.272  20.647  0.00  0.00    +0.000 C 
ENDROOT
BRANCH   1  11
ATOM      5  C   UNL     1       4.436   1.977  20.364  0.00  0.00    +0.000 C 
ATOM      6  C   UNL     1       4.110   3.459  20.214  0.00  0.00    +0.000 C 
ATOM      7  S   UNL     1       4.252   3.957  18.468  0.00  0.00    +0.000 S 
ATOM      8  C   UNL     1       3.564   5.597  18.585  0.00  0.00    +0.000 A 
ATOM      9  C   UNL     1       3.801   6.501  17.546  0.00  0.00    +0.000 A 
ATOM     10  C   UNL     1       3.172   7.752  17.539  0.00  0.00    +0.000 A 
ATOM     11  C   UNL     1       2.323   8.136  18.588  0.00  0.00    +0.000 A 
ATOM     12  C   UNL     1       2.176   7.275  19.674  0.00  0.00    +0.000 A 
ATOM     13  C   UNL     1       2.723   5.985  19.639  0.00  0.00    +0.000 A 
ATOM     14  N   UNL     1       2.295   5.080  20.622  0.00  0.00    +0.000 N 
ATOM     15  C   UNL     1       2.737   3.793  20.778  0.00  0.00    +0.000 C 
ATOM     16  O   UNL     1       2.077   3.018  21.470  0.00  0.00    +0.000 OA
ATOM     17  H   UNL     1       1.461   5.298  21.155  0.00  0.00    +0.000 HD
ENDBRANCH   1  11
BRANCH   3  18
ATOM     18  C   UNL     1       0.127  11.246  19.180  0.00  0.00    +0.000 C 
BRANCH  18  19
ATOM     19  C   UNL     1      -1.285  11.100  18.708  0.00  0.00    +0.000 A 
ATOM     20  C   UNL     1      -1.781  10.345  17.624  0.00  0.00    +0.000 A 
ATOM     21  N   UNL     1      -3.105  10.450  17.478  0.00  0.00    +0.000 NA
ATOM     22  N   UNL     1      -3.476  11.375  18.400  0.00  0.00    +0.000 N 
ATOM     23  C   UNL     1      -2.415  11.707  19.216  0.00  0.00    +0.000 A 
BRANCH  22  24
ATOM     24  C   UNL     1      -4.789  11.925  18.429  0.00  0.00    +0.000 A 
ATOM     25  C   UNL     1      -5.394  12.247  19.652  0.00  0.00    +0.000 A 
ATOM     26  C   UNL     1      -6.692  12.761  19.676  0.00  0.00    +0.000 A 
ATOM     27  C   UNL     1      -7.405  12.935  18.486  0.00  0.00    +0.000 A 
ATOM     28  C   UNL     1      -6.811  12.607  17.270  0.00  0.00    +0.000 A 
ATOM     29  C   UNL     1      -5.506  12.112  17.237  0.00  0.00    +0.000 A 
ENDBRANCH  22  24
ENDBRANCH  18  19
ENDBRANCH   3  18
TORSDOF 4
ENDMDL
MODEL 6
REMARK VINA RESULT:      -7.8      3.467     11.193
REMARK  Name = 
REMARK  6 active torsions:
REMARK  status: ('A' for Active; 'I' for Inactive)
REMARK    1  A    between atoms: C_1  and  C_2
REMARK    2  A    between atoms: C_7  and  C_8
REMARK    3  A    between atoms: N_10  and  C_11
REMARK    4  A    between atoms: N_10  and  C_12
REMARK    5  A    between atoms: C_12  and  C_13
REMARK    6  A    between atoms: N_16  and  C_17
REMARK                            x       y       z     vdW  Elec       q    Type
REMARK                         _______ _______ _______ _____ _____    ______ ____
ROOT
ATOM      1  C   UNL     1       0.798  10.941  18.918  0.00  0.00    +0.000 C 
ATOM      2  O   UNL     1       1.553  11.859  19.249  0.00  0.00    +0.000 OA
ATOM      3  N   UNL     1      -0.502  11.193  18.463  0.00  0.00    +0.000 N 
ATOM      4  C   UNL     1      -1.498  10.233  17.994  0.00  0.00    +0.000 C 
ENDROOT
BRANCH   1  11
ATOM      5  C   UNL     1       4.645   3.753  17.894  0.00  0.00    +0.000 C 
ATOM      6  C   UNL     1       3.727   4.971  17.911  0.00  0.00    +0.000 C 
ATOM      7  S   UNL     1       3.351   5.447  19.628  0.00  0.00    +0.000 S 
ATOM      8  C   UNL     1       2.530   6.999  19.318  0.00  0.00    +0.000 A 
ATOM      9  C   UNL     1       1.743   7.556  20.329  0.00  0.00    +0.000 A 
ATOM     10  C   UNL     1       1.189   8.833  20.171  0.00  0.00    +0.000 A 
ATOM     11  C   UNL     1       1.381   9.560  18.986  0.00  0.00    +0.000 A 
ATOM     12  C   UNL     1       2.076   8.955  17.940  0.00  0.00    +0.000 A 
ATOM     13  C   UNL     1       2.714   7.721  18.129  0.00  0.00    +0.000 A 
ATOM     14  N   UNL     1       3.628   7.315  17.144  0.00  0.00    +0.000 N 
ATOM     15  C   UNL     1       4.321   6.133  17.129  0.00  0.00    +0.000 C 
ATOM     16  O   UNL     1       5.299   6.029  16.389  0.00  0.00    +0.000 OA
ATOM     17  H   UNL     1       3.966   8.002  16.481  0.00  0.00    +0.000 HD
ENDBRANCH   1  11
BRANCH   3  18
ATOM     18  C   UNL     1      -0.928  12.592  18.422  0.00  0.00    +0.000 C 
BRANCH  18  19
ATOM     19  C   UNL     1      -1.508  13.012  19.735  0.00  0.00    +0.000 A 
ATOM     20  C   UNL     1      -0.890  13.721  20.788  0.00  0.00    +0.000 A 
ATOM     21  N   UNL     1      -1.704  13.920  21.829  0.00  0.00    +0.000 NA
ATOM     22  N   UNL     1      -2.833  13.235  21.515  0.00  0.00    +0.000 N 
ATOM     23  C   UNL     1      -2.776  12.764  20.219  0.00  0.00    +0.000 A 
BRANCH  22  24
ATOM     24  C   UNL     1      -3.876  13.026  22.461  0.00  0.00    +0.000 A 
ATOM     25  C   UNL     1      -3.574  12.606  23.764  0.00  0.00    +0.000 A 
ATOM     26  C   UNL     1      -4.603  12.376  24.680  0.00  0.00    +0.000 A 
ATOM     27  C   UNL     1      -5.939  12.540  24.298  0.00  0.00    +0.000 A 
ATOM     28  C   UNL     1      -6.242  12.949  23.002  0.00  0.00    +0.000 A 
ATOM     29  C   UNL     1      -5.217  13.199  22.087  0.00  0.00    +0.000 A 
ENDBRANCH  22  24
ENDBRANCH  18  19
ENDBRANCH   3  18
TORSDOF 4
ENDMDL
MODEL 7
REMARK VINA RESULT:      -7.8      3.405      6.416
REMARK  Name = 
REMARK  6 active torsions:
REMARK  status: ('A' for Active; 'I' for Inactive)
REMARK    1  A    between atoms: C_1  and  C_2
REMARK    2  A    between atoms: C_7  and  C_8
REMARK    3  A    between atoms: N_10  and  C_11
REMARK    4  A    between atoms: N_10  and  C_12
REMARK    5  A    between atoms: C_12  and  C_13
REMARK    6  A    between atoms: N_16  and  C_17
REMARK                            x       y       z     vdW  Elec       q    Type
REMARK                         _______ _______ _______ _____ _____    ______ ____
ROOT
ATOM      1  C   UNL     1       0.200  11.775  20.528  0.00  0.00    +0.000 C 
ATOM      2  O   UNL     1       1.300  12.108  20.977  0.00  0.00    +0.000 OA
ATOM      3  N   UNL     1       0.088  11.035  19.344  0.00  0.00    +0.000 N 
ATOM      4  C   UNL     1      -1.122  10.525  18.707  0.00  0.00    +0.000 C 
ENDROOT
BRANCH   1  11
ATOM      5  C   UNL     1      -6.675  14.838  23.824  0.00  0.00    +0.000 C 
ATOM      6  C   UNL     1      -5.276  14.516  23.308  0.00  0.00    +0.000 C 
ATOM      7  S   UNL     1      -4.740  12.889  23.928  0.00  0.00    +0.000 S 
ATOM      8  C   UNL     1      -3.256  12.694  22.959  0.00  0.00    +0.000 A 
ATOM      9  C   UNL     1      -2.312  11.745  23.361  0.00  0.00    +0.000 A 
ATOM     10  C   UNL     1      -1.198  11.471  22.558  0.00  0.00    +0.000 A 
ATOM     11  C   UNL     1      -0.989  12.165  21.356  0.00  0.00    +0.000 A 
ATOM     12  C   UNL     1      -1.876  13.185  21.014  0.00  0.00    +0.000 A 
ATOM     13  C   UNL     1      -3.042  13.394  21.763  0.00  0.00    +0.000 A 
ATOM     14  N   UNL     1      -4.022  14.228  21.202  0.00  0.00    +0.000 N 
ATOM     15  C   UNL     1      -5.208  14.583  21.790  0.00  0.00    +0.000 C 
ATOM     16  O   UNL     1      -6.099  15.060  21.087  0.00  0.00    +0.000 OA
ATOM     17  H   UNL     1      -3.968  14.447  20.214  0.00  0.00    +0.000 HD
ENDBRANCH   1  11
BRANCH   3  18
ATOM     18  C   UNL     1       1.335  10.699  18.655  0.00  0.00    +0.000 C 
BRANCH  18  19
ATOM     19  C   UNL     1       1.666   9.251  18.826  0.00  0.00    +0.000 A 
ATOM     20  C   UNL     1       1.645   8.472  20.003  0.00  0.00    +0.000 A 
ATOM     21  N   UNL     1       2.012   7.204  19.795  0.00  0.00    +0.000 NA
ATOM     22  N   UNL     1       2.394   7.170  18.492  0.00  0.00    +0.000 N 
ATOM     23  C   UNL     1       2.102   8.363  17.864  0.00  0.00    +0.000 A 
BRANCH  22  24
ATOM     24  C   UNL     1       3.050   6.039  17.929  0.00  0.00    +0.000 A 
ATOM     25  C   UNL     1       2.462   4.768  18.008  0.00  0.00    +0.000 A 
ATOM     26  C   UNL     1       3.123   3.659  17.477  0.00  0.00    +0.000 A 
ATOM     27  C   UNL     1       4.382   3.802  16.885  0.00  0.00    +0.000 A 
ATOM     28  C   UNL     1       4.972   5.061  16.812  0.00  0.00    +0.000 A 
ATOM     29  C   UNL     1       4.308   6.178  17.324  0.00  0.00    +0.000 A 
ENDBRANCH  22  24
ENDBRANCH  18  19
ENDBRANCH   3  18
TORSDOF 4
ENDMDL
MODEL 8
REMARK VINA RESULT:      -7.7      1.792      2.206
REMARK  Name = 
REMARK  6 active torsions:
REMARK  status: ('A' for Active; 'I' for Inactive)
REMARK    1  A    between atoms: C_1  and  C_2
REMARK    2  A    between atoms: C_7  and  C_8
REMARK    3  A    between atoms: N_10  and  C_11
REMARK    4  A    between atoms: N_10  and  C_12
REMARK    5  A    between atoms: C_12  and  C_13
REMARK    6  A    between atoms: N_16  and  C_17
REMARK                            x       y       z     vdW  Elec       q    Type
REMARK                         _______ _______ _______ _____ _____    ______ ____
ROOT
ATOM      1  C   UNL     1       2.247   6.440  19.874  0.00  0.00    +0.000 C 
ATOM      2  O   UNL     1       1.871   5.555  20.647  0.00  0.00    +0.000 OA
ATOM      3  N   UNL     1       3.078   6.152  18.785  0.00  0.00    +0.000 N 
ATOM      4  C   UNL     1       3.572   7.065  17.758  0.00  0.00    +0.000 C 
ENDROOT
BRANCH   1  11
ATOM      5  C   UNL     1      -0.905  14.027  19.808  0.00  0.00    +0.000 C 
ATOM      6  C   UNL     1      -0.071  12.752  19.745  0.00  0.00    +0.000 C 
ATOM      7  S   UNL     1      -0.216  11.832  21.310  0.00  0.00    +0.000 S 
ATOM      8  C   UNL     1       0.607  10.325  20.829  0.00  0.00    +0.000 A 
ATOM      9  C   UNL     1       1.054   9.456  21.828  0.00  0.00    +0.000 A 
ATOM     10  C   UNL     1       1.586   8.205  21.491  0.00  0.00    +0.000 A 
ATOM     11  C   UNL     1       1.715   7.816  20.149  0.00  0.00    +0.000 A 
ATOM     12  C   UNL     1       1.369   8.730  19.155  0.00  0.00    +0.000 A 
ATOM     13  C   UNL     1       0.745   9.940  19.487  0.00  0.00    +0.000 A 
ATOM     14  N   UNL     1       0.164  10.671  18.439  0.00  0.00    +0.000 N 
ATOM     15  C   UNL     1      -0.456  11.887  18.554  0.00  0.00    +0.000 C 
ATOM     16  O   UNL     1      -1.179  12.274  17.635  0.00  0.00    +0.000 OA
ATOM     17  H   UNL     1       0.005  10.208  17.552  0.00  0.00    +0.000 HD
ENDBRANCH   1  11
BRANCH   3  18
ATOM     18  C   UNL     1       3.497   4.759  18.623  0.00  0.00    +0.000 C 
BRANCH  18  19
ATOM     19  C   UNL     1       4.666   4.657  17.696  0.00  0.00    +0.000 A 
ATOM     20  C   UNL     1       6.028   4.911  17.960  0.00  0.00    +0.000 A 
ATOM     21  N   UNL     1       6.809   4.730  16.891  0.00  0.00    +0.000 NA
ATOM     22  N   UNL     1       5.944   4.469  15.878  0.00  0.00    +0.000 N 
ATOM     23  C   UNL     1       4.658   4.323  16.357  0.00  0.00    +0.000 A 
BRANCH  22  24
ATOM     24  C   UNL     1       6.367   4.418  14.520  0.00  0.00    +0.000 A 
ATOM     25  C   UNL     1       5.776   3.511  13.629  0.00  0.00    +0.000 A 
ATOM     26  C   UNL     1       6.214   3.447  12.304  0.00  0.00    +0.000 A 
ATOM     27  C   UNL     1       7.257   4.269  11.864  0.00  0.00    +0.000 A 
ATOM     28  C   UNL     1       7.851   5.165  12.749  0.00  0.00    +0.000 A 
ATOM     29  C   UNL     1       7.405   5.247  14.069  0.00  0.00    +0.000 A 
ENDBRANCH  22  24
ENDBRANCH  18  19
ENDBRANCH   3  18
TORSDOF 4
ENDMDL
MODEL 9
REMARK VINA RESULT:      -7.7      3.490      9.974
REMARK  Name = 
REMARK  6 active torsions:
REMARK  status: ('A' for Active; 'I' for Inactive)
REMARK    1  A    between atoms: C_1  and  C_2
REMARK    2  A    between atoms: C_7  and  C_8
REMARK    3  A    between atoms: N_10  and  C_11
REMARK    4  A    between atoms: N_10  and  C_12
REMARK    5  A    between atoms: C_12  and  C_13
REMARK    6  A    between atoms: N_16  and  C_17
REMARK                            x       y       z     vdW  Elec       q    Type
REMARK                         _______ _______ _______ _____ _____    ______ ____
ROOT
ATOM      1  C   UNL     1       1.801   7.957  19.922  0.00  0.00    +0.000 C 
ATOM      2  O   UNL     1       1.621   7.552  21.074  0.00  0.00    +0.000 OA
ATOM      3  N   UNL     1       1.434   9.252  19.539  0.00  0.00    +0.000 N 
ATOM      4  C   UNL     1       1.617   9.898  18.242  0.00  0.00    +0.000 C 
ENDROOT
BRANCH   1  11
ATOM      5  C   UNL     1       6.562   3.877  14.612  0.00  0.00    +0.000 C 
ATOM      6  C   UNL     1       5.560   4.751  15.359  0.00  0.00    +0.000 C 
ATOM      7  S   UNL     1       4.573   3.735  16.503  0.00  0.00    +0.000 S 
ATOM      8  C   UNL     1       3.734   5.037  17.385  0.00  0.00    +0.000 A 
ATOM      9  C   UNL     1       2.593   4.719  18.126  0.00  0.00    +0.000 A 
ATOM     10  C   UNL     1       1.983   5.685  18.936  0.00  0.00    +0.000 A 
ATOM     11  C   UNL     1       2.481   6.996  18.991  0.00  0.00    +0.000 A 
ATOM     12  C   UNL     1       3.552   7.336  18.167  0.00  0.00    +0.000 A 
ATOM     13  C   UNL     1       4.226   6.350  17.433  0.00  0.00    +0.000 A 
ATOM     14  N   UNL     1       5.459   6.705  16.863  0.00  0.00    +0.000 N 
ATOM     15  C   UNL     1       6.246   5.899  16.085  0.00  0.00    +0.000 C 
ATOM     16  O   UNL     1       7.423   6.214  15.904  0.00  0.00    +0.000 OA
ATOM     17  H   UNL     1       5.921   7.546  17.189  0.00  0.00    +0.000 HD
ENDBRANCH   1  11
BRANCH   3  18
ATOM     18  C   UNL     1       0.805  10.091  20.561  0.00  0.00    +0.000 C 
BRANCH  18  19
ATOM     19  C   UNL     1      -0.245  10.968  19.959  0.00  0.00    +0.000 A 
ATOM     20  C   UNL     1      -0.297  12.378  19.910  0.00  0.00    +0.000 A 
ATOM     21  N   UNL     1      -1.395  12.838  19.301  0.00  0.00    +0.000 NA
ATOM     22  N   UNL     1      -2.135  11.727  19.050  0.00  0.00    +0.000 N 
ATOM     23  C   UNL     1      -1.421  10.584  19.347  0.00  0.00    +0.000 A 
BRANCH  22  24
ATOM     24  C   UNL     1      -3.480  11.806  18.590  0.00  0.00    +0.000 A 
ATOM     25  C   UNL     1      -3.800  11.446  17.274  0.00  0.00    +0.000 A 
ATOM     26  C   UNL     1      -5.117  11.551  16.822  0.00  0.00    +0.000 A 
ATOM     27  C   UNL     1      -6.119  12.037  17.668  0.00  0.00    +0.000 A 
ATOM     28  C   UNL     1      -5.803  12.404  18.973  0.00  0.00    +0.000 A 
ATOM     29  C   UNL     1      -4.492  12.283  19.438  0.00  0.00    +0.000 A 
ENDBRANCH  22  24
ENDBRANCH  18  19
ENDBRANCH   3  18
TORSDOF 4
ENDMDL
