MODEL 1
REMARK VINA RESULT:      -9.0      0.000      0.000
REMARK  Name = 
REMARK  5 active torsions:
REMARK  status: ('A' for Active; 'I' for Inactive)
REMARK    1  A    between atoms: N_1  and  C_2
REMARK    2  A    between atoms: C_4  and  C_5
REMARK    3  A    between atoms: C_5  and  N_6
REMARK    4  A    between atoms: C_10  and  C_11
REMARK    5  A    between atoms: C_14  and  C_15
REMARK                            x       y       z     vdW  Elec       q    Type
REMARK                         _______ _______ _______ _____ _____    ______ ____
ROOT
ATOM      1  N   UNL     1       3.235   2.837  18.993  0.00  0.00    +0.000 NA
ATOM      2  C   UNL     1       1.994   2.150  19.351  0.00  0.00    +0.000 C 
ATOM      3  C   UNL     1       0.927   3.001  20.040  0.00  0.00    +0.000 C 
ATOM      4  O   UNL     1       1.421   3.838  21.086  0.00  0.00    +0.000 OA
ATOM      5  C   UNL     1       2.539   4.660  20.701  0.00  0.00    +0.000 C 
ATOM      6  C   UNL     1       3.644   3.803  20.017  0.00  0.00    +0.000 C 
ENDROOT
BRANCH   5   7
ATOM      7  C   UNL     1       2.141   5.990  20.061  0.00  0.00    +0.000 A 
ATOM      8  C   UNL     1       1.495   6.991  20.802  0.00  0.00    +0.000 A 
ATOM      9  C   UNL     1       1.250   8.259  20.267  0.00  0.00    +0.000 A 
ATOM     10  C   UNL     1       1.684   8.586  18.982  0.00  0.00    +0.000 A 
ATOM     11  C   UNL     1       2.327   7.598  18.220  0.00  0.00    +0.000 A 
ATOM     12  C   UNL     1       2.553   6.317  18.755  0.00  0.00    +0.000 A 
BRANCH  10  13
ATOM     13  C   UNL     1       1.452   9.987  18.467  0.00  0.00    +0.000 C 
ATOM     14  F   UNL     1       1.460  10.917  19.465  0.00  0.00    +0.000 F 
ATOM     15  F   UNL     1       2.390  10.403  17.570  0.00  0.00    +0.000 F 
ATOM     16  F   UNL     1       0.249  10.123  17.845  0.00  0.00    +0.000 F 
ENDBRANCH  10  13
ENDBRANCH   5   7
BRANCH   1  17
ATOM     17  C   UNL     1       3.341   3.268  17.584  0.00  0.00    +0.000 C 
BRANCH  17  20
ATOM     18  C   UNL     1       5.362   6.011  16.251  0.00  0.00    +0.000 A 
ATOM     19  N   UNL     1       4.499   4.986  16.275  0.00  0.00    +0.000 NA
ATOM     20  C   UNL     1       4.581   4.151  17.325  0.00  0.00    +0.000 A 
ATOM     21  N   UNL     1       5.529   4.224  18.289  0.00  0.00    +0.000 NA
ATOM     22  C   UNL     1       6.407   5.248  18.226  0.00  0.00    +0.000 A 
ATOM     23  C   UNL     1       7.387   5.407  19.205  0.00  0.00    +0.000 A 
ATOM     24  C   UNL     1       8.247   6.518  19.239  0.00  0.00    +0.000 A 
ATOM     25  C   UNL     1       8.145   7.499  18.262  0.00  0.00    +0.000 A 
ATOM     26  C   UNL     1       7.217   7.337  17.241  0.00  0.00    +0.000 A 
ATOM     27  C   UNL     1       6.341   6.219  17.222  0.00  0.00    +0.000 A 
BRANCH  18  28
ATOM     28  N   UNL     1       5.186   6.895  15.180  0.00  0.00    +0.000 N 
ATOM     29  H   UNL     1       4.814   6.339  14.414  0.00  0.00    +0.000 HD
ATOM     30  H   UNL     1       4.545   7.638  15.436  0.00  0.00    +0.000 HD
ENDBRANCH  18  28
ENDBRANCH  17  20
ENDBRANCH   1  17
TORSDOF 5
ENDMDL
MODEL 2
REMARK VINA RESULT:      -9.0      0.261      1.165
REMARK  Name = 
REMARK  5 active torsions:
REMARK  status: ('A' for Active; 'I' for Inactive)
REMARK    1  A    between atoms: N_1  and  C_2
REMARK    2  A    between atoms: C_4  and  C_5
REMARK    3  A    between atoms: C_5  and  N_6
REMARK    4  A    between atoms: C_10  and  C_11
REMARK    5  A    between atoms: C_14  and  C_15
REMARK                            x       y       z     vdW  Elec       q    Type
REMARK                         _______ _______ _______ _____ _____    ______ ____
ROOT
ATOM      1  N   UNL     1       3.039   2.721  18.806  0.00  0.00    +0.000 NA
ATOM      2  C   UNL     1       1.722   2.179  19.138  0.00  0.00    +0.000 C 
ATOM      3  C   UNL     1       0.779   3.114  19.895  0.00  0.00    +0.000 C 
ATOM      4  O   UNL     1       1.384   3.810  20.985  0.00  0.00    +0.000 OA
ATOM      5  C   UNL     1       2.596   4.504  20.637  0.00  0.00    +0.000 C 
ATOM      6  C   UNL     1       3.576   3.558  19.884  0.00  0.00    +0.000 C 
ENDROOT
BRANCH   5   7
ATOM      7  C   UNL     1       2.370   5.914  20.090  0.00  0.00    +0.000 A 
ATOM      8  C   UNL     1       2.616   6.221  18.744  0.00  0.00    +0.000 A 
ATOM      9  C   UNL     1       2.285   7.465  18.202  0.00  0.00    +0.000 A 
ATOM     10  C   UNL     1       1.652   8.436  18.980  0.00  0.00    +0.000 A 
ATOM     11  C   UNL     1       1.400   8.152  20.331  0.00  0.00    +0.000 A 
ATOM     12  C   UNL     1       1.755   6.905  20.878  0.00  0.00    +0.000 A 
BRANCH  10  13
ATOM     13  C   UNL     1       1.255   9.744  18.337  0.00  0.00    +0.000 C 
ATOM     14  F   UNL     1       2.210  10.216  17.484  0.00  0.00    +0.000 F 
ATOM     15  F   UNL     1       0.111   9.668  17.601  0.00  0.00    +0.000 F 
ATOM     16  F   UNL     1       1.052  10.734  19.248  0.00  0.00    +0.000 F 
ENDBRANCH  10  13
ENDBRANCH   5   7
BRANCH   1  17
ATOM     17  C   UNL     1       3.192   3.226  17.426  0.00  0.00    +0.000 C 
BRANCH  17  20
ATOM     18  C   UNL     1       5.403   5.871  16.202  0.00  0.00    +0.000 A 
ATOM     19  N   UNL     1       4.497   4.885  16.180  0.00  0.00    +0.000 NA
ATOM     20  C   UNL     1       4.481   4.053  17.236  0.00  0.00    +0.000 A 
ATOM     21  N   UNL     1       5.375   4.092  18.253  0.00  0.00    +0.000 NA
ATOM     22  C   UNL     1       6.299   5.077  18.237  0.00  0.00    +0.000 A 
ATOM     23  C   UNL     1       7.227   5.200  19.270  0.00  0.00    +0.000 A 
ATOM     24  C   UNL     1       8.131   6.273  19.349  0.00  0.00    +0.000 A 
ATOM     25  C   UNL     1       8.127   7.252  18.365  0.00  0.00    +0.000 A 
ATOM     26  C   UNL     1       7.254   7.122  17.292  0.00  0.00    +0.000 A 
ATOM     27  C   UNL     1       6.333   6.043  17.227  0.00  0.00    +0.000 A 
BRANCH  18  28
ATOM     28  N   UNL     1       5.327   6.755  15.119  0.00  0.00    +0.000 N 
ATOM     29  H   UNL     1       4.754   6.293  14.418  0.00  0.00    +0.000 HD
ATOM     30  H   UNL     1       4.912   7.634  15.408  0.00  0.00    +0.000 HD
ENDBRANCH  18  28
ENDBRANCH  17  20
ENDBRANCH   1  17
TORSDOF 5
ENDMDL
MODEL 3
REMARK VINA RESULT:      -8.5      3.100      5.763
REMARK  Name = 
REMARK  5 active torsions:
REMARK  status: ('A' for Active; 'I' for Inactive)
REMARK    1  A    between atoms: N_1  and  C_2
REMARK    2  A    between atoms: C_4  and  C_5
REMARK    3  A    between atoms: C_5  and  N_6
REMARK    4  A    between atoms: C_10  and  C_11
REMARK    5  A    between atoms: C_14  and  C_15
REMARK                            x       y       z     vdW  Elec       q    Type
REMARK                         _______ _______ _______ _____ _____    ______ ____
ROOT
ATOM      1  N   UNL     1       2.005   4.063  19.936  0.00  0.00    +0.000 NA
ATOM      2  C   UNL     1       2.546   2.759  20.317  0.00  0.00    +0.000 C 
ATOM      3  C   UNL     1       3.783   2.292  19.549  0.00  0.00    +0.000 C 
ATOM      4  O   UNL     1       3.704   2.469  18.135  0.00  0.00    +0.000 OA
ATOM      5  C   UNL     1       3.343   3.803  17.730  0.00  0.00    +0.000 C 
ATOM      6  C   UNL     1       2.072   4.285  18.488  0.00  0.00    +0.000 C 
ENDROOT
BRANCH   5   7
ATOM      7  C   UNL     1       4.532   4.757  17.608  0.00  0.00    +0.000 A 
ATOM      8  C   UNL     1       4.390   6.026  17.028  0.00  0.00    +0.000 A 
ATOM      9  C   UNL     1       5.433   6.957  17.035  0.00  0.00    +0.000 A 
ATOM     10  C   UNL     1       6.644   6.666  17.663  0.00  0.00    +0.000 A 
ATOM     11  C   UNL     1       6.809   5.399  18.245  0.00  0.00    +0.000 A 
ATOM     12  C   UNL     1       5.765   4.458  18.218  0.00  0.00    +0.000 A 
BRANCH  10  13
ATOM     13  C   UNL     1       7.721   7.725  17.700  0.00  0.00    +0.000 C 
ATOM     14  F   UNL     1       8.478   7.738  16.565  0.00  0.00    +0.000 F 
ATOM     15  F   UNL     1       7.239   8.992  17.836  0.00  0.00    +0.000 F 
ATOM     16  F   UNL     1       8.597   7.543  18.726  0.00  0.00    +0.000 F 
ENDBRANCH  10  13
ENDBRANCH   5   7
BRANCH   1  17
ATOM     17  C   UNL     1       2.393   5.193  20.805  0.00  0.00    +0.000 C 
BRANCH  17  20
ATOM     18  C   UNL     1       0.614   8.368  21.183  0.00  0.00    +0.000 A 
ATOM     19  N   UNL     1       0.910   7.071  21.338  0.00  0.00    +0.000 NA
ATOM     20  C   UNL     1       1.702   6.515  20.405  0.00  0.00    +0.000 A 
ATOM     21  N   UNL     1       2.128   7.149  19.287  0.00  0.00    +0.000 NA
ATOM     22  C   UNL     1       1.791   8.448  19.138  0.00  0.00    +0.000 A 
ATOM     23  C   UNL     1       2.227   9.174  18.030  0.00  0.00    +0.000 A 
ATOM     24  C   UNL     1       1.993  10.553  17.893  0.00  0.00    +0.000 A 
ATOM     25  C   UNL     1       1.293  11.236  18.877  0.00  0.00    +0.000 A 
ATOM     26  C   UNL     1       0.796  10.526  19.963  0.00  0.00    +0.000 A 
ATOM     27  C   UNL     1       1.048   9.135  20.103  0.00  0.00    +0.000 A 
BRANCH  18  28
ATOM     28  N   UNL     1      -0.147   8.919  22.221  0.00  0.00    +0.000 N 
ATOM     29  H   UNL     1       0.513   9.169  22.952  0.00  0.00    +0.000 HD
ATOM     30  H   UNL     1      -0.656   9.733  21.894  0.00  0.00    +0.000 HD
ENDBRANCH  18  28
ENDBRANCH  17  20
ENDBRANCH   1  17
TORSDOF 5
ENDMDL
MODEL 4
REMARK VINA RESULT:      -8.5      3.273      6.061
REMARK  Name = 
REMARK  5 active torsions:
REMARK  status: ('A' for Active; 'I' for Inactive)
REMARK    1  A    between atoms: N_1  and  C_2
REMARK    2  A    between atoms: C_4  and  C_5
REMARK    3  A    between atoms: C_5  and  N_6
REMARK    4  A    between atoms: C_10  and  C_11
REMARK    5  A    between atoms: C_14  and  C_15
REMARK                            x       y       z     vdW  Elec       q    Type
REMARK                         _______ _______ _______ _____ _____    ______ ____
ROOT
ATOM      1  N   UNL     1       1.180   4.429  20.557  0.00  0.00    +0.000 NA
ATOM      2  C   UNL     1       1.141   3.093  21.150  0.00  0.00    +0.000 C 
ATOM      3  C   UNL     1       1.915   2.003  20.407  0.00  0.00    +0.000 C 
ATOM      4  O   UNL     1       1.710   1.990  18.994  0.00  0.00    +0.000 OA
ATOM      5  C   UNL     1       1.918   3.266  18.359  0.00  0.00    +0.000 C 
ATOM      6  C   UNL     1       1.119   4.383  19.092  0.00  0.00    +0.000 C 
ENDROOT
BRANCH   5   7
ATOM      7  C   UNL     1       3.371   3.537  17.971  0.00  0.00    +0.000 A 
ATOM      8  C   UNL     1       3.757   3.656  16.628  0.00  0.00    +0.000 A 
ATOM      9  C   UNL     1       5.051   4.038  16.266  0.00  0.00    +0.000 A 
ATOM     10  C   UNL     1       5.998   4.360  17.240  0.00  0.00    +0.000 A 
ATOM     11  C   UNL     1       5.635   4.243  18.591  0.00  0.00    +0.000 A 
ATOM     12  C   UNL     1       4.337   3.837  18.950  0.00  0.00    +0.000 A 
BRANCH  10  13
ATOM     13  C   UNL     1       7.366   4.828  16.803  0.00  0.00    +0.000 C 
ATOM     14  F   UNL     1       7.606   4.576  15.483  0.00  0.00    +0.000 F 
ATOM     15  F   UNL     1       7.564   6.166  16.963  0.00  0.00    +0.000 F 
ATOM     16  F   UNL     1       8.371   4.213  17.485  0.00  0.00    +0.000 F 
ENDBRANCH  10  13
ENDBRANCH   5   7
BRANCH   1  17
ATOM     17  C   UNL     1       2.151   5.366  21.158  0.00  0.00    +0.000 C 
BRANCH  17  20
ATOM     18  C   UNL     1       2.257   8.058  18.682  0.00  0.00    +0.000 A 
ATOM     19  N   UNL     1       2.644   6.986  19.386  0.00  0.00    +0.000 NA
ATOM     20  C   UNL     1       2.043   6.790  20.572  0.00  0.00    +0.000 A 
ATOM     21  N   UNL     1       1.158   7.649  21.131  0.00  0.00    +0.000 NA
ATOM     22  C   UNL     1       0.805   8.739  20.416  0.00  0.00    +0.000 A 
ATOM     23  C   UNL     1      -0.129   9.646  20.914  0.00  0.00    +0.000 A 
ATOM     24  C   UNL     1      -0.606  10.730  20.156  0.00  0.00    +0.000 A 
ATOM     25  C   UNL     1      -0.132  10.932  18.867  0.00  0.00    +0.000 A 
ATOM     26  C   UNL     1       0.842  10.078  18.368  0.00  0.00    +0.000 A 
ATOM     27  C   UNL     1       1.309   8.976  19.133  0.00  0.00    +0.000 A 
BRANCH  18  28
ATOM     28  N   UNL     1       2.855   8.173  17.422  0.00  0.00    +0.000 N 
ATOM     29  H   UNL     1       3.145   9.143  17.335  0.00  0.00    +0.000 HD
ATOM     30  H   UNL     1       3.649   7.546  17.347  0.00  0.00    +0.000 HD
ENDBRANCH  18  28
ENDBRANCH  17  20
ENDBRANCH   1  17
TORSDOF 5
ENDMDL
MODEL 5
REMARK VINA RESULT:      -8.4      3.640      5.924
REMARK  Name = 
REMARK  5 active torsions:
REMARK  status: ('A' for Active; 'I' for Inactive)
REMARK    1  A    between atoms: N_1  and  C_2
REMARK    2  A    between atoms: C_4  and  C_5
REMARK    3  A    between atoms: C_5  and  N_6
REMARK    4  A    between atoms: C_10  and  C_11
REMARK    5  A    between atoms: C_14  and  C_15
REMARK                            x       y       z     vdW  Elec       q    Type
REMARK                         _______ _______ _______ _____ _____    ______ ____
ROOT
ATOM      1  N   UNL     1       0.894   9.004  21.977  0.00  0.00    +0.000 NA
ATOM      2  C   UNL     1       0.052   9.413  23.101  0.00  0.00    +0.000 C 
ATOM      3  C   UNL     1      -0.916  10.566  22.834  0.00  0.00    +0.000 C 
ATOM      4  O   UNL     1      -0.340  11.672  22.138  0.00  0.00    +0.000 OA
ATOM      5  C   UNL     1       0.346  11.310  20.925  0.00  0.00    +0.000 C 
ATOM      6  C   UNL     1       1.351  10.151  21.186  0.00  0.00    +0.000 C 
ENDROOT
BRANCH   5   7
ATOM      7  C   UNL     1      -0.561  11.233  19.697  0.00  0.00    +0.000 A 
ATOM      8  C   UNL     1      -0.362  10.264  18.704  0.00  0.00    +0.000 A 
ATOM      9  C   UNL     1      -1.264  10.097  17.649  0.00  0.00    +0.000 A 
ATOM     10  C   UNL     1      -2.426  10.867  17.576  0.00  0.00    +0.000 A 
ATOM     11  C   UNL     1      -2.642  11.847  18.557  0.00  0.00    +0.000 A 
ATOM     12  C   UNL     1      -1.721  12.026  19.605  0.00  0.00    +0.000 A 
BRANCH  10  13
ATOM     13  C   UNL     1      -3.403  10.610  16.453  0.00  0.00    +0.000 C 
ATOM     14  F   UNL     1      -3.283   9.354  15.935  0.00  0.00    +0.000 F 
ATOM     15  F   UNL     1      -4.708  10.731  16.825  0.00  0.00    +0.000 F 
ATOM     16  F   UNL     1      -3.229  11.460  15.404  0.00  0.00    +0.000 F 
ENDBRANCH  10  13
ENDBRANCH   5   7
BRANCH   1  17
ATOM     17  C   UNL     1       0.428   7.818  21.229  0.00  0.00    +0.000 C 
BRANCH  17  20
ATOM     18  C   UNL     1       2.389   4.952  20.076  0.00  0.00    +0.000 A 
ATOM     19  N   UNL     1       1.665   5.729  20.893  0.00  0.00    +0.000 NA
ATOM     20  C   UNL     1       1.586   7.033  20.577  0.00  0.00    +0.000 A 
ATOM     21  N   UNL     1       2.263   7.615  19.559  0.00  0.00    +0.000 NA
ATOM     22  C   UNL     1       3.011   6.817  18.767  0.00  0.00    +0.000 A 
ATOM     23  C   UNL     1       3.704   7.342  17.677  0.00  0.00    +0.000 A 
ATOM     24  C   UNL     1       4.401   6.531  16.765  0.00  0.00    +0.000 A 
ATOM     25  C   UNL     1       4.426   5.156  16.944  0.00  0.00    +0.000 A 
ATOM     26  C   UNL     1       3.793   4.611  18.054  0.00  0.00    +0.000 A 
ATOM     27  C   UNL     1       3.078   5.434  18.964  0.00  0.00    +0.000 A 
BRANCH  18  28
ATOM     28  N   UNL     1       2.376   3.592  20.404  0.00  0.00    +0.000 N 
ATOM     29  H   UNL     1       2.289   3.546  21.416  0.00  0.00    +0.000 HD
ATOM     30  H   UNL     1       1.598   3.125  19.950  0.00  0.00    +0.000 HD
ENDBRANCH  18  28
ENDBRANCH  17  20
ENDBRANCH   1  17
TORSDOF 5
ENDMDL
MODEL 6
REMARK VINA RESULT:      -8.2      3.629      5.776
REMARK  Name = 
REMARK  5 active torsions:
REMARK  status: ('A' for Active; 'I' for Inactive)
REMARK    1  A    between atoms: N_1  and  C_2
REMARK    2  A    between atoms: C_4  and  C_5
REMARK    3  A    between atoms: C_5  and  N_6
REMARK    4  A    between atoms: C_10  and  C_11
REMARK    5  A    between atoms: C_14  and  C_15
REMARK                            x       y       z     vdW  Elec       q    Type
REMARK                         _______ _______ _______ _____ _____    ______ ____
ROOT
ATOM      1  N   UNL     1       1.249   8.926  21.632  0.00  0.00    +0.000 NA
ATOM      2  C   UNL     1       0.577   9.222  22.898  0.00  0.00    +0.000 C 
ATOM      3  C   UNL     1      -0.518  10.287  22.846  0.00  0.00    +0.000 C 
ATOM      4  O   UNL     1      -0.167  11.462  22.115  0.00  0.00    +0.000 OA
ATOM      5  C   UNL     1       0.334  11.202  20.791  0.00  0.00    +0.000 C 
ATOM      6  C   UNL     1       1.465  10.133  20.829  0.00  0.00    +0.000 C 
ENDROOT
BRANCH   5   7
ATOM      7  C   UNL     1      -0.758  11.077  19.728  0.00  0.00    +0.000 A 
ATOM      8  C   UNL     1      -1.871  11.930  19.722  0.00  0.00    +0.000 A 
ATOM      9  C   UNL     1      -2.803  11.917  18.681  0.00  0.00    +0.000 A 
ATOM     10  C   UNL     1      -2.629  11.076  17.580  0.00  0.00    +0.000 A 
ATOM     11  C   UNL     1      -1.524  10.210  17.567  0.00  0.00    +0.000 A 
ATOM     12  C   UNL     1      -0.601  10.212  18.628  0.00  0.00    +0.000 A 
BRANCH  10  13
ATOM     13  C   UNL     1      -3.627  11.139  16.448  0.00  0.00    +0.000 C 
ATOM     14  F   UNL     1      -4.349   9.988  16.326  0.00  0.00    +0.000 F 
ATOM     15  F   UNL     1      -4.545  12.136  16.583  0.00  0.00    +0.000 F 
ATOM     16  F   UNL     1      -3.034  11.333  15.239  0.00  0.00    +0.000 F 
ENDBRANCH  10  13
ENDBRANCH   5   7
BRANCH   1  17
ATOM     17  C   UNL     1       0.767   7.724  20.920  0.00  0.00    +0.000 C 
BRANCH  17  20
ATOM     18  C   UNL     1       2.709   4.747  20.054  0.00  0.00    +0.000 A 
ATOM     19  N   UNL     1       1.992   5.605  20.791  0.00  0.00    +0.000 NA
ATOM     20  C   UNL     1       1.920   6.872  20.347  0.00  0.00    +0.000 A 
ATOM     21  N   UNL     1       2.597   7.345  19.275  0.00  0.00    +0.000 NA
ATOM     22  C   UNL     1       3.339   6.468  18.565  0.00  0.00    +0.000 A 
ATOM     23  C   UNL     1       4.033   6.878  17.427  0.00  0.00    +0.000 A 
ATOM     24  C   UNL     1       4.723   5.977  16.599  0.00  0.00    +0.000 A 
ATOM     25  C   UNL     1       4.740   4.625  16.913  0.00  0.00    +0.000 A 
ATOM     26  C   UNL     1       4.107   4.197  18.073  0.00  0.00    +0.000 A 
ATOM     27  C   UNL     1       3.399   5.111  18.898  0.00  0.00    +0.000 A 
BRANCH  18  28
ATOM     28  N   UNL     1       2.688   3.426  20.515  0.00  0.00    +0.000 N 
ATOM     29  H   UNL     1       2.854   2.840  19.701  0.00  0.00    +0.000 HD
ATOM     30  H   UNL     1       3.406   3.284  21.218  0.00  0.00    +0.000 HD
ENDBRANCH  18  28
ENDBRANCH  17  20
ENDBRANCH   1  17
TORSDOF 5
ENDMDL
MODEL 7
REMARK VINA RESULT:      -8.2      3.565      6.236
REMARK  Name = 
REMARK  5 active torsions:
REMARK  status: ('A' for Active; 'I' for Inactive)
REMARK    1  A    between atoms: N_1  and  C_2
REMARK    2  A    between atoms: C_4  and  C_5
REMARK    3  A    between atoms: C_5  and  N_6
REMARK    4  A    between atoms: C_10  and  C_11
REMARK    5  A    between atoms: C_14  and  C_15
REMARK                            x       y       z     vdW  Elec       q    Type
REMARK                         _______ _______ _______ _____ _____    ______ ____
ROOT
ATOM      1  N   UNL     1       1.198   4.525  20.592  0.00  0.00    +0.000 NA
ATOM      2  C   UNL     1       1.330   3.343  21.444  0.00  0.00    +0.000 C 
ATOM      3  C   UNL     1       2.212   2.217  20.903  0.00  0.00    +0.000 C 
ATOM      4  O   UNL     1       1.979   1.891  19.532  0.00  0.00    +0.000 OA
ATOM      5  C   UNL     1       2.022   3.023  18.644  0.00  0.00    +0.000 C 
ATOM      6  C   UNL     1       1.112   4.171  19.172  0.00  0.00    +0.000 C 
ENDROOT
BRANCH   5   7
ATOM      7  C   UNL     1       3.425   3.369  18.144  0.00  0.00    +0.000 A 
ATOM      8  C   UNL     1       3.701   3.490  16.775  0.00  0.00    +0.000 A 
ATOM      9  C   UNL     1       4.941   3.938  16.312  0.00  0.00    +0.000 A 
ATOM     10  C   UNL     1       5.939   4.325  17.209  0.00  0.00    +0.000 A 
ATOM     11  C   UNL     1       5.686   4.207  18.584  0.00  0.00    +0.000 A 
ATOM     12  C   UNL     1       4.443   3.735  19.045  0.00  0.00    +0.000 A 
BRANCH  10  13
ATOM     13  C   UNL     1       7.242   4.861  16.665  0.00  0.00    +0.000 C 
ATOM     14  F   UNL     1       7.413   4.573  15.342  0.00  0.00    +0.000 F 
ATOM     15  F   UNL     1       7.361   6.215  16.764  0.00  0.00    +0.000 F 
ATOM     16  F   UNL     1       8.327   4.340  17.300  0.00  0.00    +0.000 F 
ENDBRANCH  10  13
ENDBRANCH   5   7
BRANCH   1  17
ATOM     17  C   UNL     1       2.064   5.668  20.947  0.00  0.00    +0.000 C 
BRANCH  17  20
ATOM     18  C   UNL     1       0.523   8.970  21.276  0.00  0.00    +0.000 A 
ATOM     19  N   UNL     1       0.730   7.659  21.460  0.00  0.00    +0.000 NA
ATOM     20  C   UNL     1       1.460   7.024  20.526  0.00  0.00    +0.000 A 
ATOM     21  N   UNL     1       1.905   7.599  19.384  0.00  0.00    +0.000 NA
ATOM     22  C   UNL     1       1.658   8.914  19.206  0.00  0.00    +0.000 A 
ATOM     23  C   UNL     1       2.119   9.579  18.071  0.00  0.00    +0.000 A 
ATOM     24  C   UNL     1       1.981  10.968  17.902  0.00  0.00    +0.000 A 
ATOM     25  C   UNL     1       1.352  11.723  18.882  0.00  0.00    +0.000 A 
ATOM     26  C   UNL     1       0.830  11.078  19.996  0.00  0.00    +0.000 A 
ATOM     27  C   UNL     1       0.987   9.677  20.168  0.00  0.00    +0.000 A 
BRANCH  18  28
ATOM     28  N   UNL     1      -0.174   9.599  22.314  0.00  0.00    +0.000 N 
ATOM     29  H   UNL     1      -1.059   9.902  21.915  0.00  0.00    +0.000 HD
ATOM     30  H   UNL     1      -0.323   8.955  23.083  0.00  0.00    +0.000 HD
ENDBRANCH  18  28
ENDBRANCH  17  20
ENDBRANCH   1  17
TORSDOF 5
ENDMDL
MODEL 8
REMARK VINA RESULT:      -8.2      3.605      6.481
REMARK  Name = 
REMARK  5 active torsions:
REMARK  status: ('A' for Active; 'I' for Inactive)
REMARK    1  A    between atoms: N_1  and  C_2
REMARK    2  A    between atoms: C_4  and  C_5
REMARK    3  A    between atoms: C_5  and  N_6
REMARK    4  A    between atoms: C_10  and  C_11
REMARK    5  A    between atoms: C_14  and  C_15
REMARK                            x       y       z     vdW  Elec       q    Type
REMARK                         _______ _______ _______ _____ _____    ______ ____
ROOT
ATOM      1  N   UNL     1       1.523   4.890  20.797  0.00  0.00    +0.000 NA
ATOM      2  C   UNL     1       2.074   3.814  21.620  0.00  0.00    +0.000 C 
ATOM      3  C   UNL     1       2.912   2.767  20.886  0.00  0.00    +0.000 C 
ATOM      4  O   UNL     1       2.337   2.295  19.668  0.00  0.00    +0.000 OA
ATOM      5  C   UNL     1       1.946   3.342  18.760  0.00  0.00    +0.000 C 
ATOM      6  C   UNL     1       1.074   4.406  19.487  0.00  0.00    +0.000 C 
ENDROOT
BRANCH   5   7
ATOM      7  C   UNL     1       3.071   3.819  17.841  0.00  0.00    +0.000 A 
ATOM      8  C   UNL     1       3.343   5.183  17.669  0.00  0.00    +0.000 A 
ATOM      9  C   UNL     1       4.452   5.626  16.942  0.00  0.00    +0.000 A 
ATOM     10  C   UNL     1       5.356   4.714  16.396  0.00  0.00    +0.000 A 
ATOM     11  C   UNL     1       5.101   3.343  16.552  0.00  0.00    +0.000 A 
ATOM     12  C   UNL     1       3.972   2.902  17.266  0.00  0.00    +0.000 A 
BRANCH  10  13
ATOM     13  C   UNL     1       6.574   5.238  15.672  0.00  0.00    +0.000 C 
ATOM     14  F   UNL     1       6.318   5.527  14.363  0.00  0.00    +0.000 F 
ATOM     15  F   UNL     1       7.080   6.384  16.208  0.00  0.00    +0.000 F 
ATOM     16  F   UNL     1       7.599   4.343  15.658  0.00  0.00    +0.000 F 
ENDBRANCH  10  13
ENDBRANCH   5   7
BRANCH   1  17
ATOM     17  C   UNL     1       2.276   6.161  20.819  0.00  0.00    +0.000 C 
BRANCH  17  20
ATOM     18  C   UNL     1       0.063   8.916  21.768  0.00  0.00    +0.000 A 
ATOM     19  N   UNL     1       0.565   7.676  21.707  0.00  0.00    +0.000 NA
ATOM     20  C   UNL     1       1.362   7.396  20.661  0.00  0.00    +0.000 A 
ATOM     21  N   UNL     1       1.603   8.245  19.634  0.00  0.00    +0.000 NA
ATOM     22  C   UNL     1       1.060   9.480  19.703  0.00  0.00    +0.000 A 
ATOM     23  C   UNL     1       1.297  10.419  18.699  0.00  0.00    +0.000 A 
ATOM     24  C   UNL     1       0.844  11.746  18.787  0.00  0.00    +0.000 A 
ATOM     25  C   UNL     1       0.121  12.157  19.898  0.00  0.00    +0.000 A 
ATOM     26  C   UNL     1      -0.179  11.227  20.885  0.00  0.00    +0.000 A 
ATOM     27  C   UNL     1       0.293   9.891  20.798  0.00  0.00    +0.000 A 
BRANCH  18  28
ATOM     28  N   UNL     1      -0.696   9.180  22.914  0.00  0.00    +0.000 N 
ATOM     29  H   UNL     1      -1.660   9.263  22.601  0.00  0.00    +0.000 HD
ATOM     30  H   UNL     1      -0.594   8.430  23.588  0.00  0.00    +0.000 HD
ENDBRANCH  18  28
ENDBRANCH  17  20
ENDBRANCH   1  17
TORSDOF 5
ENDMDL
MODEL 9
REMARK VINA RESULT:      -8.0      3.636      5.610
REMARK  Name = 
REMARK  5 active torsions:
REMARK  status: ('A' for Active; 'I' for Inactive)
REMARK    1  A    between atoms: N_1  and  C_2
REMARK    2  A    between atoms: C_4  and  C_5
REMARK    3  A    between atoms: C_5  and  N_6
REMARK    4  A    between atoms: C_10  and  C_11
REMARK    5  A    between atoms: C_14  and  C_15
REMARK                            x       y       z     vdW  Elec       q    Type
REMARK                         _______ _______ _______ _____ _____    ______ ____
ROOT
ATOM      1  N   UNL     1       1.667   9.063  20.085  0.00  0.00    +0.000 NA
ATOM      2  C   UNL     1       1.093   8.334  21.216  0.00  0.00    +0.000 C 
ATOM      3  C   UNL     1      -0.276   8.813  21.701  0.00  0.00    +0.000 C 
ATOM      4  O   UNL     1      -0.393  10.230  21.836  0.00  0.00    +0.000 OA
ATOM      5  C   UNL     1       0.002  10.965  20.662  0.00  0.00    +0.000 C 
ATOM      6  C   UNL     1       1.403  10.503  20.168  0.00  0.00    +0.000 C 
ENDROOT
BRANCH   5   7
ATOM      7  C   UNL     1      -1.117  11.144  19.636  0.00  0.00    +0.000 A 
ATOM      8  C   UNL     1      -1.186  10.343  18.487  0.00  0.00    +0.000 A 
ATOM      9  C   UNL     1      -2.276  10.404  17.613  0.00  0.00    +0.000 A 
ATOM     10  C   UNL     1      -3.360  11.240  17.884  0.00  0.00    +0.000 A 
ATOM     11  C   UNL     1      -3.309  12.055  19.025  0.00  0.00    +0.000 A 
ATOM     12  C   UNL     1      -2.201  12.006  19.890  0.00  0.00    +0.000 A 
BRANCH  10  13
ATOM     13  C   UNL     1      -4.543  11.228  16.945  0.00  0.00    +0.000 C 
ATOM     14  F   UNL     1      -5.631  10.606  17.485  0.00  0.00    +0.000 F 
ATOM     15  F   UNL     1      -4.971  12.472  16.587  0.00  0.00    +0.000 F 
ATOM     16  F   UNL     1      -4.281  10.571  15.782  0.00  0.00    +0.000 F 
ENDBRANCH  10  13
ENDBRANCH   5   7
BRANCH   1  17
ATOM     17  C   UNL     1       1.498   8.425  18.763  0.00  0.00    +0.000 C 
BRANCH  17  20
ATOM     18  C   UNL     1       2.846   5.037  18.466  0.00  0.00    +0.000 A 
ATOM     19  N   UNL     1       2.194   6.085  18.985  0.00  0.00    +0.000 NA
ATOM     20  C   UNL     1       2.524   7.299  18.512  0.00  0.00    +0.000 A 
ATOM     21  N   UNL     1       3.527   7.529  17.631  0.00  0.00    +0.000 NA
ATOM     22  C   UNL     1       4.191   6.459  17.145  0.00  0.00    +0.000 A 
ATOM     23  C   UNL     1       5.210   6.619  16.207  0.00  0.00    +0.000 A 
ATOM     24  C   UNL     1       5.849   5.527  15.594  0.00  0.00    +0.000 A 
ATOM     25  C   UNL     1       5.478   4.233  15.930  0.00  0.00    +0.000 A 
ATOM     26  C   UNL     1       4.506   4.044  16.905  0.00  0.00    +0.000 A 
ATOM     27  C   UNL     1       3.855   5.152  17.510  0.00  0.00    +0.000 A 
BRANCH  18  28
ATOM     28  N   UNL     1       2.411   3.792  18.934  0.00  0.00    +0.000 N 
ATOM     29  H   UNL     1       2.207   3.235  18.108  0.00  0.00    +0.000 HD
ATOM     30  H   UNL     1       3.131   3.354  19.500  0.00  0.00    +0.000 HD
ENDBRANCH  18  28
ENDBRANCH  17  20
ENDBRANCH   1  17
TORSDOF 5
ENDMDL
