MODEL 1
REMARK VINA RESULT:      -8.1      0.000      0.000
REMARK  Name = 
REMARK  7 active torsions:
REMARK  status: ('A' for Active; 'I' for Inactive)
REMARK    1  A    between atoms: C_1  and  C_2
REMARK    2  A    between atoms: C_2  and  C_3
REMARK    3  A    between atoms: N_6  and  C_7
REMARK    4  A    between atoms: C_11  and  C_12
REMARK    5  A    between atoms: C_12  and  C_13
REMARK    6  A    between atoms: C_13  and  C_14
REMARK    7  A    between atoms: N_18  and  C_19
REMARK                            x       y       z     vdW  Elec       q    Type
REMARK                         _______ _______ _______ _____ _____    ______ ____
ROOT
ATOM      1  C   UNL     1       2.715   5.625  18.189  0.00  0.00    +0.000 A 
ATOM      2  C   UNL     1       1.923   4.475  18.141  0.00  0.00    +0.000 A 
ATOM      3  C   UNL     1       2.368   3.325  17.495  0.00  0.00    +0.000 A 
ATOM      4  C   UNL     1       3.608   3.317  16.864  0.00  0.00    +0.000 A 
ATOM      5  C   UNL     1       4.450   4.442  16.875  0.00  0.00    +0.000 A 
ATOM      6  C   UNL     1       3.984   5.568  17.590  0.00  0.00    +0.000 A 
ENDROOT
BRANCH   1  10
ATOM      7  C   UNL     1       1.516   8.416  20.287  0.00  0.00    +0.000 C 
ATOM      8  C   UNL     1       1.661   9.005  19.096  0.00  0.00    +0.000 C 
ATOM      9  C   UNL     1       2.135   8.061  18.052  0.00  0.00    +0.000 C 
ATOM     10  N   UNL     1       2.260   6.827  18.790  0.00  0.00    +0.000 N 
ATOM     11  C   UNL     1       1.838   6.985  20.109  0.00  0.00    +0.000 C 
ATOM     12  O   UNL     1       1.722   6.169  21.008  0.00  0.00    +0.000 OA
BRANCH   7  14
ATOM     13  C   UNL     1      -0.338   8.821  21.855  0.00  0.00    +0.000 C 
ATOM     14  C   UNL     1       1.152   8.995  21.603  0.00  0.00    +0.000 C 
ENDBRANCH   7  14
ENDBRANCH   1  10
BRANCH   5  15
ATOM     15  C   UNL     1       5.806   4.488  16.030  0.00  0.00    +0.000 C 
ATOM     16  C   UNL     1       5.885   5.581  14.925  0.00  0.00    +0.000 C 
ATOM     17  O   UNL     1       6.522   4.651  14.015  0.00  0.00    +0.000 OA
ATOM     18  C   UNL     1       6.009   3.544  14.812  0.00  0.00    +0.000 C 
BRANCH  15  19
ATOM     19  C   UNL     1       7.023   4.526  16.983  0.00  0.00    +0.000 C 
BRANCH  19  20
ATOM     20  C   UNL     1       7.430   5.916  17.368  0.00  0.00    +0.000 A 
ATOM     21  N   UNL     1       7.515   6.954  16.554  0.00  0.00    +0.000 NA
ATOM     22  N   UNL     1       7.933   8.040  17.283  0.00  0.00    +0.000 NA
ATOM     23  C   UNL     1       8.093   7.653  18.524  0.00  0.00    +0.000 A 
ATOM     24  N   UNL     1       7.808   6.325  18.624  0.00  0.00    +0.000 N 
ATOM     25  C   UNL     1       7.918   5.543  19.824  0.00  0.00    +0.000 C 
ENDBRANCH  19  20
ENDBRANCH  15  19
ENDBRANCH   5  15
TORSDOF 5
ENDMDL
MODEL 2
REMARK VINA RESULT:      -8.1      1.095      1.543
REMARK  Name = 
REMARK  7 active torsions:
REMARK  status: ('A' for Active; 'I' for Inactive)
REMARK    1  A    between atoms: C_1  and  C_2
REMARK    2  A    between atoms: C_2  and  C_3
REMARK    3  A    between atoms: N_6  and  C_7
REMARK    4  A    between atoms: C_11  and  C_12
REMARK    5  A    between atoms: C_12  and  C_13
REMARK    6  A    between atoms: C_13  and  C_14
REMARK    7  A    between atoms: N_18  and  C_19
REMARK                            x       y       z     vdW  Elec       q    Type
REMARK                         _______ _______ _______ _____ _____    ______ ____
ROOT
ATOM      1  C   UNL     1       2.706   5.670  18.465  0.00  0.00    +0.000 A 
ATOM      2  C   UNL     1       1.973   4.484  18.552  0.00  0.00    +0.000 A 
ATOM      3  C   UNL     1       2.429   3.314  17.950  0.00  0.00    +0.000 A 
ATOM      4  C   UNL     1       3.618   3.321  17.228  0.00  0.00    +0.000 A 
ATOM      5  C   UNL     1       4.400   4.483  17.103  0.00  0.00    +0.000 A 
ATOM      6  C   UNL     1       3.929   5.632  17.776  0.00  0.00    +0.000 A 
ENDROOT
BRANCH   1  10
ATOM      7  C   UNL     1       1.526   9.062  19.319  0.00  0.00    +0.000 C 
ATOM      8  C   UNL     1       1.425   8.430  20.491  0.00  0.00    +0.000 C 
ATOM      9  C   UNL     1       1.865   7.013  20.410  0.00  0.00    +0.000 C 
ATOM     10  N   UNL     1       2.234   6.888  19.020  0.00  0.00    +0.000 N 
ATOM     11  C   UNL     1       2.108   8.106  18.354  0.00  0.00    +0.000 C 
ATOM     12  O   UNL     1       2.392   8.419  17.210  0.00  0.00    +0.000 OA
BRANCH   7  14
ATOM     13  C   UNL     1      -0.301  10.433  18.398  0.00  0.00    +0.000 C 
ATOM     14  C   UNL     1       1.123  10.437  18.935  0.00  0.00    +0.000 C 
ENDBRANCH   7  14
ENDBRANCH   1  10
BRANCH   5  15
ATOM     15  C   UNL     1       5.686   4.534  16.155  0.00  0.00    +0.000 C 
ATOM     16  C   UNL     1       5.685   5.640  15.061  0.00  0.00    +0.000 C 
ATOM     17  O   UNL     1       6.244   4.719  14.093  0.00  0.00    +0.000 OA
ATOM     18  C   UNL     1       5.790   3.604  14.914  0.00  0.00    +0.000 C 
BRANCH  15  19
ATOM     19  C   UNL     1       6.974   4.556  17.012  0.00  0.00    +0.000 C 
BRANCH  19  20
ATOM     20  C   UNL     1       7.410   5.939  17.388  0.00  0.00    +0.000 A 
ATOM     21  N   UNL     1       7.515   6.970  16.568  0.00  0.00    +0.000 NA
ATOM     22  N   UNL     1       7.957   8.052  17.291  0.00  0.00    +0.000 NA
ATOM     23  C   UNL     1       8.111   7.668  18.533  0.00  0.00    +0.000 A 
ATOM     24  N   UNL     1       7.799   6.347  18.641  0.00  0.00    +0.000 N 
ATOM     25  C   UNL     1       7.896   5.570  19.845  0.00  0.00    +0.000 C 
ENDBRANCH  19  20
ENDBRANCH  15  19
ENDBRANCH   5  15
TORSDOF 5
ENDMDL
MODEL 3
REMARK VINA RESULT:      -8.1      3.430      5.327
REMARK  Name = 
REMARK  7 active torsions:
REMARK  status: ('A' for Active; 'I' for Inactive)
REMARK    1  A    between atoms: C_1  and  C_2
REMARK    2  A    between atoms: C_2  and  C_3
REMARK    3  A    between atoms: N_6  and  C_7
REMARK    4  A    between atoms: C_11  and  C_12
REMARK    5  A    between atoms: C_12  and  C_13
REMARK    6  A    between atoms: C_13  and  C_14
REMARK    7  A    between atoms: N_18  and  C_19
REMARK                            x       y       z     vdW  Elec       q    Type
REMARK                         _______ _______ _______ _____ _____    ______ ____
ROOT
ATOM      1  C   UNL     1       1.228   9.063  19.918  0.00  0.00    +0.000 A 
ATOM      2  C   UNL     1       1.289   9.867  18.778  0.00  0.00    +0.000 A 
ATOM      3  C   UNL     1       1.959   9.439  17.634  0.00  0.00    +0.000 A 
ATOM      4  C   UNL     1       2.601   8.205  17.625  0.00  0.00    +0.000 A 
ATOM      5  C   UNL     1       2.577   7.351  18.741  0.00  0.00    +0.000 A 
ATOM      6  C   UNL     1       1.838   7.800  19.859  0.00  0.00    +0.000 A 
ENDROOT
BRANCH   1  10
ATOM      7  C   UNL     1      -0.750  10.564  22.650  0.00  0.00    +0.000 C 
ATOM      8  C   UNL     1       0.024   9.698  23.310  0.00  0.00    +0.000 C 
ATOM      9  C   UNL     1       0.943   8.958  22.408  0.00  0.00    +0.000 C 
ATOM     10  N   UNL     1       0.602   9.500  21.114  0.00  0.00    +0.000 N 
ATOM     11  C   UNL     1      -0.356  10.506  21.227  0.00  0.00    +0.000 C 
ATOM     12  O   UNL     1      -0.836  11.244  20.383  0.00  0.00    +0.000 OA
BRANCH   7  14
ATOM     13  C   UNL     1      -1.378  12.877  23.215  0.00  0.00    +0.000 C 
ATOM     14  C   UNL     1      -1.849  11.432  23.140  0.00  0.00    +0.000 C 
ENDBRANCH   7  14
ENDBRANCH   1  10
BRANCH   5  15
ATOM     15  C   UNL     1       3.432   6.001  18.788  0.00  0.00    +0.000 C 
ATOM     16  C   UNL     1       4.972   6.163  18.637  0.00  0.00    +0.000 C 
ATOM     17  O   UNL     1       5.037   4.997  17.781  0.00  0.00    +0.000 OA
ATOM     18  C   UNL     1       3.612   5.136  17.509  0.00  0.00    +0.000 C 
BRANCH  15  19
ATOM     19  C   UNL     1       3.047   5.174  20.036  0.00  0.00    +0.000 C 
BRANCH  19  20
ATOM     20  C   UNL     1       2.302   3.917  19.705  0.00  0.00    +0.000 A 
ATOM     21  N   UNL     1       1.007   3.824  19.459  0.00  0.00    +0.000 NA
ATOM     22  N   UNL     1       0.708   2.506  19.213  0.00  0.00    +0.000 NA
ATOM     23  C   UNL     1       1.819   1.819  19.309  0.00  0.00    +0.000 A 
ATOM     24  N   UNL     1       2.843   2.656  19.634  0.00  0.00    +0.000 N 
ATOM     25  C   UNL     1       4.200   2.250  19.870  0.00  0.00    +0.000 C 
ENDBRANCH  19  20
ENDBRANCH  15  19
ENDBRANCH   5  15
TORSDOF 5
ENDMDL
MODEL 4
REMARK VINA RESULT:      -7.9      1.235      1.353
REMARK  Name = 
REMARK  7 active torsions:
REMARK  status: ('A' for Active; 'I' for Inactive)
REMARK    1  A    between atoms: C_1  and  C_2
REMARK    2  A    between atoms: C_2  and  C_3
REMARK    3  A    between atoms: N_6  and  C_7
REMARK    4  A    between atoms: C_11  and  C_12
REMARK    5  A    between atoms: C_12  and  C_13
REMARK    6  A    between atoms: C_13  and  C_14
REMARK    7  A    between atoms: N_18  and  C_19
REMARK                            x       y       z     vdW  Elec       q    Type
REMARK                         _______ _______ _______ _____ _____    ______ ____
ROOT
ATOM      1  C   UNL     1       3.008   6.446  18.888  0.00  0.00    +0.000 A 
ATOM      2  C   UNL     1       2.766   5.434  19.819  0.00  0.00    +0.000 A 
ATOM      3  C   UNL     1       3.451   4.223  19.755  0.00  0.00    +0.000 A 
ATOM      4  C   UNL     1       4.373   3.998  18.738  0.00  0.00    +0.000 A 
ATOM      5  C   UNL     1       4.659   4.977  17.770  0.00  0.00    +0.000 A 
ATOM      6  C   UNL     1       3.984   6.210  17.906  0.00  0.00    +0.000 A 
ENDROOT
BRANCH   1  10
ATOM      7  C   UNL     1       1.043   9.506  19.528  0.00  0.00    +0.000 C 
ATOM      8  C   UNL     1       1.341   9.632  18.231  0.00  0.00    +0.000 C 
ATOM      9  C   UNL     1       2.139   8.489  17.720  0.00  0.00    +0.000 C 
ATOM     10  N   UNL     1       2.282   7.666  18.897  0.00  0.00    +0.000 N 
ATOM     11  C   UNL     1       1.586   8.207  19.976  0.00  0.00    +0.000 C 
ATOM     12  O   UNL     1       1.405   7.773  21.102  0.00  0.00    +0.000 OA
BRANCH   7  14
ATOM     13  C   UNL     1      -0.663  11.276  19.673  0.00  0.00    +0.000 C 
ATOM     14  C   UNL     1       0.347  10.440  20.446  0.00  0.00    +0.000 C 
ENDBRANCH   7  14
ENDBRANCH   1  10
BRANCH   5  15
ATOM     15  C   UNL     1       5.605   4.673  16.518  0.00  0.00    +0.000 C 
ATOM     16  C   UNL     1       5.324   5.502  15.232  0.00  0.00    +0.000 C 
ATOM     17  O   UNL     1       5.529   4.334  14.402  0.00  0.00    +0.000 OA
ATOM     18  C   UNL     1       5.293   3.486  15.564  0.00  0.00    +0.000 C 
BRANCH  15  19
ATOM     19  C   UNL     1       7.089   4.738  16.948  0.00  0.00    +0.000 C 
BRANCH  19  20
ATOM     20  C   UNL     1       7.514   6.101  17.399  0.00  0.00    +0.000 A 
ATOM     21  N   UNL     1       7.615   7.176  16.636  0.00  0.00    +0.000 NA
ATOM     22  N   UNL     1       8.047   8.220  17.418  0.00  0.00    +0.000 NA
ATOM     23  C   UNL     1       8.200   7.771  18.638  0.00  0.00    +0.000 A 
ATOM     24  N   UNL     1       7.896   6.444  18.674  0.00  0.00    +0.000 N 
ATOM     25  C   UNL     1       7.993   5.604  19.835  0.00  0.00    +0.000 C 
ENDBRANCH  19  20
ENDBRANCH  15  19
ENDBRANCH   5  15
TORSDOF 5
ENDMDL
MODEL 5
REMARK VINA RESULT:      -7.9      1.348      1.978
REMARK  Name = 
REMARK  7 active torsions:
REMARK  status: ('A' for Active; 'I' for Inactive)
REMARK    1  A    between atoms: C_1  and  C_2
REMARK    2  A    between atoms: C_2  and  C_3
REMARK    3  A    between atoms: N_6  and  C_7
REMARK    4  A    between atoms: C_11  and  C_12
REMARK    5  A    between atoms: C_12  and  C_13
REMARK    6  A    between atoms: C_13  and  C_14
REMARK    7  A    between atoms: N_18  and  C_19
REMARK                            x       y       z     vdW  Elec       q    Type
REMARK                         _______ _______ _______ _____ _____    ______ ____
ROOT
ATOM      1  C   UNL     1       2.630   5.825  18.348  0.00  0.00    +0.000 A 
ATOM      2  C   UNL     1       1.915   4.630  18.459  0.00  0.00    +0.000 A 
ATOM      3  C   UNL     1       2.348   3.473  17.815  0.00  0.00    +0.000 A 
ATOM      4  C   UNL     1       3.495   3.503  17.029  0.00  0.00    +0.000 A 
ATOM      5  C   UNL     1       4.257   4.674  16.877  0.00  0.00    +0.000 A 
ATOM      6  C   UNL     1       3.813   5.809  17.592  0.00  0.00    +0.000 A 
ENDROOT
BRANCH   1  10
ATOM      7  C   UNL     1       1.499   9.202  19.319  0.00  0.00    +0.000 C 
ATOM      8  C   UNL     1       1.402   8.534  20.472  0.00  0.00    +0.000 C 
ATOM      9  C   UNL     1       1.824   7.116  20.342  0.00  0.00    +0.000 C 
ATOM     10  N   UNL     1       2.179   7.031  18.945  0.00  0.00    +0.000 N 
ATOM     11  C   UNL     1       2.060   8.270  18.319  0.00  0.00    +0.000 C 
ATOM     12  O   UNL     1       2.337   8.616  17.183  0.00  0.00    +0.000 OA
BRANCH   7  14
ATOM     13  C   UNL     1      -0.331  10.848  19.405  0.00  0.00    +0.000 C 
ATOM     14  C   UNL     1       1.108  10.594  18.983  0.00  0.00    +0.000 C 
ENDBRANCH   7  14
ENDBRANCH   1  10
BRANCH   5  15
ATOM     15  C   UNL     1       5.489   4.752  15.860  0.00  0.00    +0.000 C 
ATOM     16  C   UNL     1       5.134   4.653  14.349  0.00  0.00    +0.000 C 
ATOM     17  O   UNL     1       6.280   3.802  14.109  0.00  0.00    +0.000 OA
ATOM     18  C   UNL     1       6.320   3.481  15.530  0.00  0.00    +0.000 C 
BRANCH  15  19
ATOM     19  C   UNL     1       6.362   5.988  16.181  0.00  0.00    +0.000 C 
BRANCH  19  20
ATOM     20  C   UNL     1       7.091   5.874  17.485  0.00  0.00    +0.000 A 
ATOM     21  N   UNL     1       7.215   4.777  18.212  0.00  0.00    +0.000 NA
ATOM     22  N   UNL     1       7.939   5.087  19.338  0.00  0.00    +0.000 NA
ATOM     23  C   UNL     1       8.244   6.359  19.280  0.00  0.00    +0.000 A 
ATOM     24  N   UNL     1       7.720   6.901  18.147  0.00  0.00    +0.000 N 
ATOM     25  C   UNL     1       7.811   8.284  17.771  0.00  0.00    +0.000 C 
ENDBRANCH  19  20
ENDBRANCH  15  19
ENDBRANCH   5  15
TORSDOF 5
ENDMDL
MODEL 6
REMARK VINA RESULT:      -7.8      3.545      5.436
REMARK  Name = 
REMARK  7 active torsions:
REMARK  status: ('A' for Active; 'I' for Inactive)
REMARK    1  A    between atoms: C_1  and  C_2
REMARK    2  A    between atoms: C_2  and  C_3
REMARK    3  A    between atoms: N_6  and  C_7
REMARK    4  A    between atoms: C_11  and  C_12
REMARK    5  A    between atoms: C_12  and  C_13
REMARK    6  A    between atoms: C_13  and  C_14
REMARK    7  A    between atoms: N_18  and  C_19
REMARK                            x       y       z     vdW  Elec       q    Type
REMARK                         _______ _______ _______ _____ _____    ______ ____
ROOT
ATOM      1  C   UNL     1       1.180   9.218  19.763  0.00  0.00    +0.000 A 
ATOM      2  C   UNL     1       1.470  10.084  18.706  0.00  0.00    +0.000 A 
ATOM      3  C   UNL     1       2.181   9.642  17.592  0.00  0.00    +0.000 A 
ATOM      4  C   UNL     1       2.636   8.329  17.533  0.00  0.00    +0.000 A 
ATOM      5  C   UNL     1       2.377   7.410  18.565  0.00  0.00    +0.000 A 
ATOM      6  C   UNL     1       1.604   7.884  19.649  0.00  0.00    +0.000 A 
ENDROOT
BRANCH   1  10
ATOM      7  C   UNL     1      -0.572  10.928  22.526  0.00  0.00    +0.000 C 
ATOM      8  C   UNL     1      -0.538   9.665  22.958  0.00  0.00    +0.000 C 
ATOM      9  C   UNL     1       0.145   8.757  22.001  0.00  0.00    +0.000 C 
ATOM     10  N   UNL     1       0.508   9.658  20.933  0.00  0.00    +0.000 N 
ATOM     11  C   UNL     1       0.155  10.971  21.240  0.00  0.00    +0.000 C 
ATOM     12  O   UNL     1       0.359  12.010  20.636  0.00  0.00    +0.000 OA
BRANCH   7  14
ATOM     13  C   UNL     1      -2.702  11.860  23.338  0.00  0.00    +0.000 C 
ATOM     14  C   UNL     1      -1.220  12.125  23.116  0.00  0.00    +0.000 C 
ENDBRANCH   7  14
ENDBRANCH   1  10
BRANCH   5  15
ATOM     15  C   UNL     1       3.019   5.946  18.571  0.00  0.00    +0.000 C 
ATOM     16  C   UNL     1       4.217   5.730  19.539  0.00  0.00    +0.000 C 
ATOM     17  O   UNL     1       4.916   4.947  18.542  0.00  0.00    +0.000 OA
ATOM     18  C   UNL     1       4.081   5.547  17.508  0.00  0.00    +0.000 C 
BRANCH  15  19
ATOM     19  C   UNL     1       1.912   4.883  18.757  0.00  0.00    +0.000 C 
BRANCH  19  20
ATOM     20  C   UNL     1       2.105   4.037  19.979  0.00  0.00    +0.000 A 
ATOM     21  N   UNL     1       1.829   4.393  21.221  0.00  0.00    +0.000 NA
ATOM     22  N   UNL     1       2.158   3.349  22.052  0.00  0.00    +0.000 NA
ATOM     23  C   UNL     1       2.624   2.377  21.308  0.00  0.00    +0.000 A 
ATOM     24  N   UNL     1       2.628   2.766  20.003  0.00  0.00    +0.000 N 
ATOM     25  C   UNL     1       3.116   1.979  18.906  0.00  0.00    +0.000 C 
ENDBRANCH  19  20
ENDBRANCH  15  19
ENDBRANCH   5  15
TORSDOF 5
ENDMDL
MODEL 7
REMARK VINA RESULT:      -7.8      2.304      3.770
REMARK  Name = 
REMARK  7 active torsions:
REMARK  status: ('A' for Active; 'I' for Inactive)
REMARK    1  A    between atoms: C_1  and  C_2
REMARK    2  A    between atoms: C_2  and  C_3
REMARK    3  A    between atoms: N_6  and  C_7
REMARK    4  A    between atoms: C_11  and  C_12
REMARK    5  A    between atoms: C_12  and  C_13
REMARK    6  A    between atoms: C_13  and  C_14
REMARK    7  A    between atoms: N_18  and  C_19
REMARK                            x       y       z     vdW  Elec       q    Type
REMARK                         _______ _______ _______ _____ _____    ______ ____
ROOT
ATOM      1  C   UNL     1       2.110   7.764  19.161  0.00  0.00    +0.000 A 
ATOM      2  C   UNL     1       2.742   8.355  18.064  0.00  0.00    +0.000 A 
ATOM      3  C   UNL     1       3.470   7.588  17.158  0.00  0.00    +0.000 A 
ATOM      4  C   UNL     1       3.597   6.216  17.351  0.00  0.00    +0.000 A 
ATOM      5  C   UNL     1       2.986   5.563  18.436  0.00  0.00    +0.000 A 
ATOM      6  C   UNL     1       2.211   6.370  19.299  0.00  0.00    +0.000 A 
ENDROOT
BRANCH   1  10
ATOM      7  C   UNL     1       0.091  10.095  21.190  0.00  0.00    +0.000 C 
ATOM      8  C   UNL     1       0.556   9.252  22.116  0.00  0.00    +0.000 C 
ATOM      9  C   UNL     1       1.429   8.200  21.536  0.00  0.00    +0.000 C 
ATOM     10  N   UNL     1       1.412   8.530  20.130  0.00  0.00    +0.000 N 
ATOM     11  C   UNL     1       0.679   9.691  19.895  0.00  0.00    +0.000 C 
ATOM     12  O   UNL     1       0.499  10.323  18.867  0.00  0.00    +0.000 OA
BRANCH   7  14
ATOM     13  C   UNL     1      -1.113  11.536  22.783  0.00  0.00    +0.000 C 
ATOM     14  C   UNL     1      -0.866  11.222  21.315  0.00  0.00    +0.000 C 
ENDBRANCH   7  14
ENDBRANCH   1  10
BRANCH   5  15
ATOM     15  C   UNL     1       3.249   4.017  18.745  0.00  0.00    +0.000 C 
ATOM     16  C   UNL     1       2.071   3.049  18.436  0.00  0.00    +0.000 C 
ATOM     17  O   UNL     1       2.326   2.308  19.653  0.00  0.00    +0.000 OA
ATOM     18  C   UNL     1       3.054   3.455  20.181  0.00  0.00    +0.000 C 
BRANCH  15  19
ATOM     19  C   UNL     1       4.572   3.563  18.086  0.00  0.00    +0.000 C 
BRANCH  19  20
ATOM     20  C   UNL     1       5.762   4.349  18.546  0.00  0.00    +0.000 A 
ATOM     21  N   UNL     1       5.991   4.758  19.781  0.00  0.00    +0.000 NA
ATOM     22  N   UNL     1       7.175   5.456  19.791  0.00  0.00    +0.000 NA
ATOM     23  C   UNL     1       7.647   5.460  18.570  0.00  0.00    +0.000 A 
ATOM     24  N   UNL     1       6.789   4.795  17.749  0.00  0.00    +0.000 N 
ATOM     25  C   UNL     1       6.954   4.637  16.331  0.00  0.00    +0.000 C 
ENDBRANCH  19  20
ENDBRANCH  15  19
ENDBRANCH   5  15
TORSDOF 5
ENDMDL
MODEL 8
REMARK VINA RESULT:      -7.7      1.093      1.543
REMARK  Name = 
REMARK  7 active torsions:
REMARK  status: ('A' for Active; 'I' for Inactive)
REMARK    1  A    between atoms: C_1  and  C_2
REMARK    2  A    between atoms: C_2  and  C_3
REMARK    3  A    between atoms: N_6  and  C_7
REMARK    4  A    between atoms: C_11  and  C_12
REMARK    5  A    between atoms: C_12  and  C_13
REMARK    6  A    between atoms: C_13  and  C_14
REMARK    7  A    between atoms: N_18  and  C_19
REMARK                            x       y       z     vdW  Elec       q    Type
REMARK                         _______ _______ _______ _____ _____    ______ ____
ROOT
ATOM      1  C   UNL     1       2.754   6.235  18.248  0.00  0.00    +0.000 A 
ATOM      2  C   UNL     1       2.158   5.052  18.692  0.00  0.00    +0.000 A 
ATOM      3  C   UNL     1       2.663   3.810  18.315  0.00  0.00    +0.000 A 
ATOM      4  C   UNL     1       3.760   3.734  17.463  0.00  0.00    +0.000 A 
ATOM      5  C   UNL     1       4.402   4.888  16.981  0.00  0.00    +0.000 A 
ATOM      6  C   UNL     1       3.893   6.126  17.434  0.00  0.00    +0.000 A 
ENDROOT
BRANCH   1  10
ATOM      7  C   UNL     1       1.320   9.324  19.673  0.00  0.00    +0.000 C 
ATOM      8  C   UNL     1       1.558   9.685  18.409  0.00  0.00    +0.000 C 
ATOM      9  C   UNL     1       2.141   8.581  17.605  0.00  0.00    +0.000 C 
ATOM     10  N   UNL     1       2.225   7.512  18.571  0.00  0.00    +0.000 N 
ATOM     11  C   UNL     1       1.684   7.897  19.796  0.00  0.00    +0.000 C 
ATOM     12  O   UNL     1       1.505   7.260  20.821  0.00  0.00    +0.000 OA
BRANCH   7  14
ATOM     13  C   UNL     1      -0.229  11.113  20.354  0.00  0.00    +0.000 C 
ATOM     14  C   UNL     1       0.830  10.125  20.821  0.00  0.00    +0.000 C 
ENDBRANCH   7  14
ENDBRANCH   1  10
BRANCH   5  15
ATOM     15  C   UNL     1       5.568   4.810  15.890  0.00  0.00    +0.000 C 
ATOM     16  C   UNL     1       5.110   4.755  14.404  0.00  0.00    +0.000 C 
ATOM     17  O   UNL     1       6.123   3.766  14.101  0.00  0.00    +0.000 OA
ATOM     18  C   UNL     1       6.212   3.445  15.520  0.00  0.00    +0.000 C 
BRANCH  15  19
ATOM     19  C   UNL     1       6.607   5.927  16.144  0.00  0.00    +0.000 C 
BRANCH  19  20
ATOM     20  C   UNL     1       7.251   5.838  17.494  0.00  0.00    +0.000 A 
ATOM     21  N   UNL     1       7.371   4.745  18.227  0.00  0.00    +0.000 NA
ATOM     22  N   UNL     1       8.004   5.080  19.399  0.00  0.00    +0.000 NA
ATOM     23  C   UNL     1       8.262   6.363  19.363  0.00  0.00    +0.000 A 
ATOM     24  N   UNL     1       7.793   6.887  18.197  0.00  0.00    +0.000 N 
ATOM     25  C   UNL     1       7.854   8.274  17.829  0.00  0.00    +0.000 C 
ENDBRANCH  19  20
ENDBRANCH  15  19
ENDBRANCH   5  15
TORSDOF 5
ENDMDL
MODEL 9
REMARK VINA RESULT:      -7.7      2.380      3.609
REMARK  Name = 
REMARK  7 active torsions:
REMARK  status: ('A' for Active; 'I' for Inactive)
REMARK    1  A    between atoms: C_1  and  C_2
REMARK    2  A    between atoms: C_2  and  C_3
REMARK    3  A    between atoms: N_6  and  C_7
REMARK    4  A    between atoms: C_11  and  C_12
REMARK    5  A    between atoms: C_12  and  C_13
REMARK    6  A    between atoms: C_13  and  C_14
REMARK    7  A    between atoms: N_18  and  C_19
REMARK                            x       y       z     vdW  Elec       q    Type
REMARK                         _______ _______ _______ _____ _____    ______ ____
ROOT
ATOM      1  C   UNL     1       2.648   5.918  18.415  0.00  0.00    +0.000 A 
ATOM      2  C   UNL     1       1.894   4.757  18.231  0.00  0.00    +0.000 A 
ATOM      3  C   UNL     1       2.401   3.681  17.507  0.00  0.00    +0.000 A 
ATOM      4  C   UNL     1       3.666   3.762  16.933  0.00  0.00    +0.000 A 
ATOM      5  C   UNL     1       4.473   4.904  17.082  0.00  0.00    +0.000 A 
ATOM      6  C   UNL     1       3.943   5.949  17.871  0.00  0.00    +0.000 A 
ENDROOT
BRANCH   1  10
ATOM      7  C   UNL     1       1.308   9.138  19.625  0.00  0.00    +0.000 C 
ATOM      8  C   UNL     1       1.307   8.400  20.739  0.00  0.00    +0.000 C 
ATOM      9  C   UNL     1       1.828   7.029  20.510  0.00  0.00    +0.000 C 
ATOM     10  N   UNL     1       2.132   7.050  19.099  0.00  0.00    +0.000 N 
ATOM     11  C   UNL     1       1.897   8.310  18.552  0.00  0.00    +0.000 C 
ATOM     12  O   UNL     1       2.102   8.739  17.429  0.00  0.00    +0.000 OA
BRANCH   7  14
ATOM     13  C   UNL     1      -0.563  10.456  18.716  0.00  0.00    +0.000 C 
ATOM     14  C   UNL     1       0.802  10.512  19.386  0.00  0.00    +0.000 C 
ENDBRANCH   7  14
ENDBRANCH   1  10
BRANCH   5  15
ATOM     15  C   UNL     1       5.862   5.061  16.306  0.00  0.00    +0.000 C 
ATOM     16  C   UNL     1       6.765   3.795  16.260  0.00  0.00    +0.000 C 
ATOM     17  O   UNL     1       7.947   4.599  16.491  0.00  0.00    +0.000 OA
ATOM     18  C   UNL     1       7.103   5.660  17.025  0.00  0.00    +0.000 C 
BRANCH  15  19
ATOM     19  C   UNL     1       5.619   5.663  14.903  0.00  0.00    +0.000 C 
BRANCH  19  20
ATOM     20  C   UNL     1       5.874   4.691  13.791  0.00  0.00    +0.000 A 
ATOM     21  N   UNL     1       5.072   3.709  13.418  0.00  0.00    +0.000 NA
ATOM     22  N   UNL     1       5.668   3.039  12.377  0.00  0.00    +0.000 NA
ATOM     23  C   UNL     1       6.815   3.620  12.130  0.00  0.00    +0.000 A 
ATOM     24  N   UNL     1       6.998   4.649  13.001  0.00  0.00    +0.000 N 
ATOM     25  C   UNL     1       8.165   5.484  13.062  0.00  0.00    +0.000 C 
ENDBRANCH  19  20
ENDBRANCH  15  19
ENDBRANCH   5  15
TORSDOF 5
ENDMDL
