MODEL 1
REMARK VINA RESULT:      -8.2      0.000      0.000
REMARK  Name = 
REMARK  3 active torsions:
REMARK  status: ('A' for Active; 'I' for Inactive)
REMARK    1  A    between atoms: C_2  and  C_19
REMARK    2  A    between atoms: N_3  and  C_4
REMARK    3  A    between atoms: C_9  and  C_10
REMARK                            x       y       z     vdW  Elec       q    Type
REMARK                         _______ _______ _______ _____ _____    ______ ____
ROOT
ATOM      1  C   UNL     1       3.106   4.668  20.388  0.00  0.00    +0.000 A 
ATOM      2  C   UNL     1       2.213   4.010  21.249  0.00  0.00    +0.000 A 
ATOM      3  C   UNL     1       2.354   2.646  21.503  0.00  0.00    +0.000 A 
ATOM      4  C   UNL     1       3.360   1.930  20.871  0.00  0.00    +0.000 A 
ATOM      5  C   UNL     1       4.242   2.586  20.011  0.00  0.00    +0.000 A 
ATOM      6  C   UNL     1       4.191   3.978  19.809  0.00  0.00    +0.000 A 
ENDROOT
BRANCH   6   7
ATOM      7  C   UNL     1       5.288   4.675  19.092  0.00  0.00    +0.000 A 
ATOM      8  N   UNL     1       6.285   5.343  19.658  0.00  0.00    +0.000 NA
ATOM      9  C   UNL     1       7.082   5.818  18.652  0.00  0.00    +0.000 A 
ATOM     10  C   UNL     1       6.610   5.409  17.429  0.00  0.00    +0.000 A 
ATOM     11  N   UNL     1       5.487   4.669  17.720  0.00  0.00    +0.000 N 
ATOM     12  C   UNL     1       4.680   4.041  16.691  0.00  0.00    +0.000 C 
ATOM     13  C   UNL     1       5.410   3.884  15.362  0.00  0.00    +0.000 C 
ATOM     14  C   UNL     1       6.080   5.202  14.986  0.00  0.00    +0.000 C 
ATOM     15  C   UNL     1       7.115   5.605  16.041  0.00  0.00    +0.000 C 
ENDBRANCH   6   7
BRANCH   1  18
ATOM     16  O   UNL     1       1.929   5.713  18.055  0.00  0.00    +0.000 OA
ATOM     17  C   UNL     1       2.298   6.452  18.960  0.00  0.00    +0.000 C 
ATOM     18  N   UNL     1       2.897   6.042  20.150  0.00  0.00    +0.000 N 
ATOM     19  H   UNL     1       2.684   6.614  20.953  0.00  0.00    +0.000 HD
BRANCH  17  20
ATOM     20  C   UNL     1       2.007   7.915  18.877  0.00  0.00    +0.000 A 
ATOM     21  C   UNL     1       1.364   8.544  19.953  0.00  0.00    +0.000 A 
ATOM     22  C   UNL     1       1.100   9.918  19.909  0.00  0.00    +0.000 A 
ATOM     23  C   UNL     1       1.466  10.646  18.785  0.00  0.00    +0.000 A 
ATOM     24  F   UNL     1       1.220  11.961  18.738  0.00  0.00    +0.000 F 
ATOM     25  C   UNL     1       2.085  10.029  17.700  0.00  0.00    +0.000 A 
ATOM     26  C   UNL     1       2.352   8.657  17.741  0.00  0.00    +0.000 A 
ENDBRANCH  17  20
ENDBRANCH   1  18
TORSDOF 3
ENDMDL
MODEL 2
REMARK VINA RESULT:      -8.1      2.747      6.218
REMARK  Name = 
REMARK  3 active torsions:
REMARK  status: ('A' for Active; 'I' for Inactive)
REMARK    1  A    between atoms: C_2  and  C_19
REMARK    2  A    between atoms: N_3  and  C_4
REMARK    3  A    between atoms: C_9  and  C_10
REMARK                            x       y       z     vdW  Elec       q    Type
REMARK                         _______ _______ _______ _____ _____    ______ ____
ROOT
ATOM      1  C   UNL     1       3.205   4.142  19.151  0.00  0.00    +0.000 A 
ATOM      2  C   UNL     1       3.149   2.832  19.655  0.00  0.00    +0.000 A 
ATOM      3  C   UNL     1       2.538   2.574  20.882  0.00  0.00    +0.000 A 
ATOM      4  C   UNL     1       2.016   3.623  21.624  0.00  0.00    +0.000 A 
ATOM      5  C   UNL     1       2.077   4.924  21.122  0.00  0.00    +0.000 A 
ATOM      6  C   UNL     1       2.597   5.208  19.846  0.00  0.00    +0.000 A 
ENDROOT
BRANCH   6   7
ATOM      7  C   UNL     1       2.422   6.554  19.245  0.00  0.00    +0.000 A 
ATOM      8  N   UNL     1       2.794   6.914  18.023  0.00  0.00    +0.000 NA
ATOM      9  C   UNL     1       2.440   8.226  17.859  0.00  0.00    +0.000 A 
ATOM     10  C   UNL     1       1.793   8.695  18.975  0.00  0.00    +0.000 A 
ATOM     11  N   UNL     1       1.768   7.624  19.838  0.00  0.00    +0.000 N 
ATOM     12  C   UNL     1       1.159   7.696  21.153  0.00  0.00    +0.000 C 
ATOM     13  C   UNL     1       0.184   8.858  21.304  0.00  0.00    +0.000 C 
ATOM     14  C   UNL     1       0.829  10.139  20.785  0.00  0.00    +0.000 C 
ATOM     15  C   UNL     1       1.172  10.010  19.298  0.00  0.00    +0.000 C 
ENDBRANCH   6   7
BRANCH   1  18
ATOM     16  O   UNL     1       5.999   4.239  18.835  0.00  0.00    +0.000 OA
ATOM     17  C   UNL     1       5.251   4.368  17.874  0.00  0.00    +0.000 C 
ATOM     18  N   UNL     1       3.858   4.344  17.918  0.00  0.00    +0.000 N 
ATOM     19  H   UNL     1       3.412   3.959  17.101  0.00  0.00    +0.000 HD
BRANCH  17  20
ATOM     20  C   UNL     1       5.831   4.455  16.499  0.00  0.00    +0.000 A 
ATOM     21  C   UNL     1       5.055   4.046  15.405  0.00  0.00    +0.000 A 
ATOM     22  C   UNL     1       5.567   4.138  14.105  0.00  0.00    +0.000 A 
ATOM     23  C   UNL     1       6.855   4.622  13.914  0.00  0.00    +0.000 A 
ATOM     24  F   UNL     1       7.350   4.716  12.673  0.00  0.00    +0.000 F 
ATOM     25  C   UNL     1       7.645   5.009  14.994  0.00  0.00    +0.000 A 
ATOM     26  C   UNL     1       7.135   4.921  16.293  0.00  0.00    +0.000 A 
ENDBRANCH  17  20
ENDBRANCH   1  18
TORSDOF 3
ENDMDL
MODEL 3
REMARK VINA RESULT:      -7.8      2.554      6.041
REMARK  Name = 
REMARK  3 active torsions:
REMARK  status: ('A' for Active; 'I' for Inactive)
REMARK    1  A    between atoms: C_2  and  C_19
REMARK    2  A    between atoms: N_3  and  C_4
REMARK    3  A    between atoms: C_9  and  C_10
REMARK                            x       y       z     vdW  Elec       q    Type
REMARK                         _______ _______ _______ _____ _____    ______ ____
ROOT
ATOM      1  C   UNL     1       3.674   4.165  19.567  0.00  0.00    +0.000 A 
ATOM      2  C   UNL     1       3.668   2.886  20.146  0.00  0.00    +0.000 A 
ATOM      3  C   UNL     1       2.802   2.593  21.200  0.00  0.00    +0.000 A 
ATOM      4  C   UNL     1       1.971   3.584  21.702  0.00  0.00    +0.000 A 
ATOM      5  C   UNL     1       1.984   4.856  21.127  0.00  0.00    +0.000 A 
ATOM      6  C   UNL     1       2.771   5.158  20.001  0.00  0.00    +0.000 A 
ENDROOT
BRANCH   6   7
ATOM      7  C   UNL     1       2.576   6.433  19.267  0.00  0.00    +0.000 A 
ATOM      8  N   UNL     1       2.944   6.674  18.015  0.00  0.00    +0.000 NA
ATOM      9  C   UNL     1       2.572   7.958  17.720  0.00  0.00    +0.000 A 
ATOM     10  C   UNL     1       1.918   8.527  18.783  0.00  0.00    +0.000 A 
ATOM     11  N   UNL     1       1.907   7.548  19.750  0.00  0.00    +0.000 N 
ATOM     12  C   UNL     1       1.298   7.744  21.052  0.00  0.00    +0.000 C 
ATOM     13  C   UNL     1       0.306   8.901  21.087  0.00  0.00    +0.000 C 
ATOM     14  C   UNL     1       0.933  10.133  20.440  0.00  0.00    +0.000 C 
ATOM     15  C   UNL     1       1.279   9.860  18.974  0.00  0.00    +0.000 C 
ENDBRANCH   6   7
BRANCH   1  18
ATOM     16  O   UNL     1       3.577   2.905  17.052  0.00  0.00    +0.000 OA
ATOM     17  C   UNL     1       4.443   3.731  17.310  0.00  0.00    +0.000 C 
ATOM     18  N   UNL     1       4.588   4.408  18.521  0.00  0.00    +0.000 N 
ATOM     19  H   UNL     1       4.952   5.344  18.445  0.00  0.00    +0.000 HD
BRANCH  17  20
ATOM     20  C   UNL     1       5.386   4.166  16.235  0.00  0.00    +0.000 A 
ATOM     21  C   UNL     1       6.567   4.833  16.593  0.00  0.00    +0.000 A 
ATOM     22  C   UNL     1       7.477   5.232  15.607  0.00  0.00    +0.000 A 
ATOM     23  C   UNL     1       7.190   4.973  14.272  0.00  0.00    +0.000 A 
ATOM     24  F   UNL     1       8.058   5.348  13.324  0.00  0.00    +0.000 F 
ATOM     25  C   UNL     1       6.010   4.332  13.902  0.00  0.00    +0.000 A 
ATOM     26  C   UNL     1       5.101   3.931  14.885  0.00  0.00    +0.000 A 
ENDBRANCH  17  20
ENDBRANCH   1  18
TORSDOF 3
ENDMDL
MODEL 4
REMARK VINA RESULT:      -7.7      1.712      2.622
REMARK  Name = 
REMARK  3 active torsions:
REMARK  status: ('A' for Active; 'I' for Inactive)
REMARK    1  A    between atoms: C_2  and  C_19
REMARK    2  A    between atoms: N_3  and  C_4
REMARK    3  A    between atoms: C_9  and  C_10
REMARK                            x       y       z     vdW  Elec       q    Type
REMARK                         _______ _______ _______ _____ _____    ______ ____
ROOT
ATOM      1  C   UNL     1       2.314   4.454  18.110  0.00  0.00    +0.000 A 
ATOM      2  C   UNL     1       1.478   3.476  18.673  0.00  0.00    +0.000 A 
ATOM      3  C   UNL     1       1.829   2.127  18.610  0.00  0.00    +0.000 A 
ATOM      4  C   UNL     1       2.991   1.749  17.953  0.00  0.00    +0.000 A 
ATOM      5  C   UNL     1       3.816   2.724  17.390  0.00  0.00    +0.000 A 
ATOM      6  C   UNL     1       3.545   4.098  17.520  0.00  0.00    +0.000 A 
ENDROOT
BRANCH   6   7
ATOM      7  C   UNL     1       4.562   5.106  17.130  0.00  0.00    +0.000 A 
ATOM      8  N   UNL     1       4.503   5.900  16.068  0.00  0.00    +0.000 NA
ATOM      9  C   UNL     1       5.625   6.683  16.081  0.00  0.00    +0.000 A 
ATOM     10  C   UNL     1       6.387   6.417  17.192  0.00  0.00    +0.000 A 
ATOM     11  N   UNL     1       5.696   5.432  17.860  0.00  0.00    +0.000 N 
ATOM     12  C   UNL     1       6.164   4.861  19.109  0.00  0.00    +0.000 C 
ATOM     13  C   UNL     1       7.192   5.731  19.823  0.00  0.00    +0.000 C 
ATOM     14  C   UNL     1       8.267   6.171  18.834  0.00  0.00    +0.000 C 
ATOM     15  C   UNL     1       7.657   7.005  17.704  0.00  0.00    +0.000 C 
ENDBRANCH   6   7
BRANCH   1  18
ATOM     16  O   UNL     1       3.023   6.225  20.178  0.00  0.00    +0.000 OA
ATOM     17  C   UNL     1       2.311   6.591  19.251  0.00  0.00    +0.000 C 
ATOM     18  N   UNL     1       1.894   5.797  18.183  0.00  0.00    +0.000 N 
ATOM     19  H   UNL     1       1.781   6.286  17.309  0.00  0.00    +0.000 HD
BRANCH  17  20
ATOM     20  C   UNL     1       1.914   8.029  19.154  0.00  0.00    +0.000 A 
ATOM     21  C   UNL     1       2.219   8.742  17.985  0.00  0.00    +0.000 A 
ATOM     22  C   UNL     1       1.840  10.084  17.861  0.00  0.00    +0.000 A 
ATOM     23  C   UNL     1       1.174  10.703  18.910  0.00  0.00    +0.000 A 
ATOM     24  F   UNL     1       0.805  11.985  18.796  0.00  0.00    +0.000 F 
ATOM     25  C   UNL     1       0.886  10.013  20.085  0.00  0.00    +0.000 A 
ATOM     26  C   UNL     1       1.262   8.672  20.212  0.00  0.00    +0.000 A 
ENDBRANCH  17  20
ENDBRANCH   1  18
TORSDOF 3
ENDMDL
MODEL 5
REMARK VINA RESULT:      -7.7      2.034      4.752
REMARK  Name = 
REMARK  3 active torsions:
REMARK  status: ('A' for Active; 'I' for Inactive)
REMARK    1  A    between atoms: C_2  and  C_19
REMARK    2  A    between atoms: N_3  and  C_4
REMARK    3  A    between atoms: C_9  and  C_10
REMARK                            x       y       z     vdW  Elec       q    Type
REMARK                         _______ _______ _______ _____ _____    ______ ____
ROOT
ATOM      1  C   UNL     1       4.032   6.243  17.581  0.00  0.00    +0.000 A 
ATOM      2  C   UNL     1       5.004   6.904  16.814  0.00  0.00    +0.000 A 
ATOM      3  C   UNL     1       5.722   6.214  15.837  0.00  0.00    +0.000 A 
ATOM      4  C   UNL     1       5.499   4.858  15.651  0.00  0.00    +0.000 A 
ATOM      5  C   UNL     1       4.535   4.202  16.419  0.00  0.00    +0.000 A 
ATOM      6  C   UNL     1       3.725   4.887  17.343  0.00  0.00    +0.000 A 
ENDROOT
BRANCH   6   7
ATOM      7  C   UNL     1       2.551   4.216  17.956  0.00  0.00    +0.000 A 
ATOM      8  N   UNL     1       1.382   4.001  17.366  0.00  0.00    +0.000 NA
ATOM      9  C   UNL     1       0.584   3.347  18.265  0.00  0.00    +0.000 A 
ATOM     10  C   UNL     1       1.270   3.102  19.429  0.00  0.00    +0.000 A 
ATOM     11  N   UNL     1       2.520   3.637  19.216  0.00  0.00    +0.000 N 
ATOM     12  C   UNL     1       3.571   3.587  20.215  0.00  0.00    +0.000 C 
ATOM     13  C   UNL     1       3.335   2.528  21.287  0.00  0.00    +0.000 C 
ATOM     14  C   UNL     1       1.906   2.640  21.811  0.00  0.00    +0.000 C 
ATOM     15  C   UNL     1       0.895   2.398  20.687  0.00  0.00    +0.000 C 
ENDBRANCH   6   7
BRANCH   1  18
ATOM     16  O   UNL     1       2.293   8.387  17.038  0.00  0.00    +0.000 OA
ATOM     17  C   UNL     1       2.511   8.029  18.189  0.00  0.00    +0.000 C 
ATOM     18  N   UNL     1       3.357   6.988  18.570  0.00  0.00    +0.000 N 
ATOM     19  H   UNL     1       3.072   6.489  19.398  0.00  0.00    +0.000 HD
BRANCH  17  20
ATOM     20  C   UNL     1       1.750   8.658  19.310  0.00  0.00    +0.000 A 
ATOM     21  C   UNL     1       1.661   7.982  20.536  0.00  0.00    +0.000 A 
ATOM     22  C   UNL     1       0.972   8.561  21.609  0.00  0.00    +0.000 A 
ATOM     23  C   UNL     1       0.366   9.799  21.441  0.00  0.00    +0.000 A 
ATOM     24  F   UNL     1      -0.291  10.359  22.465  0.00  0.00    +0.000 F 
ATOM     25  C   UNL     1       0.428  10.470  20.222  0.00  0.00    +0.000 A 
ATOM     26  C   UNL     1       1.117   9.896  19.149  0.00  0.00    +0.000 A 
ENDBRANCH  17  20
ENDBRANCH   1  18
TORSDOF 3
ENDMDL
MODEL 6
REMARK VINA RESULT:      -7.4      1.326      1.643
REMARK  Name = 
REMARK  3 active torsions:
REMARK  status: ('A' for Active; 'I' for Inactive)
REMARK    1  A    between atoms: C_2  and  C_19
REMARK    2  A    between atoms: N_3  and  C_4
REMARK    3  A    between atoms: C_9  and  C_10
REMARK                            x       y       z     vdW  Elec       q    Type
REMARK                         _______ _______ _______ _____ _____    ______ ____
ROOT
ATOM      1  C   UNL     1       2.170   4.166  18.751  0.00  0.00    +0.000 A 
ATOM      2  C   UNL     1       1.107   3.364  19.199  0.00  0.00    +0.000 A 
ATOM      3  C   UNL     1       1.282   1.991  19.367  0.00  0.00    +0.000 A 
ATOM      4  C   UNL     1       2.502   1.410  19.054  0.00  0.00    +0.000 A 
ATOM      5  C   UNL     1       3.554   2.209  18.604  0.00  0.00    +0.000 A 
ATOM      6  C   UNL     1       3.444   3.608  18.517  0.00  0.00    +0.000 A 
ENDROOT
BRANCH   6   7
ATOM      7  C   UNL     1       4.647   4.444  18.277  0.00  0.00    +0.000 A 
ATOM      8  N   UNL     1       5.281   5.173  19.187  0.00  0.00    +0.000 NA
ATOM      9  C   UNL     1       6.340   5.775  18.562  0.00  0.00    +0.000 A 
ATOM     10  C   UNL     1       6.408   5.389  17.247  0.00  0.00    +0.000 A 
ATOM     11  N   UNL     1       5.345   4.530  17.082  0.00  0.00    +0.000 N 
ATOM     12  C   UNL     1       5.055   3.883  15.816  0.00  0.00    +0.000 C 
ATOM     13  C   UNL     1       6.243   3.867  14.860  0.00  0.00    +0.000 C 
ATOM     14  C   UNL     1       6.857   5.262  14.783  0.00  0.00    +0.000 C 
ATOM     15  C   UNL     1       7.371   5.705  16.155  0.00  0.00    +0.000 C 
ENDBRANCH   6   7
BRANCH   1  18
ATOM     16  O   UNL     1       2.045   6.032  20.853  0.00  0.00    +0.000 OA
ATOM     17  C   UNL     1       1.891   6.382  19.689  0.00  0.00    +0.000 C 
ATOM     18  N   UNL     1       1.925   5.543  18.576  0.00  0.00    +0.000 N 
ATOM     19  H   UNL     1       2.288   5.965  17.736  0.00  0.00    +0.000 HD
BRANCH  17  20
ATOM     20  C   UNL     1       1.757   7.836  19.372  0.00  0.00    +0.000 A 
ATOM     21  C   UNL     1       2.206   8.306  18.129  0.00  0.00    +0.000 A 
ATOM     22  C   UNL     1       2.072   9.660  17.799  0.00  0.00    +0.000 A 
ATOM     23  C   UNL     1       1.506  10.533  18.720  0.00  0.00    +0.000 A 
ATOM     24  F   UNL     1       1.372  11.828  18.410  0.00  0.00    +0.000 F 
ATOM     25  C   UNL     1       1.078  10.083  19.967  0.00  0.00    +0.000 A 
ATOM     26  C   UNL     1       1.208   8.730  20.299  0.00  0.00    +0.000 A 
ENDBRANCH  17  20
ENDBRANCH   1  18
TORSDOF 3
ENDMDL
MODEL 7
REMARK VINA RESULT:      -7.4      1.022      1.031
REMARK  Name = 
REMARK  3 active torsions:
REMARK  status: ('A' for Active; 'I' for Inactive)
REMARK    1  A    between atoms: C_2  and  C_19
REMARK    2  A    between atoms: N_3  and  C_4
REMARK    3  A    between atoms: C_9  and  C_10
REMARK                            x       y       z     vdW  Elec       q    Type
REMARK                         _______ _______ _______ _____ _____    ______ ____
ROOT
ATOM      1  C   UNL     1       2.323   4.594  19.527  0.00  0.00    +0.000 A 
ATOM      2  C   UNL     1       1.273   3.938  20.190  0.00  0.00    +0.000 A 
ATOM      3  C   UNL     1       1.414   2.611  20.595  0.00  0.00    +0.000 A 
ATOM      4  C   UNL     1       2.584   1.925  20.305  0.00  0.00    +0.000 A 
ATOM      5  C   UNL     1       3.623   2.578  19.641  0.00  0.00    +0.000 A 
ATOM      6  C   UNL     1       3.554   3.943  19.306  0.00  0.00    +0.000 A 
ENDROOT
BRANCH   6   7
ATOM      7  C   UNL     1       4.762   4.663  18.830  0.00  0.00    +0.000 A 
ATOM      8  N   UNL     1       5.565   5.412  19.576  0.00  0.00    +0.000 NA
ATOM      9  C   UNL     1       6.560   5.880  18.761  0.00  0.00    +0.000 A 
ATOM     10  C   UNL     1       6.414   5.387  17.489  0.00  0.00    +0.000 A 
ATOM     11  N   UNL     1       5.285   4.601  17.548  0.00  0.00    +0.000 N 
ATOM     12  C   UNL     1       4.776   3.880  16.396  0.00  0.00    +0.000 C 
ATOM     13  C   UNL     1       5.811   3.698  15.291  0.00  0.00    +0.000 C 
ATOM     14  C   UNL     1       6.496   5.031  15.007  0.00  0.00    +0.000 C 
ATOM     15  C   UNL     1       7.229   5.541  16.251  0.00  0.00    +0.000 C 
ENDBRANCH   6   7
BRANCH   1  18
ATOM     16  O   UNL     1       1.484   6.659  21.244  0.00  0.00    +0.000 OA
ATOM     17  C   UNL     1       1.701   6.875  20.058  0.00  0.00    +0.000 C 
ATOM     18  N   UNL     1       2.111   5.927  19.121  0.00  0.00    +0.000 N 
ATOM     19  H   UNL     1       2.713   6.280  18.393  0.00  0.00    +0.000 HD
BRANCH  17  20
ATOM     20  C   UNL     1       1.639   8.276  19.544  0.00  0.00    +0.000 A 
ATOM     21  C   UNL     1       1.005   9.259  20.319  0.00  0.00    +0.000 A 
ATOM     22  C   UNL     1       0.952  10.584  19.869  0.00  0.00    +0.000 A 
ATOM     23  C   UNL     1       1.518  10.910  18.644  0.00  0.00    +0.000 A 
ATOM     24  F   UNL     1       1.475  12.176  18.210  0.00  0.00    +0.000 F 
ATOM     25  C   UNL     1       2.131   9.939  17.854  0.00  0.00    +0.000 A 
ATOM     26  C   UNL     1       2.187   8.615  18.301  0.00  0.00    +0.000 A 
ENDBRANCH  17  20
ENDBRANCH   1  18
TORSDOF 3
ENDMDL
MODEL 8
REMARK VINA RESULT:      -7.4      1.993      4.365
REMARK  Name = 
REMARK  3 active torsions:
REMARK  status: ('A' for Active; 'I' for Inactive)
REMARK    1  A    between atoms: C_2  and  C_19
REMARK    2  A    between atoms: N_3  and  C_4
REMARK    3  A    between atoms: C_9  and  C_10
REMARK                            x       y       z     vdW  Elec       q    Type
REMARK                         _______ _______ _______ _____ _____    ______ ____
ROOT
ATOM      1  C   UNL     1       4.739   5.942  17.274  0.00  0.00    +0.000 A 
ATOM      2  C   UNL     1       5.130   6.672  16.139  0.00  0.00    +0.000 A 
ATOM      3  C   UNL     1       5.940   6.085  15.168  0.00  0.00    +0.000 A 
ATOM      4  C   UNL     1       6.392   4.785  15.344  0.00  0.00    +0.000 A 
ATOM      5  C   UNL     1       6.006   4.065  16.475  0.00  0.00    +0.000 A 
ATOM      6  C   UNL     1       5.111   4.591  17.425  0.00  0.00    +0.000 A 
ENDROOT
BRANCH   6   7
ATOM      7  C   UNL     1       4.530   3.717  18.475  0.00  0.00    +0.000 A 
ATOM      8  N   UNL     1       5.184   3.203  19.509  0.00  0.00    +0.000 NA
ATOM      9  C   UNL     1       4.285   2.473  20.239  0.00  0.00    +0.000 A 
ATOM     10  C   UNL     1       3.031   2.560  19.687  0.00  0.00    +0.000 A 
ATOM     11  N   UNL     1       3.192   3.366  18.584  0.00  0.00    +0.000 N 
ATOM     12  C   UNL     1       2.090   3.720  17.709  0.00  0.00    +0.000 C 
ATOM     13  C   UNL     1       0.721   3.519  18.350  0.00  0.00    +0.000 C 
ATOM     14  C   UNL     1       0.657   2.139  18.997  0.00  0.00    +0.000 C 
ATOM     15  C   UNL     1       1.711   2.006  20.100  0.00  0.00    +0.000 C 
ENDBRANCH   6   7
BRANCH   1  18
ATOM     16  O   UNL     1       2.908   7.994  16.677  0.00  0.00    +0.000 OA
ATOM     17  C   UNL     1       3.059   7.599  17.826  0.00  0.00    +0.000 C 
ATOM     18  N   UNL     1       3.940   6.598  18.233  0.00  0.00    +0.000 N 
ATOM     19  H   UNL     1       3.626   6.046  19.015  0.00  0.00    +0.000 HD
BRANCH  17  20
ATOM     20  C   UNL     1       2.172   8.128  18.906  0.00  0.00    +0.000 A 
ATOM     21  C   UNL     1       1.477   9.327  18.690  0.00  0.00    +0.000 A 
ATOM     22  C   UNL     1       0.623   9.832  19.678  0.00  0.00    +0.000 A 
ATOM     23  C   UNL     1       0.484   9.143  20.875  0.00  0.00    +0.000 A 
ATOM     24  F   UNL     1      -0.335   9.619  21.822  0.00  0.00    +0.000 F 
ATOM     25  C   UNL     1       1.186   7.963  21.111  0.00  0.00    +0.000 A 
ATOM     26  C   UNL     1       2.038   7.455  20.126  0.00  0.00    +0.000 A 
ENDBRANCH  17  20
ENDBRANCH   1  18
TORSDOF 3
ENDMDL
MODEL 9
REMARK VINA RESULT:      -7.2      3.381      5.980
REMARK  Name = 
REMARK  3 active torsions:
REMARK  status: ('A' for Active; 'I' for Inactive)
REMARK    1  A    between atoms: C_2  and  C_19
REMARK    2  A    between atoms: N_3  and  C_4
REMARK    3  A    between atoms: C_9  and  C_10
REMARK                            x       y       z     vdW  Elec       q    Type
REMARK                         _______ _______ _______ _____ _____    ______ ____
ROOT
ATOM      1  C   UNL     1       6.298   6.067  16.295  0.00  0.00    +0.000 A 
ATOM      2  C   UNL     1       7.077   5.424  15.319  0.00  0.00    +0.000 A 
ATOM      3  C   UNL     1       6.721   4.159  14.853  0.00  0.00    +0.000 A 
ATOM      4  C   UNL     1       5.613   3.517  15.385  0.00  0.00    +0.000 A 
ATOM      5  C   UNL     1       4.843   4.157  16.359  0.00  0.00    +0.000 A 
ATOM      6  C   UNL     1       5.115   5.471  16.780  0.00  0.00    +0.000 A 
ENDROOT
BRANCH   6   7
ATOM      7  C   UNL     1       4.141   6.207  17.624  0.00  0.00    +0.000 A 
ATOM      8  N   UNL     1       3.743   7.460  17.440  0.00  0.00    +0.000 NA
ATOM      9  C   UNL     1       2.836   7.749  18.423  0.00  0.00    +0.000 A 
ATOM     10  C   UNL     1       2.618   6.651  19.217  0.00  0.00    +0.000 A 
ATOM     11  N   UNL     1       3.433   5.674  18.691  0.00  0.00    +0.000 N 
ATOM     12  C   UNL     1       3.502   4.335  19.244  0.00  0.00    +0.000 C 
ATOM     13  C   UNL     1       2.306   3.981  20.120  0.00  0.00    +0.000 C 
ATOM     14  C   UNL     1       2.045   5.110  21.112  0.00  0.00    +0.000 C 
ATOM     15  C   UNL     1       1.714   6.413  20.377  0.00  0.00    +0.000 C 
ENDBRANCH   6   7
BRANCH   1  18
ATOM     16  O   UNL     1       8.083   6.475  18.431  0.00  0.00    +0.000 OA
ATOM     17  C   UNL     1       7.617   7.422  17.810  0.00  0.00    +0.000 C 
ATOM     18  N   UNL     1       6.722   7.334  16.744  0.00  0.00    +0.000 N 
ATOM     19  H   UNL     1       6.821   8.053  16.045  0.00  0.00    +0.000 HD
BRANCH  17  20
ATOM     20  C   UNL     1       8.097   8.804  18.111  0.00  0.00    +0.000 A 
ATOM     21  C   UNL     1       8.970   9.002  19.191  0.00  0.00    +0.000 A 
ATOM     22  C   UNL     1       9.451  10.285  19.481  0.00  0.00    +0.000 A 
ATOM     23  C   UNL     1       9.044  11.357  18.698  0.00  0.00    +0.000 A 
ATOM     24  F   UNL     1       9.504  12.586  18.967  0.00  0.00    +0.000 F 
ATOM     25  C   UNL     1       8.160  11.178  17.637  0.00  0.00    +0.000 A 
ATOM     26  C   UNL     1       7.679   9.898  17.344  0.00  0.00    +0.000 A 
ENDBRANCH  17  20
ENDBRANCH   1  18
TORSDOF 3
ENDMDL
