MODEL 1
REMARK VINA RESULT:      -8.8      0.000      0.000
REMARK  Name = 
REMARK  6 active torsions:
REMARK  status: ('A' for Active; 'I' for Inactive)
REMARK    1  A    between atoms: C_2  and  C_17
REMARK    2  A    between atoms: N_3  and  C_4
REMARK    3  A    between atoms: C_7  and  N_8
REMARK    4  A    between atoms: N_8  and  C_9
REMARK    5  A    between atoms: C_21  and  C_22
REMARK    6  A    between atoms: C_22  and  N_23
REMARK                            x       y       z     vdW  Elec       q    Type
REMARK                         _______ _______ _______ _____ _____    ______ ____
ROOT
ATOM      1  O   UNL     1       2.028   7.786  19.742  0.00  0.00    +0.000 OA
ATOM      2  C   UNL     1       2.278   7.903  18.547  0.00  0.00    +0.000 C 
ATOM      3  N   UNL     1       1.832   8.903  17.696  0.00  0.00    +0.000 N 
ATOM      4  H   UNL     1       1.949   8.760  16.702  0.00  0.00    +0.000 HD
ENDROOT
BRANCH   3   5
ATOM      5  C   UNL     1       1.020   9.987  18.087  0.00  0.00    +0.000 A 
ATOM      6  C   UNL     1       1.557  11.176  18.572  0.00  0.00    +0.000 A 
ATOM      7  C   UNL     1       0.726  12.190  19.033  0.00  0.00    +0.000 A 
ATOM      8  C   UNL     1      -0.666  12.072  18.963  0.00  0.00    +0.000 A 
ATOM      9  C   UNL     1      -1.208  10.884  18.465  0.00  0.00    +0.000 A 
ATOM     10  C   UNL     1      -0.370   9.855  18.008  0.00  0.00    +0.000 A 
BRANCH   8  11
ATOM     11  N   UNL     1      -1.516  13.103  19.434  0.00  0.00    +0.000 N 
ATOM     12  H   UNL     1      -1.998  13.535  18.650  0.00  0.00    +0.000 HD
BRANCH  11  13
ATOM     13  C   UNL     1      -2.351  12.986  20.574  0.00  0.00    +0.000 A 
ATOM     14  C   UNL     1      -1.795  12.851  21.857  0.00  0.00    +0.000 A 
ATOM     15  C   UNL     1      -2.602  12.684  22.980  0.00  0.00    +0.000 A 
ATOM     16  C   UNL     1      -3.985  12.693  22.841  0.00  0.00    +0.000 A 
ATOM     17  C   UNL     1      -4.556  12.876  21.582  0.00  0.00    +0.000 A 
ATOM     18  C   UNL     1      -3.744  13.029  20.452  0.00  0.00    +0.000 A 
ENDBRANCH  11  13
ENDBRANCH   8  11
ENDBRANCH   3   5
BRANCH   2  19
ATOM     19  C   UNL     1       3.086   6.832  17.918  0.00  0.00    +0.000 A 
ATOM     20  C   UNL     1       4.275   7.111  17.239  0.00  0.00    +0.000 A 
ATOM     21  C   UNL     1       5.007   6.064  16.683  0.00  0.00    +0.000 A 
ATOM     22  C   UNL     1       4.572   4.743  16.832  0.00  0.00    +0.000 A 
ATOM     23  C   UNL     1       3.412   4.449  17.561  0.00  0.00    +0.000 A 
ATOM     24  C   UNL     1       2.657   5.507  18.080  0.00  0.00    +0.000 A 
BRANCH  23  25
ATOM     25  C   UNL     1       2.993   3.019  17.812  0.00  0.00    +0.000 C 
BRANCH  25  26
ATOM     26  N   UNL     1       2.740   2.748  19.205  0.00  0.00    +0.000 N 
ATOM     27  C   UNL     1       1.502   2.664  19.775  0.00  0.00    +0.000 C 
ATOM     28  O   UNL     1       0.424   2.770  19.210  0.00  0.00    +0.000 OA
ATOM     29  C   UNL     1       1.676   2.445  21.270  0.00  0.00    +0.000 C 
ATOM     30  N   UNL     1       3.107   2.435  21.373  0.00  0.00    +0.000 N 
ATOM     31  C   UNL     1       3.710   2.637  20.152  0.00  0.00    +0.000 C 
ATOM     32  O   UNL     1       4.916   2.719  19.997  0.00  0.00    +0.000 OA
ATOM     33  H   UNL     1       3.650   2.362  22.223  0.00  0.00    +0.000 HD
ENDBRANCH  25  26
ENDBRANCH  23  25
ENDBRANCH   2  19
TORSDOF 6
ENDMDL
MODEL 2
REMARK VINA RESULT:      -8.7      1.665      1.924
REMARK  Name = 
REMARK  6 active torsions:
REMARK  status: ('A' for Active; 'I' for Inactive)
REMARK    1  A    between atoms: C_2  and  C_17
REMARK    2  A    between atoms: N_3  and  C_4
REMARK    3  A    between atoms: C_7  and  N_8
REMARK    4  A    between atoms: N_8  and  C_9
REMARK    5  A    between atoms: C_21  and  C_22
REMARK    6  A    between atoms: C_22  and  N_23
REMARK                            x       y       z     vdW  Elec       q    Type
REMARK                         _______ _______ _______ _____ _____    ______ ____
ROOT
ATOM      1  O   UNL     1       1.433   8.875  17.755  0.00  0.00    +0.000 OA
ATOM      2  C   UNL     1       1.912   8.073  18.549  0.00  0.00    +0.000 C 
ATOM      3  N   UNL     1       1.771   8.082  19.929  0.00  0.00    +0.000 N 
ATOM      4  H   UNL     1       2.383   7.484  20.467  0.00  0.00    +0.000 HD
ENDROOT
BRANCH   3   5
ATOM      5  C   UNL     1       1.013   9.024  20.653  0.00  0.00    +0.000 A 
ATOM      6  C   UNL     1       1.092  10.390  20.399  0.00  0.00    +0.000 A 
ATOM      7  C   UNL     1       0.399  11.298  21.191  0.00  0.00    +0.000 A 
ATOM      8  C   UNL     1      -0.444  10.864  22.218  0.00  0.00    +0.000 A 
ATOM      9  C   UNL     1      -0.537   9.492  22.468  0.00  0.00    +0.000 A 
ATOM     10  C   UNL     1       0.171   8.574  21.676  0.00  0.00    +0.000 A 
BRANCH   8  11
ATOM     11  N   UNL     1      -1.151  11.786  23.029  0.00  0.00    +0.000 N 
ATOM     12  H   UNL     1      -0.537  12.550  23.296  0.00  0.00    +0.000 HD
BRANCH  11  13
ATOM     13  C   UNL     1      -2.470  12.232  22.760  0.00  0.00    +0.000 A 
ATOM     14  C   UNL     1      -3.384  12.434  23.808  0.00  0.00    +0.000 A 
ATOM     15  C   UNL     1      -4.698  12.822  23.556  0.00  0.00    +0.000 A 
ATOM     16  C   UNL     1      -5.108  13.057  22.248  0.00  0.00    +0.000 A 
ATOM     17  C   UNL     1      -4.200  12.911  21.199  0.00  0.00    +0.000 A 
ATOM     18  C   UNL     1      -2.884  12.506  21.453  0.00  0.00    +0.000 A 
ENDBRANCH  11  13
ENDBRANCH   8  11
ENDBRANCH   3   5
BRANCH   2  19
ATOM     19  C   UNL     1       2.791   7.017  17.997  0.00  0.00    +0.000 A 
ATOM     20  C   UNL     1       4.027   7.317  17.417  0.00  0.00    +0.000 A 
ATOM     21  C   UNL     1       4.823   6.282  16.931  0.00  0.00    +0.000 A 
ATOM     22  C   UNL     1       4.404   4.954  17.052  0.00  0.00    +0.000 A 
ATOM     23  C   UNL     1       3.194   4.639  17.685  0.00  0.00    +0.000 A 
ATOM     24  C   UNL     1       2.377   5.684  18.131  0.00  0.00    +0.000 A 
BRANCH  23  25
ATOM     25  C   UNL     1       2.785   3.202  17.909  0.00  0.00    +0.000 C 
BRANCH  25  26
ATOM     26  N   UNL     1       2.625   2.879  19.305  0.00  0.00    +0.000 N 
ATOM     27  C   UNL     1       1.432   2.835  19.968  0.00  0.00    +0.000 C 
ATOM     28  O   UNL     1       0.321   3.025  19.495  0.00  0.00    +0.000 OA
ATOM     29  C   UNL     1       1.707   2.536  21.434  0.00  0.00    +0.000 C 
ATOM     30  N   UNL     1       3.139   2.446  21.422  0.00  0.00    +0.000 N 
ATOM     31  C   UNL     1       3.657   2.672  20.167  0.00  0.00    +0.000 C 
ATOM     32  O   UNL     1       4.850   2.697  19.919  0.00  0.00    +0.000 OA
ATOM     33  H   UNL     1       3.741   2.303  22.222  0.00  0.00    +0.000 HD
ENDBRANCH  25  26
ENDBRANCH  23  25
ENDBRANCH   2  19
TORSDOF 6
ENDMDL
MODEL 3
REMARK VINA RESULT:      -8.7      6.394     10.302
REMARK  Name = 
REMARK  6 active torsions:
REMARK  status: ('A' for Active; 'I' for Inactive)
REMARK    1  A    between atoms: C_2  and  C_17
REMARK    2  A    between atoms: N_3  and  C_4
REMARK    3  A    between atoms: C_7  and  N_8
REMARK    4  A    between atoms: N_8  and  C_9
REMARK    5  A    between atoms: C_21  and  C_22
REMARK    6  A    between atoms: C_22  and  N_23
REMARK                            x       y       z     vdW  Elec       q    Type
REMARK                         _______ _______ _______ _____ _____    ______ ____
ROOT
ATOM      1  O   UNL     1       7.514   9.660  17.555  0.00  0.00    +0.000 OA
ATOM      2  C   UNL     1       8.420   9.283  18.290  0.00  0.00    +0.000 C 
ATOM      3  N   UNL     1       8.646   7.990  18.737  0.00  0.00    +0.000 N 
ATOM      4  H   UNL     1       9.304   7.863  19.494  0.00  0.00    +0.000 HD
ENDROOT
BRANCH   3   5
ATOM      5  C   UNL     1       7.864   6.870  18.386  0.00  0.00    +0.000 A 
ATOM      6  C   UNL     1       7.420   6.657  17.085  0.00  0.00    +0.000 A 
ATOM      7  C   UNL     1       6.576   5.592  16.792  0.00  0.00    +0.000 A 
ATOM      8  C   UNL     1       6.204   4.673  17.778  0.00  0.00    +0.000 A 
ATOM      9  C   UNL     1       6.659   4.877  19.083  0.00  0.00    +0.000 A 
ATOM     10  C   UNL     1       7.503   5.957  19.383  0.00  0.00    +0.000 A 
BRANCH   8  11
ATOM     11  N   UNL     1       5.342   3.587  17.483  0.00  0.00    +0.000 N 
ATOM     12  H   UNL     1       5.843   2.710  17.600  0.00  0.00    +0.000 HD
BRANCH  11  13
ATOM     13  C   UNL     1       3.998   3.496  17.926  0.00  0.00    +0.000 A 
ATOM     14  C   UNL     1       3.009   4.332  17.384  0.00  0.00    +0.000 A 
ATOM     15  C   UNL     1       1.695   4.290  17.845  0.00  0.00    +0.000 A 
ATOM     16  C   UNL     1       1.340   3.375  18.831  0.00  0.00    +0.000 A 
ATOM     17  C   UNL     1       2.299   2.502  19.345  0.00  0.00    +0.000 A 
ATOM     18  C   UNL     1       3.621   2.556  18.891  0.00  0.00    +0.000 A 
ENDBRANCH  11  13
ENDBRANCH   8  11
ENDBRANCH   3   5
BRANCH   2  19
ATOM     19  C   UNL     1       9.338  10.318  18.817  0.00  0.00    +0.000 A 
ATOM     20  C   UNL     1      10.327  10.901  18.020  0.00  0.00    +0.000 A 
ATOM     21  C   UNL     1      11.151  11.885  18.561  0.00  0.00    +0.000 A 
ATOM     22  C   UNL     1      10.969  12.309  19.880  0.00  0.00    +0.000 A 
ATOM     23  C   UNL     1       9.942  11.773  20.670  0.00  0.00    +0.000 A 
ATOM     24  C   UNL     1       9.146  10.754  20.137  0.00  0.00    +0.000 A 
BRANCH  23  25
ATOM     25  C   UNL     1       9.676  12.300  22.061  0.00  0.00    +0.000 C 
BRANCH  25  26
ATOM     26  N   UNL     1       8.315  12.741  22.239  0.00  0.00    +0.000 N 
ATOM     27  C   UNL     1       7.774  13.860  21.673  0.00  0.00    +0.000 C 
ATOM     28  O   UNL     1       8.327  14.640  20.912  0.00  0.00    +0.000 OA
ATOM     29  C   UNL     1       6.345  14.009  22.174  0.00  0.00    +0.000 C 
ATOM     30  N   UNL     1       6.246  12.867  23.036  0.00  0.00    +0.000 N 
ATOM     31  C   UNL     1       7.421  12.149  23.076  0.00  0.00    +0.000 C 
ATOM     32  O   UNL     1       7.594  11.168  23.777  0.00  0.00    +0.000 OA
ATOM     33  H   UNL     1       5.457  12.615  23.617  0.00  0.00    +0.000 HD
ENDBRANCH  25  26
ENDBRANCH  23  25
ENDBRANCH   2  19
TORSDOF 6
ENDMDL
MODEL 4
REMARK VINA RESULT:      -8.7      2.881      4.141
REMARK  Name = 
REMARK  6 active torsions:
REMARK  status: ('A' for Active; 'I' for Inactive)
REMARK    1  A    between atoms: C_2  and  C_17
REMARK    2  A    between atoms: N_3  and  C_4
REMARK    3  A    between atoms: C_7  and  N_8
REMARK    4  A    between atoms: N_8  and  C_9
REMARK    5  A    between atoms: C_21  and  C_22
REMARK    6  A    between atoms: C_22  and  N_23
REMARK                            x       y       z     vdW  Elec       q    Type
REMARK                         _______ _______ _______ _____ _____    ______ ____
ROOT
ATOM      1  O   UNL     1       2.157   8.029  18.971  0.00  0.00    +0.000 OA
ATOM      2  C   UNL     1       2.011   7.286  19.935  0.00  0.00    +0.000 C 
ATOM      3  N   UNL     1       1.316   7.562  21.103  0.00  0.00    +0.000 N 
ATOM      4  H   UNL     1       1.450   6.939  21.888  0.00  0.00    +0.000 HD
ENDROOT
BRANCH   3   5
ATOM      5  C   UNL     1       0.626   8.764  21.361  0.00  0.00    +0.000 A 
ATOM      6  C   UNL     1       0.400   9.715  20.371  0.00  0.00    +0.000 A 
ATOM      7  C   UNL     1      -0.204  10.928  20.680  0.00  0.00    +0.000 A 
ATOM      8  C   UNL     1      -0.658  11.200  21.974  0.00  0.00    +0.000 A 
ATOM      9  C   UNL     1      -0.445  10.242  22.969  0.00  0.00    +0.000 A 
ATOM     10  C   UNL     1       0.174   9.020  22.660  0.00  0.00    +0.000 A 
BRANCH   8  11
ATOM     11  N   UNL     1      -1.273  12.436  22.293  0.00  0.00    +0.000 N 
ATOM     12  H   UNL     1      -0.863  13.178  21.733  0.00  0.00    +0.000 HD
BRANCH  11  13
ATOM     13  C   UNL     1      -2.670  12.608  22.465  0.00  0.00    +0.000 A 
ATOM     14  C   UNL     1      -3.515  12.753  21.352  0.00  0.00    +0.000 A 
ATOM     15  C   UNL     1      -4.881  12.975  21.506  0.00  0.00    +0.000 A 
ATOM     16  C   UNL     1      -5.433  13.011  22.782  0.00  0.00    +0.000 A 
ATOM     17  C   UNL     1      -4.617  12.819  23.898  0.00  0.00    +0.000 A 
ATOM     18  C   UNL     1      -3.242  12.612  23.741  0.00  0.00    +0.000 A 
ENDBRANCH  11  13
ENDBRANCH   8  11
ENDBRANCH   3   5
BRANCH   2  19
ATOM     19  C   UNL     1       2.702   5.976  19.890  0.00  0.00    +0.000 A 
ATOM     20  C   UNL     1       2.180   4.846  20.526  0.00  0.00    +0.000 A 
ATOM     21  C   UNL     1       2.860   3.634  20.434  0.00  0.00    +0.000 A 
ATOM     22  C   UNL     1       4.037   3.541  19.686  0.00  0.00    +0.000 A 
ATOM     23  C   UNL     1       4.537   4.654  18.996  0.00  0.00    +0.000 A 
ATOM     24  C   UNL     1       3.875   5.880  19.127  0.00  0.00    +0.000 A 
BRANCH  23  25
ATOM     25  C   UNL     1       5.751   4.535  18.104  0.00  0.00    +0.000 C 
BRANCH  25  26
ATOM     26  N   UNL     1       6.617   5.685  18.184  0.00  0.00    +0.000 N 
ATOM     27  C   UNL     1       6.701   6.670  17.241  0.00  0.00    +0.000 C 
ATOM     28  O   UNL     1       6.049   6.759  16.211  0.00  0.00    +0.000 OA
ATOM     29  C   UNL     1       7.784   7.650  17.667  0.00  0.00    +0.000 C 
ATOM     30  N   UNL     1       8.219   7.048  18.894  0.00  0.00    +0.000 N 
ATOM     31  C   UNL     1       7.536   5.885  19.166  0.00  0.00    +0.000 C 
ATOM     32  O   UNL     1       7.766   5.172  20.127  0.00  0.00    +0.000 OA
ATOM     33  H   UNL     1       8.977   7.365  19.485  0.00  0.00    +0.000 HD
ENDBRANCH  25  26
ENDBRANCH  23  25
ENDBRANCH   2  19
TORSDOF 6
ENDMDL
MODEL 5
REMARK VINA RESULT:      -8.7      0.393      1.368
REMARK  Name = 
REMARK  6 active torsions:
REMARK  status: ('A' for Active; 'I' for Inactive)
REMARK    1  A    between atoms: C_2  and  C_17
REMARK    2  A    between atoms: N_3  and  C_4
REMARK    3  A    between atoms: C_7  and  N_8
REMARK    4  A    between atoms: N_8  and  C_9
REMARK    5  A    between atoms: C_21  and  C_22
REMARK    6  A    between atoms: C_22  and  N_23
REMARK                            x       y       z     vdW  Elec       q    Type
REMARK                         _______ _______ _______ _____ _____    ______ ____
ROOT
ATOM      1  O   UNL     1       2.031   7.884  19.760  0.00  0.00    +0.000 OA
ATOM      2  C   UNL     1       2.256   7.986  18.560  0.00  0.00    +0.000 C 
ATOM      3  N   UNL     1       1.786   8.971  17.704  0.00  0.00    +0.000 N 
ATOM      4  H   UNL     1       1.885   8.816  16.710  0.00  0.00    +0.000 HD
ENDROOT
BRANCH   3   5
ATOM      5  C   UNL     1       0.974  10.055  18.097  0.00  0.00    +0.000 A 
ATOM      6  C   UNL     1       1.511  11.260  18.540  0.00  0.00    +0.000 A 
ATOM      7  C   UNL     1       0.683  12.275  19.005  0.00  0.00    +0.000 A 
ATOM      8  C   UNL     1      -0.708  12.140  18.980  0.00  0.00    +0.000 A 
ATOM      9  C   UNL     1      -1.252  10.936  18.524  0.00  0.00    +0.000 A 
ATOM     10  C   UNL     1      -0.417   9.906  18.064  0.00  0.00    +0.000 A 
BRANCH   8  11
ATOM     11  N   UNL     1      -1.556  13.171  19.454  0.00  0.00    +0.000 N 
ATOM     12  H   UNL     1      -2.041  13.604  18.673  0.00  0.00    +0.000 HD
BRANCH  11  13
ATOM     13  C   UNL     1      -2.387  13.055  20.597  0.00  0.00    +0.000 A 
ATOM     14  C   UNL     1      -1.832  13.053  21.888  0.00  0.00    +0.000 A 
ATOM     15  C   UNL     1      -2.630  12.888  23.018  0.00  0.00    +0.000 A 
ATOM     16  C   UNL     1      -4.008  12.764  22.875  0.00  0.00    +0.000 A 
ATOM     17  C   UNL     1      -4.582  12.814  21.605  0.00  0.00    +0.000 A 
ATOM     18  C   UNL     1      -3.777  12.965  20.470  0.00  0.00    +0.000 A 
ENDBRANCH  11  13
ENDBRANCH   8  11
ENDBRANCH   3   5
BRANCH   2  19
ATOM     19  C   UNL     1       3.060   6.913  17.929  0.00  0.00    +0.000 A 
ATOM     20  C   UNL     1       4.251   7.187  17.252  0.00  0.00    +0.000 A 
ATOM     21  C   UNL     1       4.978   6.138  16.694  0.00  0.00    +0.000 A 
ATOM     22  C   UNL     1       4.536   4.819  16.839  0.00  0.00    +0.000 A 
ATOM     23  C   UNL     1       3.374   4.529  17.567  0.00  0.00    +0.000 A 
ATOM     24  C   UNL     1       2.624   5.589  18.087  0.00  0.00    +0.000 A 
BRANCH  23  25
ATOM     25  C   UNL     1       2.948   3.101  17.813  0.00  0.00    +0.000 C 
BRANCH  25  26
ATOM     26  N   UNL     1       2.627   2.845  19.196  0.00  0.00    +0.000 N 
ATOM     27  C   UNL     1       3.543   2.687  20.196  0.00  0.00    +0.000 C 
ATOM     28  O   UNL     1       4.759   2.766  20.099  0.00  0.00    +0.000 OA
ATOM     29  C   UNL     1       2.798   2.357  21.481  0.00  0.00    +0.000 C 
ATOM     30  N   UNL     1       1.443   2.363  21.011  0.00  0.00    +0.000 N 
ATOM     31  C   UNL     1       1.367   2.631  19.663  0.00  0.00    +0.000 C 
ATOM     32  O   UNL     1       0.327   2.640  19.030  0.00  0.00    +0.000 OA
ATOM     33  H   UNL     1       0.616   2.138  21.550  0.00  0.00    +0.000 HD
ENDBRANCH  25  26
ENDBRANCH  23  25
ENDBRANCH   2  19
TORSDOF 6
ENDMDL
MODEL 6
REMARK VINA RESULT:      -8.6      1.497      1.851
REMARK  Name = 
REMARK  6 active torsions:
REMARK  status: ('A' for Active; 'I' for Inactive)
REMARK    1  A    between atoms: C_2  and  C_17
REMARK    2  A    between atoms: N_3  and  C_4
REMARK    3  A    between atoms: C_7  and  N_8
REMARK    4  A    between atoms: N_8  and  C_9
REMARK    5  A    between atoms: C_21  and  C_22
REMARK    6  A    between atoms: C_22  and  N_23
REMARK                            x       y       z     vdW  Elec       q    Type
REMARK                         _______ _______ _______ _____ _____    ______ ____
ROOT
ATOM      1  O   UNL     1       2.693   8.662  17.327  0.00  0.00    +0.000 OA
ATOM      2  C   UNL     1       2.691   7.686  18.070  0.00  0.00    +0.000 C 
ATOM      3  N   UNL     1       2.157   7.613  19.348  0.00  0.00    +0.000 N 
ATOM      4  H   UNL     1       2.406   6.815  19.915  0.00  0.00    +0.000 HD
ENDROOT
BRANCH   3   5
ATOM      5  C   UNL     1       1.491   8.670  20.001  0.00  0.00    +0.000 A 
ATOM      6  C   UNL     1       1.122   9.836  19.337  0.00  0.00    +0.000 A 
ATOM      7  C   UNL     1       0.548  10.894  20.031  0.00  0.00    +0.000 A 
ATOM      8  C   UNL     1       0.267  10.794  21.397  0.00  0.00    +0.000 A 
ATOM      9  C   UNL     1       0.625   9.620  22.066  0.00  0.00    +0.000 A 
ATOM     10  C   UNL     1       1.214   8.554  21.368  0.00  0.00    +0.000 A 
BRANCH   8  11
ATOM     11  N   UNL     1      -0.316  11.871  22.109  0.00  0.00    +0.000 N 
ATOM     12  H   UNL     1       0.254  12.706  21.997  0.00  0.00    +0.000 HD
BRANCH  11  13
ATOM     13  C   UNL     1      -1.702  12.169  22.104  0.00  0.00    +0.000 A 
ATOM     14  C   UNL     1      -2.351  12.538  20.914  0.00  0.00    +0.000 A 
ATOM     15  C   UNL     1      -3.700  12.884  20.903  0.00  0.00    +0.000 A 
ATOM     16  C   UNL     1      -4.436  12.823  22.082  0.00  0.00    +0.000 A 
ATOM     17  C   UNL     1      -3.821  12.410  23.264  0.00  0.00    +0.000 A 
ATOM     18  C   UNL     1      -2.461  12.078  23.275  0.00  0.00    +0.000 A 
ENDBRANCH  11  13
ENDBRANCH   8  11
ENDBRANCH   3   5
BRANCH   2  19
ATOM     19  C   UNL     1       3.388   6.470  17.591  0.00  0.00    +0.000 A 
ATOM     20  C   UNL     1       4.609   6.539  16.916  0.00  0.00    +0.000 A 
ATOM     21  C   UNL     1       5.232   5.362  16.505  0.00  0.00    +0.000 A 
ATOM     22  C   UNL     1       4.655   4.122  16.795  0.00  0.00    +0.000 A 
ATOM     23  C   UNL     1       3.460   4.040  17.522  0.00  0.00    +0.000 A 
ATOM     24  C   UNL     1       2.816   5.225  17.894  0.00  0.00    +0.000 A 
BRANCH  23  25
ATOM     25  C   UNL     1       2.886   2.702  17.926  0.00  0.00    +0.000 C 
BRANCH  25  26
ATOM     26  N   UNL     1       2.634   2.608  19.343  0.00  0.00    +0.000 N 
ATOM     27  C   UNL     1       1.409   2.736  19.931  0.00  0.00    +0.000 C 
ATOM     28  O   UNL     1       0.338   2.916  19.369  0.00  0.00    +0.000 OA
ATOM     29  C   UNL     1       1.589   2.651  21.439  0.00  0.00    +0.000 C 
ATOM     30  N   UNL     1       3.010   2.475  21.528  0.00  0.00    +0.000 N 
ATOM     31  C   UNL     1       3.605   2.475  20.286  0.00  0.00    +0.000 C 
ATOM     32  O   UNL     1       4.808   2.392  20.111  0.00  0.00    +0.000 OA
ATOM     33  H   UNL     1       3.560   2.423  22.375  0.00  0.00    +0.000 HD
ENDBRANCH  25  26
ENDBRANCH  23  25
ENDBRANCH   2  19
TORSDOF 6
ENDMDL
MODEL 7
REMARK VINA RESULT:      -8.6      2.736      4.133
REMARK  Name = 
REMARK  6 active torsions:
REMARK  status: ('A' for Active; 'I' for Inactive)
REMARK    1  A    between atoms: C_2  and  C_17
REMARK    2  A    between atoms: N_3  and  C_4
REMARK    3  A    between atoms: C_7  and  N_8
REMARK    4  A    between atoms: N_8  and  C_9
REMARK    5  A    between atoms: C_21  and  C_22
REMARK    6  A    between atoms: C_22  and  N_23
REMARK                            x       y       z     vdW  Elec       q    Type
REMARK                         _______ _______ _______ _____ _____    ______ ____
ROOT
ATOM      1  O   UNL     1       2.148   8.293  19.195  0.00  0.00    +0.000 OA
ATOM      2  C   UNL     1       1.826   7.459  20.033  0.00  0.00    +0.000 C 
ATOM      3  N   UNL     1       0.958   7.641  21.100  0.00  0.00    +0.000 N 
ATOM      4  H   UNL     1       0.945   6.932  21.821  0.00  0.00    +0.000 HD
ENDROOT
BRANCH   3   5
ATOM      5  C   UNL     1       0.271   8.839  21.380  0.00  0.00    +0.000 A 
ATOM      6  C   UNL     1      -0.119   9.720  20.376  0.00  0.00    +0.000 A 
ATOM      7  C   UNL     1      -0.715  10.935  20.694  0.00  0.00    +0.000 A 
ATOM      8  C   UNL     1      -0.997  11.277  22.020  0.00  0.00    +0.000 A 
ATOM      9  C   UNL     1      -0.618  10.389  23.030  0.00  0.00    +0.000 A 
ATOM     10  C   UNL     1      -0.007   9.166  22.712  0.00  0.00    +0.000 A 
BRANCH   8  11
ATOM     11  N   UNL     1      -1.602  12.515  22.348  0.00  0.00    +0.000 N 
ATOM     12  H   UNL     1      -1.268  13.239  21.717  0.00  0.00    +0.000 HD
BRANCH  11  13
ATOM     13  C   UNL     1      -2.978  12.671  22.655  0.00  0.00    +0.000 A 
ATOM     14  C   UNL     1      -3.424  12.614  23.986  0.00  0.00    +0.000 A 
ATOM     15  C   UNL     1      -4.778  12.713  24.299  0.00  0.00    +0.000 A 
ATOM     16  C   UNL     1      -5.706  12.915  23.283  0.00  0.00    +0.000 A 
ATOM     17  C   UNL     1      -5.276  13.025  21.961  0.00  0.00    +0.000 A 
ATOM     18  C   UNL     1      -3.917  12.909  21.647  0.00  0.00    +0.000 A 
ENDBRANCH  11  13
ENDBRANCH   8  11
ENDBRANCH   3   5
BRANCH   2  19
ATOM     19  C   UNL     1       2.476   6.130  19.950  0.00  0.00    +0.000 A 
ATOM     20  C   UNL     1       2.047   5.051  20.726  0.00  0.00    +0.000 A 
ATOM     21  C   UNL     1       2.681   3.817  20.594  0.00  0.00    +0.000 A 
ATOM     22  C   UNL     1       3.716   3.653  19.669  0.00  0.00    +0.000 A 
ATOM     23  C   UNL     1       4.115   4.714  18.844  0.00  0.00    +0.000 A 
ATOM     24  C   UNL     1       3.505   5.962  19.012  0.00  0.00    +0.000 A 
BRANCH  23  25
ATOM     25  C   UNL     1       5.162   4.515  17.773  0.00  0.00    +0.000 C 
BRANCH  25  26
ATOM     26  N   UNL     1       6.165   5.551  17.774  0.00  0.00    +0.000 N 
ATOM     27  C   UNL     1       7.065   5.769  18.778  0.00  0.00    +0.000 C 
ATOM     28  O   UNL     1       7.192   5.119  19.806  0.00  0.00    +0.000 OA
ATOM     29  C   UNL     1       7.888   6.998  18.426  0.00  0.00    +0.000 C 
ATOM     30  N   UNL     1       7.303   7.358  17.167  0.00  0.00    +0.000 N 
ATOM     31  C   UNL     1       6.279   6.508  16.815  0.00  0.00    +0.000 C 
ATOM     32  O   UNL     1       5.599   6.642  15.813  0.00  0.00    +0.000 OA
ATOM     33  H   UNL     1       7.533   8.166  16.604  0.00  0.00    +0.000 HD
ENDBRANCH  25  26
ENDBRANCH  23  25
ENDBRANCH   2  19
TORSDOF 6
ENDMDL
MODEL 8
REMARK VINA RESULT:      -8.6      6.335     10.298
REMARK  Name = 
REMARK  6 active torsions:
REMARK  status: ('A' for Active; 'I' for Inactive)
REMARK    1  A    between atoms: C_2  and  C_17
REMARK    2  A    between atoms: N_3  and  C_4
REMARK    3  A    between atoms: C_7  and  N_8
REMARK    4  A    between atoms: N_8  and  C_9
REMARK    5  A    between atoms: C_21  and  C_22
REMARK    6  A    between atoms: C_22  and  N_23
REMARK                            x       y       z     vdW  Elec       q    Type
REMARK                         _______ _______ _______ _____ _____    ______ ____
ROOT
ATOM      1  O   UNL     1       7.459   9.648  17.571  0.00  0.00    +0.000 OA
ATOM      2  C   UNL     1       8.387   9.271  18.277  0.00  0.00    +0.000 C 
ATOM      3  N   UNL     1       8.631   7.976  18.712  0.00  0.00    +0.000 N 
ATOM      4  H   UNL     1       9.311   7.849  19.449  0.00  0.00    +0.000 HD
ENDROOT
BRANCH   3   5
ATOM      5  C   UNL     1       7.843   6.856  18.379  0.00  0.00    +0.000 A 
ATOM      6  C   UNL     1       7.399   6.622  17.081  0.00  0.00    +0.000 A 
ATOM      7  C   UNL     1       6.550   5.558  16.805  0.00  0.00    +0.000 A 
ATOM      8  C   UNL     1       6.170   4.658  17.806  0.00  0.00    +0.000 A 
ATOM      9  C   UNL     1       6.624   4.882  19.109  0.00  0.00    +0.000 A 
ATOM     10  C   UNL     1       7.474   5.963  19.391  0.00  0.00    +0.000 A 
BRANCH   8  11
ATOM     11  N   UNL     1       5.303   3.573  17.529  0.00  0.00    +0.000 N 
ATOM     12  H   UNL     1       5.807   2.696  17.628  0.00  0.00    +0.000 HD
BRANCH  11  13
ATOM     13  C   UNL     1       3.971   3.477  18.006  0.00  0.00    +0.000 A 
ATOM     14  C   UNL     1       2.956   4.279  17.458  0.00  0.00    +0.000 A 
ATOM     15  C   UNL     1       1.654   4.234  17.952  0.00  0.00    +0.000 A 
ATOM     16  C   UNL     1       1.337   3.350  18.977  0.00  0.00    +0.000 A 
ATOM     17  C   UNL     1       2.320   2.510  19.499  0.00  0.00    +0.000 A 
ATOM     18  C   UNL     1       3.631   2.567  19.012  0.00  0.00    +0.000 A 
ENDBRANCH  11  13
ENDBRANCH   8  11
ENDBRANCH   3   5
BRANCH   2  19
ATOM     19  C   UNL     1       9.317  10.307  18.783  0.00  0.00    +0.000 A 
ATOM     20  C   UNL     1      10.279  10.898  17.959  0.00  0.00    +0.000 A 
ATOM     21  C   UNL     1      11.115  11.883  18.481  0.00  0.00    +0.000 A 
ATOM     22  C   UNL     1      10.971  12.299  19.808  0.00  0.00    +0.000 A 
ATOM     23  C   UNL     1       9.971  11.754  20.625  0.00  0.00    +0.000 A 
ATOM     24  C   UNL     1       9.163  10.734  20.110  0.00  0.00    +0.000 A 
BRANCH  23  25
ATOM     25  C   UNL     1       9.745  12.272  22.026  0.00  0.00    +0.000 C 
BRANCH  25  26
ATOM     26  N   UNL     1       8.415  12.794  22.220  0.00  0.00    +0.000 N 
ATOM     27  C   UNL     1       7.455  12.221  23.004  0.00  0.00    +0.000 C 
ATOM     28  O   UNL     1       7.566  11.211  23.683  0.00  0.00    +0.000 OA
ATOM     29  C   UNL     1       6.179  13.038  22.873  0.00  0.00    +0.000 C 
ATOM     30  N   UNL     1       6.605  14.052  21.953  0.00  0.00    +0.000 N 
ATOM     31  C   UNL     1       7.915  13.877  21.566  0.00  0.00    +0.000 C 
ATOM     32  O   UNL     1       8.483  14.584  20.753  0.00  0.00    +0.000 OA
ATOM     33  H   UNL     1       6.033  14.786  21.556  0.00  0.00    +0.000 HD
ENDBRANCH  25  26
ENDBRANCH  23  25
ENDBRANCH   2  19
TORSDOF 6
ENDMDL
MODEL 9
REMARK VINA RESULT:      -8.6      1.565      2.315
REMARK  Name = 
REMARK  6 active torsions:
REMARK  status: ('A' for Active; 'I' for Inactive)
REMARK    1  A    between atoms: C_2  and  C_17
REMARK    2  A    between atoms: N_3  and  C_4
REMARK    3  A    between atoms: C_7  and  N_8
REMARK    4  A    between atoms: N_8  and  C_9
REMARK    5  A    between atoms: C_21  and  C_22
REMARK    6  A    between atoms: C_22  and  N_23
REMARK                            x       y       z     vdW  Elec       q    Type
REMARK                         _______ _______ _______ _____ _____    ______ ____
ROOT
ATOM      1  O   UNL     1       2.709   8.698  17.333  0.00  0.00    +0.000 OA
ATOM      2  C   UNL     1       2.696   7.701  18.047  0.00  0.00    +0.000 C 
ATOM      3  N   UNL     1       2.151   7.594  19.318  0.00  0.00    +0.000 N 
ATOM      4  H   UNL     1       2.391   6.778  19.864  0.00  0.00    +0.000 HD
ENDROOT
BRANCH   3   5
ATOM      5  C   UNL     1       1.486   8.635  19.997  0.00  0.00    +0.000 A 
ATOM      6  C   UNL     1       1.120   9.817  19.362  0.00  0.00    +0.000 A 
ATOM      7  C   UNL     1       0.546  10.858  20.082  0.00  0.00    +0.000 A 
ATOM      8  C   UNL     1       0.264  10.724  21.445  0.00  0.00    +0.000 A 
ATOM      9  C   UNL     1       0.619   9.533  22.084  0.00  0.00    +0.000 A 
ATOM     10  C   UNL     1       1.207   8.484  21.360  0.00  0.00    +0.000 A 
BRANCH   8  11
ATOM     11  N   UNL     1      -0.319  11.784  22.183  0.00  0.00    +0.000 N 
ATOM     12  H   UNL     1       0.269  12.611  22.120  0.00  0.00    +0.000 HD
BRANCH  11  13
ATOM     13  C   UNL     1      -1.699  12.109  22.153  0.00  0.00    +0.000 A 
ATOM     14  C   UNL     1      -2.327  12.452  20.944  0.00  0.00    +0.000 A 
ATOM     15  C   UNL     1      -3.669  12.824  20.907  0.00  0.00    +0.000 A 
ATOM     16  C   UNL     1      -4.418  12.816  22.078  0.00  0.00    +0.000 A 
ATOM     17  C   UNL     1      -3.825  12.430  23.280  0.00  0.00    +0.000 A 
ATOM     18  C   UNL     1      -2.472  12.071  23.318  0.00  0.00    +0.000 A 
ENDBRANCH  11  13
ENDBRANCH   8  11
ENDBRANCH   3   5
BRANCH   2  19
ATOM     19  C   UNL     1       3.390   6.495  17.538  0.00  0.00    +0.000 A 
ATOM     20  C   UNL     1       4.583   6.583  16.816  0.00  0.00    +0.000 A 
ATOM     21  C   UNL     1       5.204   5.416  16.378  0.00  0.00    +0.000 A 
ATOM     22  C   UNL     1       4.656   4.167  16.687  0.00  0.00    +0.000 A 
ATOM     23  C   UNL     1       3.492   4.067  17.460  0.00  0.00    +0.000 A 
ATOM     24  C   UNL     1       2.847   5.243  17.860  0.00  0.00    +0.000 A 
BRANCH  23  25
ATOM     25  C   UNL     1       2.952   2.721  17.882  0.00  0.00    +0.000 C 
BRANCH  25  26
ATOM     26  N   UNL     1       2.563   2.686  19.270  0.00  0.00    +0.000 N 
ATOM     27  C   UNL     1       3.428   2.604  20.324  0.00  0.00    +0.000 C 
ATOM     28  O   UNL     1       4.649   2.579  20.274  0.00  0.00    +0.000 OA
ATOM     29  C   UNL     1       2.614   2.512  21.606  0.00  0.00    +0.000 C 
ATOM     30  N   UNL     1       1.281   2.551  21.078  0.00  0.00    +0.000 N 
ATOM     31  C   UNL     1       1.275   2.631  19.703  0.00  0.00    +0.000 C 
ATOM     32  O   UNL     1       0.262   2.627  19.028  0.00  0.00    +0.000 OA
ATOM     33  H   UNL     1       0.421   2.465  21.603  0.00  0.00    +0.000 HD
ENDBRANCH  25  26
ENDBRANCH  23  25
ENDBRANCH   2  19
TORSDOF 6
ENDMDL
