MODEL 1
REMARK VINA RESULT:      -8.3      0.000      0.000
REMARK  Name = 
REMARK  5 active torsions:
REMARK  status: ('A' for Active; 'I' for Inactive)
REMARK    1  A    between atoms: C_2  and  C_4
REMARK    2  A    between atoms: C_4  and  C_5
REMARK    3  A    between atoms: C_14  and  C_16
REMARK    4  A    between atoms: C_16  and  C_17
REMARK    5  A    between atoms: C_20  and  N_21
REMARK                            x       y       z     vdW  Elec       q    Type
REMARK                         _______ _______ _______ _____ _____    ______ ____
ROOT
ATOM      1  C   UNL     1      -1.407  11.892  19.710  0.00  0.00    +0.000 C 
ATOM      2  C   UNL     1      -0.669  11.762  21.078  0.00  0.00    +0.000 C 
ATOM      3  C   UNL     1       0.716  11.138  20.961  0.00  0.00    +0.000 C 
ATOM      4  N   UNL     1       0.632   9.841  20.309  0.00  0.00    +0.000 N 
ATOM      5  C   UNL     1       1.168   8.733  20.945  0.00  0.00    +0.000 C 
ATOM      6  O   UNL     1       1.727   8.824  22.045  0.00  0.00    +0.000 OA
ATOM      7  C   UNL     1       0.043   9.879  18.976  0.00  0.00    +0.000 C 
ATOM      8  C   UNL     1      -1.367  10.478  19.034  0.00  0.00    +0.000 C 
ENDROOT
BRANCH   1   9
ATOM      9  C   UNL     1      -2.870  12.374  19.918  0.00  0.00    +0.000 A 
ATOM     10  C   UNL     1      -3.898  12.014  19.026  0.00  0.00    +0.000 A 
ATOM     11  C   UNL     1      -5.227  12.395  19.248  0.00  0.00    +0.000 A 
ATOM     12  C   UNL     1      -5.559  13.171  20.352  0.00  0.00    +0.000 A 
ATOM     13  C   UNL     1      -4.557  13.583  21.221  0.00  0.00    +0.000 A 
ATOM     14  C   UNL     1      -3.230  13.197  21.004  0.00  0.00    +0.000 A 
ENDBRANCH   1   9
BRANCH   1  16
ATOM     15  N   UNL     1      -0.957  12.804  17.428  0.00  0.00    +0.000 N 
ATOM     16  C   UNL     1      -0.681  12.882  18.760  0.00  0.00    +0.000 C 
ATOM     17  O   UNL     1       0.131  13.720  19.148  0.00  0.00    +0.000 OA
ATOM     18  H   UNL     1      -0.409  13.413  16.831  0.00  0.00    +0.000 HD
ATOM     19  H   UNL     1      -1.343  11.973  17.003  0.00  0.00    +0.000 HD
ENDBRANCH   1  16
BRANCH   5  20
ATOM     20  C   UNL     1       1.072   7.369  20.277  0.00  0.00    +0.000 C 
BRANCH  20  21
ATOM     21  C   UNL     1       2.319   6.937  19.535  0.00  0.00    +0.000 A 
ATOM     22  C   UNL     1       3.080   5.833  19.949  0.00  0.00    +0.000 A 
ATOM     23  C   UNL     1       4.207   5.424  19.230  0.00  0.00    +0.000 A 
ATOM     24  C   UNL     1       4.584   6.109  18.069  0.00  0.00    +0.000 A 
ATOM     25  C   UNL     1       3.810   7.191  17.626  0.00  0.00    +0.000 A 
ATOM     26  C   UNL     1       2.682   7.594  18.351  0.00  0.00    +0.000 A 
BRANCH  24  27
ATOM     27  N   UNL     1       5.738   5.729  17.349  0.00  0.00    +0.000 N 
ATOM     28  C   UNL     1       6.498   4.592  17.450  0.00  0.00    +0.000 A 
ATOM     29  N   UNL     1       7.512   4.664  16.619  0.00  0.00    +0.000 NA
ATOM     30  N   UNL     1       7.377   5.865  15.976  0.00  0.00    +0.000 NA
ATOM     31  N   UNL     1       6.298   6.514  16.397  0.00  0.00    +0.000 NA
ENDBRANCH  24  27
ENDBRANCH  20  21
ENDBRANCH   5  20
TORSDOF 5
ENDMDL
MODEL 2
REMARK VINA RESULT:      -8.0      0.209      1.279
REMARK  Name = 
REMARK  5 active torsions:
REMARK  status: ('A' for Active; 'I' for Inactive)
REMARK    1  A    between atoms: C_2  and  C_4
REMARK    2  A    between atoms: C_4  and  C_5
REMARK    3  A    between atoms: C_14  and  C_16
REMARK    4  A    between atoms: C_16  and  C_17
REMARK    5  A    between atoms: C_20  and  N_21
REMARK                            x       y       z     vdW  Elec       q    Type
REMARK                         _______ _______ _______ _____ _____    ______ ____
ROOT
ATOM      1  C   UNL     1      -1.415  11.841  19.595  0.00  0.00    +0.000 C 
ATOM      2  C   UNL     1      -0.687  11.708  20.968  0.00  0.00    +0.000 C 
ATOM      3  C   UNL     1       0.702  11.090  20.859  0.00  0.00    +0.000 C 
ATOM      4  N   UNL     1       0.627   9.796  20.201  0.00  0.00    +0.000 N 
ATOM      5  C   UNL     1       1.163   8.687  20.837  0.00  0.00    +0.000 C 
ATOM      6  O   UNL     1       1.713   8.776  21.941  0.00  0.00    +0.000 OA
ATOM      7  C   UNL     1       0.048   9.837  18.864  0.00  0.00    +0.000 C 
ATOM      8  C   UNL     1      -1.365  10.430  18.914  0.00  0.00    +0.000 C 
ENDROOT
BRANCH   1   9
ATOM      9  C   UNL     1      -2.881  12.317  19.794  0.00  0.00    +0.000 A 
ATOM     10  C   UNL     1      -3.226  13.237  20.802  0.00  0.00    +0.000 A 
ATOM     11  C   UNL     1      -4.535  13.715  20.941  0.00  0.00    +0.000 A 
ATOM     12  C   UNL     1      -5.539  13.265  20.093  0.00  0.00    +0.000 A 
ATOM     13  C   UNL     1      -5.238  12.319  19.121  0.00  0.00    +0.000 A 
ATOM     14  C   UNL     1      -3.929  11.847  18.978  0.00  0.00    +0.000 A 
ENDBRANCH   1   9
BRANCH   1  16
ATOM     15  N   UNL     1      -0.984  12.793  17.325  0.00  0.00    +0.000 N 
ATOM     16  C   UNL     1      -0.686  12.838  18.655  0.00  0.00    +0.000 C 
ATOM     17  O   UNL     1       0.147  13.653  19.047  0.00  0.00    +0.000 OA
ATOM     18  H   UNL     1      -0.435  13.404  16.732  0.00  0.00    +0.000 HD
ATOM     19  H   UNL     1      -1.392  11.978  16.890  0.00  0.00    +0.000 HD
ENDBRANCH   1  16
BRANCH   5  20
ATOM     20  C   UNL     1       1.077   7.325  20.162  0.00  0.00    +0.000 C 
BRANCH  20  21
ATOM     21  C   UNL     1       2.302   6.934  19.364  0.00  0.00    +0.000 A 
ATOM     22  C   UNL     1       2.658   7.600  18.182  0.00  0.00    +0.000 A 
ATOM     23  C   UNL     1       3.815   7.252  17.478  0.00  0.00    +0.000 A 
ATOM     24  C   UNL     1       4.647   6.233  17.958  0.00  0.00    +0.000 A 
ATOM     25  C   UNL     1       4.319   5.585  19.158  0.00  0.00    +0.000 A 
ATOM     26  C   UNL     1       3.161   5.941  19.857  0.00  0.00    +0.000 A 
BRANCH  24  27
ATOM     27  N   UNL     1       5.802   5.847  17.242  0.00  0.00    +0.000 N 
ATOM     28  C   UNL     1       6.324   4.597  17.031  0.00  0.00    +0.000 A 
ATOM     29  N   UNL     1       7.439   4.696  16.345  0.00  0.00    +0.000 NA
ATOM     30  N   UNL     1       7.611   6.034  16.111  0.00  0.00    +0.000 NA
ATOM     31  N   UNL     1       6.619   6.742  16.635  0.00  0.00    +0.000 NA
ENDBRANCH  24  27
ENDBRANCH  20  21
ENDBRANCH   5  20
TORSDOF 5
ENDMDL
MODEL 3
REMARK VINA RESULT:      -8.0      4.295      6.965
REMARK  Name = 
REMARK  5 active torsions:
REMARK  status: ('A' for Active; 'I' for Inactive)
REMARK    1  A    between atoms: C_2  and  C_4
REMARK    2  A    between atoms: C_4  and  C_5
REMARK    3  A    between atoms: C_14  and  C_16
REMARK    4  A    between atoms: C_16  and  C_17
REMARK    5  A    between atoms: C_20  and  N_21
REMARK                            x       y       z     vdW  Elec       q    Type
REMARK                         _______ _______ _______ _____ _____    ______ ____
ROOT
ATOM      1  C   UNL     1       2.509   5.958  19.422  0.00  0.00    +0.000 C 
ATOM      2  C   UNL     1       2.365   5.590  17.914  0.00  0.00    +0.000 C 
ATOM      3  C   UNL     1       3.099   4.311  17.530  0.00  0.00    +0.000 C 
ATOM      4  N   UNL     1       4.504   4.407  17.893  0.00  0.00    +0.000 N 
ATOM      5  C   UNL     1       5.467   4.187  16.921  0.00  0.00    +0.000 C 
ATOM      6  O   UNL     1       5.158   3.899  15.758  0.00  0.00    +0.000 OA
ATOM      7  C   UNL     1       4.739   4.652  19.311  0.00  0.00    +0.000 C 
ATOM      8  C   UNL     1       4.042   5.944  19.751  0.00  0.00    +0.000 C 
ENDROOT
BRANCH   1   9
ATOM      9  C   UNL     1       1.885   7.352  19.710  0.00  0.00    +0.000 A 
ATOM     10  C   UNL     1       1.840   8.356  18.725  0.00  0.00    +0.000 A 
ATOM     11  C   UNL     1       1.221   9.589  18.965  0.00  0.00    +0.000 A 
ATOM     12  C   UNL     1       0.655   9.861  20.204  0.00  0.00    +0.000 A 
ATOM     13  C   UNL     1       0.728   8.906  21.211  0.00  0.00    +0.000 A 
ATOM     14  C   UNL     1       1.342   7.672  20.970  0.00  0.00    +0.000 A 
ENDBRANCH   1   9
BRANCH   1  16
ATOM     15  N   UNL     1       2.435   4.596  21.517  0.00  0.00    +0.000 N 
ATOM     16  C   UNL     1       1.828   4.903  20.335  0.00  0.00    +0.000 C 
ATOM     17  O   UNL     1       0.781   4.330  20.043  0.00  0.00    +0.000 OA
ATOM     18  H   UNL     1       2.004   3.851  22.050  0.00  0.00    +0.000 HD
ATOM     19  H   UNL     1       3.417   4.768  21.680  0.00  0.00    +0.000 HD
ENDBRANCH   1  16
BRANCH   5  20
ATOM     20  C   UNL     1       6.939   4.300  17.289  0.00  0.00    +0.000 C 
BRANCH  20  21
ATOM     21  C   UNL     1       7.410   5.706  17.594  0.00  0.00    +0.000 A 
ATOM     22  C   UNL     1       7.135   6.780  16.736  0.00  0.00    +0.000 A 
ATOM     23  C   UNL     1       7.544   8.080  17.052  0.00  0.00    +0.000 A 
ATOM     24  C   UNL     1       8.227   8.327  18.249  0.00  0.00    +0.000 A 
ATOM     25  C   UNL     1       8.476   7.266  19.131  0.00  0.00    +0.000 A 
ATOM     26  C   UNL     1       8.062   5.969  18.808  0.00  0.00    +0.000 A 
BRANCH  24  27
ATOM     27  N   UNL     1       8.676   9.628  18.569  0.00  0.00    +0.000 N 
ATOM     28  C   UNL     1       9.288  10.088  19.706  0.00  0.00    +0.000 A 
ATOM     29  N   UNL     1       9.496  11.380  19.602  0.00  0.00    +0.000 NA
ATOM     30  N   UNL     1       9.016  11.733  18.369  0.00  0.00    +0.000 NA
ATOM     31  N   UNL     1       8.530  10.679  17.726  0.00  0.00    +0.000 NA
ENDBRANCH  24  27
ENDBRANCH  20  21
ENDBRANCH   5  20
TORSDOF 5
ENDMDL
MODEL 4
REMARK VINA RESULT:      -8.0      4.361      7.045
REMARK  Name = 
REMARK  5 active torsions:
REMARK  status: ('A' for Active; 'I' for Inactive)
REMARK    1  A    between atoms: C_2  and  C_4
REMARK    2  A    between atoms: C_4  and  C_5
REMARK    3  A    between atoms: C_14  and  C_16
REMARK    4  A    between atoms: C_16  and  C_17
REMARK    5  A    between atoms: C_20  and  N_21
REMARK                            x       y       z     vdW  Elec       q    Type
REMARK                         _______ _______ _______ _____ _____    ______ ____
ROOT
ATOM      1  C   UNL     1       2.497   5.905  19.425  0.00  0.00    +0.000 C 
ATOM      2  C   UNL     1       2.351   5.540  17.916  0.00  0.00    +0.000 C 
ATOM      3  C   UNL     1       3.090   4.266  17.527  0.00  0.00    +0.000 C 
ATOM      4  N   UNL     1       4.495   4.368  17.887  0.00  0.00    +0.000 N 
ATOM      5  C   UNL     1       5.456   4.155  16.911  0.00  0.00    +0.000 C 
ATOM      6  O   UNL     1       5.146   3.869  15.748  0.00  0.00    +0.000 OA
ATOM      7  C   UNL     1       4.733   4.610  19.304  0.00  0.00    +0.000 C 
ATOM      8  C   UNL     1       4.031   5.898  19.750  0.00  0.00    +0.000 C 
ENDROOT
BRANCH   1   9
ATOM      9  C   UNL     1       1.867   7.295  19.719  0.00  0.00    +0.000 A 
ATOM     10  C   UNL     1       1.326   7.606  20.981  0.00  0.00    +0.000 A 
ATOM     11  C   UNL     1       0.816   8.879  21.266  0.00  0.00    +0.000 A 
ATOM     12  C   UNL     1       0.808   9.866  20.287  0.00  0.00    +0.000 A 
ATOM     13  C   UNL     1       1.289   9.571  19.018  0.00  0.00    +0.000 A 
ATOM     14  C   UNL     1       1.804   8.302  18.736  0.00  0.00    +0.000 A 
ENDBRANCH   1   9
BRANCH   1  16
ATOM     15  N   UNL     1       2.418   4.562  21.531  0.00  0.00    +0.000 N 
ATOM     16  C   UNL     1       1.824   4.845  20.338  0.00  0.00    +0.000 C 
ATOM     17  O   UNL     1       0.793   4.246  20.034  0.00  0.00    +0.000 OA
ATOM     18  H   UNL     1       1.995   3.812  22.065  0.00  0.00    +0.000 HD
ATOM     19  H   UNL     1       3.394   4.756  21.709  0.00  0.00    +0.000 HD
ENDBRANCH   1  16
BRANCH   5  20
ATOM     20  C   UNL     1       6.928   4.274  17.275  0.00  0.00    +0.000 C 
BRANCH  20  21
ATOM     21  C   UNL     1       7.394   5.682  17.580  0.00  0.00    +0.000 A 
ATOM     22  C   UNL     1       7.102   6.758  16.730  0.00  0.00    +0.000 A 
ATOM     23  C   UNL     1       7.507   8.059  17.046  0.00  0.00    +0.000 A 
ATOM     24  C   UNL     1       8.202   8.306  18.236  0.00  0.00    +0.000 A 
ATOM     25  C   UNL     1       8.468   7.243  19.110  0.00  0.00    +0.000 A 
ATOM     26  C   UNL     1       8.059   5.944  18.787  0.00  0.00    +0.000 A 
BRANCH  24  27
ATOM     27  N   UNL     1       8.646   9.608  18.555  0.00  0.00    +0.000 N 
ATOM     28  C   UNL     1       8.576  10.763  17.818  0.00  0.00    +0.000 A 
ATOM     29  N   UNL     1       9.151  11.742  18.478  0.00  0.00    +0.000 NA
ATOM     30  N   UNL     1       9.578  11.192  19.657  0.00  0.00    +0.000 NA
ATOM     31  N   UNL     1       9.265   9.904  19.724  0.00  0.00    +0.000 NA
ENDBRANCH  24  27
ENDBRANCH  20  21
ENDBRANCH   5  20
TORSDOF 5
ENDMDL
MODEL 5
REMARK VINA RESULT:      -8.0      4.307      6.935
REMARK  Name = 
REMARK  5 active torsions:
REMARK  status: ('A' for Active; 'I' for Inactive)
REMARK    1  A    between atoms: C_2  and  C_4
REMARK    2  A    between atoms: C_4  and  C_5
REMARK    3  A    between atoms: C_14  and  C_16
REMARK    4  A    between atoms: C_16  and  C_17
REMARK    5  A    between atoms: C_20  and  N_21
REMARK                            x       y       z     vdW  Elec       q    Type
REMARK                         _______ _______ _______ _____ _____    ______ ____
ROOT
ATOM      1  C   UNL     1       2.480   5.931  19.425  0.00  0.00    +0.000 C 
ATOM      2  C   UNL     1       2.318   5.562  17.919  0.00  0.00    +0.000 C 
ATOM      3  C   UNL     1       3.052   4.284  17.527  0.00  0.00    +0.000 C 
ATOM      4  N   UNL     1       4.461   4.386  17.872  0.00  0.00    +0.000 N 
ATOM      5  C   UNL     1       5.412   4.169  16.888  0.00  0.00    +0.000 C 
ATOM      6  O   UNL     1       5.090   3.879  15.730  0.00  0.00    +0.000 OA
ATOM      7  C   UNL     1       4.713   4.633  19.287  0.00  0.00    +0.000 C 
ATOM      8  C   UNL     1       4.016   5.923  19.734  0.00  0.00    +0.000 C 
ENDROOT
BRANCH   1   9
ATOM      9  C   UNL     1       1.854   7.323  19.720  0.00  0.00    +0.000 A 
ATOM     10  C   UNL     1       1.818   8.336  18.743  0.00  0.00    +0.000 A 
ATOM     11  C   UNL     1       1.198   9.568  18.988  0.00  0.00    +0.000 A 
ATOM     12  C   UNL     1       0.621   9.829  20.225  0.00  0.00    +0.000 A 
ATOM     13  C   UNL     1       0.686   8.866  21.224  0.00  0.00    +0.000 A 
ATOM     14  C   UNL     1       1.300   7.633  20.977  0.00  0.00    +0.000 A 
ENDBRANCH   1   9
BRANCH   1  16
ATOM     15  N   UNL     1       2.430   4.581  21.527  0.00  0.00    +0.000 N 
ATOM     16  C   UNL     1       1.814   4.875  20.347  0.00  0.00    +0.000 C 
ATOM     17  O   UNL     1       0.770   4.290  20.063  0.00  0.00    +0.000 OA
ATOM     18  H   UNL     1       2.009   3.834  22.067  0.00  0.00    +0.000 HD
ATOM     19  H   UNL     1       3.411   4.763  21.684  0.00  0.00    +0.000 HD
ENDBRANCH   1  16
BRANCH   5  20
ATOM     20  C   UNL     1       6.888   4.287  17.238  0.00  0.00    +0.000 C 
BRANCH  20  21
ATOM     21  C   UNL     1       7.340   5.681  17.618  0.00  0.00    +0.000 A 
ATOM     22  C   UNL     1       8.037   5.933  18.809  0.00  0.00    +0.000 A 
ATOM     23  C   UNL     1       8.481   7.220  19.128  0.00  0.00    +0.000 A 
ATOM     24  C   UNL     1       8.245   8.280  18.244  0.00  0.00    +0.000 A 
ATOM     25  C   UNL     1       7.581   8.033  17.034  0.00  0.00    +0.000 A 
ATOM     26  C   UNL     1       7.141   6.742  16.722  0.00  0.00    +0.000 A 
BRANCH  24  27
ATOM     27  N   UNL     1       8.659   9.592  18.565  0.00  0.00    +0.000 N 
ATOM     28  C   UNL     1       8.566  10.745  17.827  0.00  0.00    +0.000 A 
ATOM     29  N   UNL     1       9.116  11.737  18.488  0.00  0.00    +0.000 NA
ATOM     30  N   UNL     1       9.551  11.196  19.669  0.00  0.00    +0.000 NA
ATOM     31  N   UNL     1       9.267   9.902  19.735  0.00  0.00    +0.000 NA
ENDBRANCH  24  27
ENDBRANCH  20  21
ENDBRANCH   5  20
TORSDOF 5
ENDMDL
MODEL 6
REMARK VINA RESULT:      -7.7      0.894      1.052
REMARK  Name = 
REMARK  5 active torsions:
REMARK  status: ('A' for Active; 'I' for Inactive)
REMARK    1  A    between atoms: C_2  and  C_4
REMARK    2  A    between atoms: C_4  and  C_5
REMARK    3  A    between atoms: C_14  and  C_16
REMARK    4  A    between atoms: C_16  and  C_17
REMARK    5  A    between atoms: C_20  and  N_21
REMARK                            x       y       z     vdW  Elec       q    Type
REMARK                         _______ _______ _______ _____ _____    ______ ____
ROOT
ATOM      1  C   UNL     1      -1.301  11.850  19.835  0.00  0.00    +0.000 C 
ATOM      2  C   UNL     1      -0.527  11.499  21.142  0.00  0.00    +0.000 C 
ATOM      3  C   UNL     1       0.858  10.916  20.887  0.00  0.00    +0.000 C 
ATOM      4  N   UNL     1       0.763   9.747  20.028  0.00  0.00    +0.000 N 
ATOM      5  C   UNL     1       1.321   8.552  20.454  0.00  0.00    +0.000 C 
ATOM      6  O   UNL     1       1.908   8.462  21.539  0.00  0.00    +0.000 OA
ATOM      7  C   UNL     1       0.139  10.004  18.736  0.00  0.00    +0.000 C 
ATOM      8  C   UNL     1      -1.272  10.571  18.930  0.00  0.00    +0.000 C 
ENDROOT
BRANCH   1   9
ATOM      9  C   UNL     1      -2.760  12.278  20.158  0.00  0.00    +0.000 A 
ATOM     10  C   UNL     1      -3.803  12.094  19.231  0.00  0.00    +0.000 A 
ATOM     11  C   UNL     1      -5.128  12.420  19.546  0.00  0.00    +0.000 A 
ATOM     12  C   UNL     1      -5.441  12.964  20.785  0.00  0.00    +0.000 A 
ATOM     13  C   UNL     1      -4.424  13.203  21.701  0.00  0.00    +0.000 A 
ATOM     14  C   UNL     1      -3.101  12.871  21.390  0.00  0.00    +0.000 A 
ENDBRANCH   1   9
BRANCH   1  16
ATOM     15  N   UNL     1       0.042  13.957  19.762  0.00  0.00    +0.000 N 
ATOM     16  C   UNL     1      -0.605  12.993  19.048  0.00  0.00    +0.000 C 
ATOM     17  O   UNL     1      -0.617  13.074  17.821  0.00  0.00    +0.000 OA
ATOM     18  H   UNL     1       0.418  14.726  19.221  0.00  0.00    +0.000 HD
ATOM     19  H   UNL     1      -0.165  14.140  20.734  0.00  0.00    +0.000 HD
ENDBRANCH   1  16
BRANCH   5  20
ATOM     20  C   UNL     1       1.214   7.320  19.568  0.00  0.00    +0.000 C 
BRANCH  20  21
ATOM     21  C   UNL     1       2.539   6.755  19.103  0.00  0.00    +0.000 A 
ATOM     22  C   UNL     1       3.134   5.652  19.733  0.00  0.00    +0.000 A 
ATOM     23  C   UNL     1       4.340   5.119  19.267  0.00  0.00    +0.000 A 
ATOM     24  C   UNL     1       4.966   5.677  18.146  0.00  0.00    +0.000 A 
ATOM     25  C   UNL     1       4.361   6.757  17.487  0.00  0.00    +0.000 A 
ATOM     26  C   UNL     1       3.154   7.284  17.959  0.00  0.00    +0.000 A 
BRANCH  24  27
ATOM     27  N   UNL     1       6.200   5.171  17.681  0.00  0.00    +0.000 N 
ATOM     28  C   UNL     1       6.661   5.029  16.398  0.00  0.00    +0.000 A 
ATOM     29  N   UNL     1       7.850   4.472  16.416  0.00  0.00    +0.000 NA
ATOM     30  N   UNL     1       8.144   4.274  17.738  0.00  0.00    +0.000 NA
ATOM     31  N   UNL     1       7.160   4.706  18.517  0.00  0.00    +0.000 NA
ENDBRANCH  24  27
ENDBRANCH  20  21
ENDBRANCH   5  20
TORSDOF 5
ENDMDL
MODEL 7
REMARK VINA RESULT:      -7.6      6.941     10.338
REMARK  Name = 
REMARK  5 active torsions:
REMARK  status: ('A' for Active; 'I' for Inactive)
REMARK    1  A    between atoms: C_2  and  C_4
REMARK    2  A    between atoms: C_4  and  C_5
REMARK    3  A    between atoms: C_14  and  C_16
REMARK    4  A    between atoms: C_16  and  C_17
REMARK    5  A    between atoms: C_20  and  N_21
REMARK                            x       y       z     vdW  Elec       q    Type
REMARK                         _______ _______ _______ _____ _____    ______ ____
ROOT
ATOM      1  C   UNL     1       6.017   5.404  17.899  0.00  0.00    +0.000 C 
ATOM      2  C   UNL     1       5.707   6.723  17.128  0.00  0.00    +0.000 C 
ATOM      3  C   UNL     1       6.956   7.487  16.707  0.00  0.00    +0.000 C 
ATOM      4  N   UNL     1       7.791   7.765  17.864  0.00  0.00    +0.000 N 
ATOM      5  C   UNL     1       8.167   9.074  18.123  0.00  0.00    +0.000 C 
ATOM      6  O   UNL     1       7.820  10.005  17.386  0.00  0.00    +0.000 OA
ATOM      7  C   UNL     1       8.216   6.577  18.595  0.00  0.00    +0.000 C 
ATOM      8  C   UNL     1       6.996   5.778  19.066  0.00  0.00    +0.000 C 
ENDROOT
BRANCH   1   9
ATOM      9  C   UNL     1       4.710   4.764  18.445  0.00  0.00    +0.000 A 
ATOM     10  C   UNL     1       3.443   5.263  18.089  0.00  0.00    +0.000 A 
ATOM     11  C   UNL     1       2.264   4.648  18.529  0.00  0.00    +0.000 A 
ATOM     12  C   UNL     1       2.322   3.535  19.359  0.00  0.00    +0.000 A 
ATOM     13  C   UNL     1       3.559   3.051  19.766  0.00  0.00    +0.000 A 
ATOM     14  C   UNL     1       4.736   3.662  19.322  0.00  0.00    +0.000 A 
ENDBRANCH   1   9
BRANCH   1  16
ATOM     15  N   UNL     1       5.996   3.675  16.095  0.00  0.00    +0.000 N 
ATOM     16  C   UNL     1       6.744   4.371  16.997  0.00  0.00    +0.000 C 
ATOM     17  O   UNL     1       7.951   4.145  17.063  0.00  0.00    +0.000 OA
ATOM     18  H   UNL     1       6.489   2.957  15.578  0.00  0.00    +0.000 HD
ATOM     19  H   UNL     1       4.997   3.565  16.192  0.00  0.00    +0.000 HD
ENDBRANCH   1  16
BRANCH   5  20
ATOM     20  C   UNL     1       9.028   9.377  19.340  0.00  0.00    +0.000 C 
BRANCH  20  21
ATOM     21  C   UNL     1       9.580  10.785  19.392  0.00  0.00    +0.000 A 
ATOM     22  C   UNL     1      10.452  11.274  18.409  0.00  0.00    +0.000 A 
ATOM     23  C   UNL     1      10.923  12.591  18.450  0.00  0.00    +0.000 A 
ATOM     24  C   UNL     1      10.511  13.448  19.478  0.00  0.00    +0.000 A 
ATOM     25  C   UNL     1       9.611  12.981  20.446  0.00  0.00    +0.000 A 
ATOM     26  C   UNL     1       9.144  11.663  20.396  0.00  0.00    +0.000 A 
BRANCH  24  27
ATOM     27  N   UNL     1      11.001  14.771  19.553  0.00  0.00    +0.000 N 
ATOM     28  C   UNL     1      10.389  15.907  20.018  0.00  0.00    +0.000 A 
ATOM     29  N   UNL     1      11.192  16.934  19.864  0.00  0.00    +0.000 NA
ATOM     30  N   UNL     1      12.333  16.430  19.301  0.00  0.00    +0.000 NA
ATOM     31  N   UNL     1      12.238  15.118  19.122  0.00  0.00    +0.000 NA
ENDBRANCH  24  27
ENDBRANCH  20  21
ENDBRANCH   5  20
TORSDOF 5
ENDMDL
MODEL 8
REMARK VINA RESULT:      -7.5      3.381      4.786
REMARK  Name = 
REMARK  5 active torsions:
REMARK  status: ('A' for Active; 'I' for Inactive)
REMARK    1  A    between atoms: C_2  and  C_4
REMARK    2  A    between atoms: C_4  and  C_5
REMARK    3  A    between atoms: C_14  and  C_16
REMARK    4  A    between atoms: C_16  and  C_17
REMARK    5  A    between atoms: C_20  and  N_21
REMARK                            x       y       z     vdW  Elec       q    Type
REMARK                         _______ _______ _______ _____ _____    ______ ____
ROOT
ATOM      1  C   UNL     1       0.616  14.254  19.321  0.00  0.00    +0.000 C 
ATOM      2  C   UNL     1      -0.560  13.437  18.704  0.00  0.00    +0.000 C 
ATOM      3  C   UNL     1      -0.606  11.989  19.179  0.00  0.00    +0.000 C 
ATOM      4  N   UNL     1       0.662  11.330  18.909  0.00  0.00    +0.000 N 
ATOM      5  C   UNL     1       0.665  10.151  18.180  0.00  0.00    +0.000 C 
ATOM      6  O   UNL     1      -0.384   9.643  17.767  0.00  0.00    +0.000 OA
ATOM      7  C   UNL     1       1.814  11.971  19.532  0.00  0.00    +0.000 C 
ATOM      8  C   UNL     1       1.925  13.429  19.072  0.00  0.00    +0.000 C 
ENDROOT
BRANCH   1   9
ATOM      9  C   UNL     1       0.707  15.663  18.672  0.00  0.00    +0.000 A 
ATOM     10  C   UNL     1      -0.438  16.459  18.477  0.00  0.00    +0.000 A 
ATOM     11  C   UNL     1      -0.348  17.754  17.951  0.00  0.00    +0.000 A 
ATOM     12  C   UNL     1       0.885  18.276  17.580  0.00  0.00    +0.000 A 
ATOM     13  C   UNL     1       2.025  17.494  17.715  0.00  0.00    +0.000 A 
ATOM     14  C   UNL     1       1.936  16.203  18.247  0.00  0.00    +0.000 A 
ENDBRANCH   1   9
BRANCH   1  16
ATOM     15  N   UNL     1       1.571  14.698  21.588  0.00  0.00    +0.000 N 
ATOM     16  C   UNL     1       0.455  14.417  20.857  0.00  0.00    +0.000 C 
ATOM     17  O   UNL     1      -0.620  14.298  21.441  0.00  0.00    +0.000 OA
ATOM     18  H   UNL     1       1.442  14.722  22.592  0.00  0.00    +0.000 HD
ATOM     19  H   UNL     1       2.502  14.500  21.250  0.00  0.00    +0.000 HD
ENDBRANCH   1  16
BRANCH   5  20
ATOM     20  C   UNL     1       1.988   9.462  17.880  0.00  0.00    +0.000 C 
BRANCH  20  21
ATOM     21  C   UNL     1       2.184   8.134  18.580  0.00  0.00    +0.000 A 
ATOM     22  C   UNL     1       1.813   7.943  19.919  0.00  0.00    +0.000 A 
ATOM     23  C   UNL     1       1.965   6.699  20.540  0.00  0.00    +0.000 A 
ATOM     24  C   UNL     1       2.482   5.616  19.818  0.00  0.00    +0.000 A 
ATOM     25  C   UNL     1       2.823   5.787  18.470  0.00  0.00    +0.000 A 
ATOM     26  C   UNL     1       2.667   7.035  17.856  0.00  0.00    +0.000 A 
BRANCH  24  27
ATOM     27  N   UNL     1       2.672   4.361  20.439  0.00  0.00    +0.000 N 
ATOM     28  C   UNL     1       2.092   3.846  21.570  0.00  0.00    +0.000 A 
ATOM     29  N   UNL     1       2.589   2.656  21.818  0.00  0.00    +0.000 NA
ATOM     30  N   UNL     1       3.489   2.416  20.814  0.00  0.00    +0.000 NA
ATOM     31  N   UNL     1       3.538   3.434  19.963  0.00  0.00    +0.000 NA
ENDBRANCH  24  27
ENDBRANCH  20  21
ENDBRANCH   5  20
TORSDOF 5
ENDMDL
MODEL 9
REMARK VINA RESULT:      -7.4      3.356      4.678
REMARK  Name = 
REMARK  5 active torsions:
REMARK  status: ('A' for Active; 'I' for Inactive)
REMARK    1  A    between atoms: C_2  and  C_4
REMARK    2  A    between atoms: C_4  and  C_5
REMARK    3  A    between atoms: C_14  and  C_16
REMARK    4  A    between atoms: C_16  and  C_17
REMARK    5  A    between atoms: C_20  and  N_21
REMARK                            x       y       z     vdW  Elec       q    Type
REMARK                         _______ _______ _______ _____ _____    ______ ____
ROOT
ATOM      1  C   UNL     1       0.480  14.027  19.633  0.00  0.00    +0.000 C 
ATOM      2  C   UNL     1      -0.664  13.248  18.914  0.00  0.00    +0.000 C 
ATOM      3  C   UNL     1      -0.706  11.767  19.272  0.00  0.00    +0.000 C 
ATOM      4  N   UNL     1       0.579  11.145  18.996  0.00  0.00    +0.000 N 
ATOM      5  C   UNL     1       0.622  10.027  18.178  0.00  0.00    +0.000 C 
ATOM      6  O   UNL     1      -0.405   9.540  17.691  0.00  0.00    +0.000 OA
ATOM      7  C   UNL     1       1.700  11.747  19.706  0.00  0.00    +0.000 C 
ATOM      8  C   UNL     1       1.808  13.238  19.365  0.00  0.00    +0.000 C 
ENDROOT
BRANCH   1   9
ATOM      9  C   UNL     1       0.574  15.483  19.098  0.00  0.00    +0.000 A 
ATOM     10  C   UNL     1       1.802  16.044  18.701  0.00  0.00    +0.000 A 
ATOM     11  C   UNL     1       1.878  17.333  18.160  0.00  0.00    +0.000 A 
ATOM     12  C   UNL     1       0.731  18.106  18.028  0.00  0.00    +0.000 A 
ATOM     13  C   UNL     1      -0.488  17.598  18.458  0.00  0.00    +0.000 A 
ATOM     14  C   UNL     1      -0.564  16.307  18.992  0.00  0.00    +0.000 A 
ENDBRANCH   1   9
BRANCH   1  16
ATOM     15  N   UNL     1      -1.009  13.953  21.638  0.00  0.00    +0.000 N 
ATOM     16  C   UNL     1       0.265  14.068  21.170  0.00  0.00    +0.000 C 
ATOM     17  O   UNL     1       1.182  14.208  21.977  0.00  0.00    +0.000 OA
ATOM     18  H   UNL     1      -1.119  14.061  22.640  0.00  0.00    +0.000 HD
ATOM     19  H   UNL     1      -1.816  14.153  21.065  0.00  0.00    +0.000 HD
ENDBRANCH   1  16
BRANCH   5  20
ATOM     20  C   UNL     1       1.964   9.377  17.872  0.00  0.00    +0.000 C 
BRANCH  20  21
ATOM     21  C   UNL     1       2.178   8.027  18.522  0.00  0.00    +0.000 A 
ATOM     22  C   UNL     1       2.861   6.992  17.867  0.00  0.00    +0.000 A 
ATOM     23  C   UNL     1       3.084   5.763  18.497  0.00  0.00    +0.000 A 
ATOM     24  C   UNL     1       2.635   5.556  19.807  0.00  0.00    +0.000 A 
ATOM     25  C   UNL     1       1.982   6.596  20.483  0.00  0.00    +0.000 A 
ATOM     26  C   UNL     1       1.765   7.823  19.847  0.00  0.00    +0.000 A 
BRANCH  24  27
ATOM     27  N   UNL     1       2.824   4.310  20.445  0.00  0.00    +0.000 N 
ATOM     28  C   UNL     1       3.610   3.248  20.079  0.00  0.00    +0.000 A 
ATOM     29  N   UNL     1       3.454   2.267  20.938  0.00  0.00    +0.000 NA
ATOM     30  N   UNL     1       2.563   2.730  21.868  0.00  0.00    +0.000 NA
ATOM     31  N   UNL     1       2.184   3.971  21.591  0.00  0.00    +0.000 NA
ENDBRANCH  24  27
ENDBRANCH  20  21
ENDBRANCH   5  20
TORSDOF 5
ENDMDL
