MODEL 1
REMARK VINA RESULT:      -8.5      0.000      0.000
REMARK  Name = 
REMARK  8 active torsions:
REMARK  status: ('A' for Active; 'I' for Inactive)
REMARK    1  A    between atoms: C_1  and  C_2
REMARK    2  A    between atoms: C_2  and  C_3
REMARK    3  A    between atoms: C_3  and  C_4
REMARK    4  A    between atoms: C_4  and  C_5
REMARK    5  A    between atoms: C_5  and  C_6
REMARK    6  A    between atoms: N_16  and  C_17
REMARK    7  A    between atoms: C_17  and  C_18
REMARK    8  A    between atoms: N_22  and  C_23
REMARK                            x       y       z     vdW  Elec       q    Type
REMARK                         _______ _______ _______ _____ _____    ______ ____
ROOT
ATOM      1  C   UNL     1       2.327   5.567  19.249  0.00  0.00    +0.000 C 
ATOM      2  N   UNL     1       1.715   4.799  18.179  0.00  0.00    +0.000 N 
ATOM      3  C   UNL     1       2.603   3.982  17.526  0.00  0.00    +0.000 C 
ATOM      4  O   UNL     1       2.286   3.201  16.643  0.00  0.00    +0.000 OA
ATOM      5  N   UNL     1       3.846   4.208  18.016  0.00  0.00    +0.000 N 
ATOM      6  C   UNL     1       3.806   5.136  19.017  0.00  0.00    +0.000 C 
ATOM      7  O   UNL     1       4.787   5.537  19.636  0.00  0.00    +0.000 OA
ATOM      8  H   UNL     1       0.722   4.709  18.011  0.00  0.00    +0.000 HD
ENDROOT
BRANCH   1   9
ATOM      9  C   UNL     1       2.098   7.075  19.069  0.00  0.00    +0.000 A 
ATOM     10  C   UNL     1       1.552   7.858  20.107  0.00  0.00    +0.000 A 
ATOM     11  C   UNL     1       1.343   9.232  19.951  0.00  0.00    +0.000 A 
ATOM     12  C   UNL     1       1.655   9.839  18.743  0.00  0.00    +0.000 A 
ATOM     13  F   UNL     1       1.462  11.155  18.594  0.00  0.00    +0.000 F 
ATOM     14  C   UNL     1       2.157   9.095  17.686  0.00  0.00    +0.000 A 
ATOM     15  C   UNL     1       2.371   7.721  17.846  0.00  0.00    +0.000 A 
ENDBRANCH   1   9
BRANCH   1  16
ATOM     16  C   UNL     1       1.813   5.095  20.628  0.00  0.00    +0.000 C 
BRANCH  16  17
ATOM     17  C   UNL     1       0.766   3.973  20.570  0.00  0.00    +0.000 C 
BRANCH  17  19
ATOM     18  C   UNL     1       2.642   2.694  21.647  0.00  0.00    +0.000 C 
ATOM     19  C   UNL     1       1.392   2.595  20.785  0.00  0.00    +0.000 C 
ENDBRANCH  17  19
ENDBRANCH  16  17
ENDBRANCH   1  16
BRANCH   5  20
ATOM     20  C   UNL     1       5.047   3.548  17.555  0.00  0.00    +0.000 C 
BRANCH  20  21
ATOM     21  C   UNL     1       5.507   4.101  16.252  0.00  0.00    +0.000 A 
ATOM     22  N   UNL     1       5.130   3.715  15.046  0.00  0.00    +0.000 NA
ATOM     23  N   UNL     1       5.620   4.637  14.169  0.00  0.00    +0.000 NA
ATOM     24  N   UNL     1       6.278   5.592  14.804  0.00  0.00    +0.000 NA
ATOM     25  N   UNL     1       6.300   5.233  16.111  0.00  0.00    +0.000 N 
BRANCH  25  26
ATOM     26  C   UNL     1       7.026   5.992  17.063  0.00  0.00    +0.000 A 
ATOM     27  C   UNL     1       7.198   7.369  16.849  0.00  0.00    +0.000 A 
ATOM     28  C   UNL     1       7.862   8.148  17.799  0.00  0.00    +0.000 A 
ATOM     29  C   UNL     1       8.388   7.557  18.946  0.00  0.00    +0.000 A 
ATOM     30  C   UNL     1       8.266   6.182  19.137  0.00  0.00    +0.000 A 
ATOM     31  C   UNL     1       7.588   5.399  18.199  0.00  0.00    +0.000 A 
ENDBRANCH  25  26
ENDBRANCH  20  21
ENDBRANCH   5  20
TORSDOF 7
ENDMDL
MODEL 2
REMARK VINA RESULT:      -8.1      3.159      5.544
REMARK  Name = 
REMARK  8 active torsions:
REMARK  status: ('A' for Active; 'I' for Inactive)
REMARK    1  A    between atoms: C_1  and  C_2
REMARK    2  A    between atoms: C_2  and  C_3
REMARK    3  A    between atoms: C_3  and  C_4
REMARK    4  A    between atoms: C_4  and  C_5
REMARK    5  A    between atoms: C_5  and  C_6
REMARK    6  A    between atoms: N_16  and  C_17
REMARK    7  A    between atoms: C_17  and  C_18
REMARK    8  A    between atoms: N_22  and  C_23
REMARK                            x       y       z     vdW  Elec       q    Type
REMARK                         _______ _______ _______ _____ _____    ______ ____
ROOT
ATOM      1  C   UNL     1       4.445   5.246  18.257  0.00  0.00    +0.000 C 
ATOM      2  N   UNL     1       5.803   5.124  18.758  0.00  0.00    +0.000 N 
ATOM      3  C   UNL     1       6.664   4.559  17.853  0.00  0.00    +0.000 C 
ATOM      4  O   UNL     1       7.862   4.428  18.044  0.00  0.00    +0.000 OA
ATOM      5  N   UNL     1       5.960   4.177  16.760  0.00  0.00    +0.000 N 
ATOM      6  C   UNL     1       4.642   4.510  16.897  0.00  0.00    +0.000 C 
ATOM      7  O   UNL     1       3.773   4.279  16.062  0.00  0.00    +0.000 OA
ATOM      8  H   UNL     1       6.160   5.552  19.602  0.00  0.00    +0.000 HD
ENDROOT
BRANCH   1   9
ATOM      9  C   UNL     1       3.433   4.553  19.181  0.00  0.00    +0.000 A 
ATOM     10  C   UNL     1       3.024   5.150  20.391  0.00  0.00    +0.000 A 
ATOM     11  C   UNL     1       2.101   4.526  21.236  0.00  0.00    +0.000 A 
ATOM     12  C   UNL     1       1.591   3.282  20.893  0.00  0.00    +0.000 A 
ATOM     13  F   UNL     1       0.703   2.686  21.698  0.00  0.00    +0.000 F 
ATOM     14  C   UNL     1       1.999   2.646  19.731  0.00  0.00    +0.000 A 
ATOM     15  C   UNL     1       2.919   3.274  18.883  0.00  0.00    +0.000 A 
ENDBRANCH   1   9
BRANCH   1  16
ATOM     16  C   UNL     1       4.069   6.730  18.044  0.00  0.00    +0.000 C 
BRANCH  16  17
ATOM     17  C   UNL     1       2.570   6.985  17.830  0.00  0.00    +0.000 C 
BRANCH  17  19
ATOM     18  C   UNL     1       1.779   9.371  17.819  0.00  0.00    +0.000 C 
ATOM     19  C   UNL     1       2.062   8.149  18.681  0.00  0.00    +0.000 C 
ENDBRANCH  17  19
ENDBRANCH  16  17
ENDBRANCH   1  16
BRANCH   5  20
ATOM     20  C   UNL     1       6.525   3.521  15.602  0.00  0.00    +0.000 C 
BRANCH  20  21
ATOM     21  C   UNL     1       7.065   4.507  14.627  0.00  0.00    +0.000 A 
ATOM     22  N   UNL     1       7.841   5.544  14.890  0.00  0.00    +0.000 NA
ATOM     23  N   UNL     1       8.273   6.024  13.689  0.00  0.00    +0.000 NA
ATOM     24  N   UNL     1       7.797   5.300  12.690  0.00  0.00    +0.000 NA
ATOM     25  N   UNL     1       6.960   4.392  13.246  0.00  0.00    +0.000 N 
BRANCH  25  26
ATOM     26  C   UNL     1       6.191   3.518  12.436  0.00  0.00    +0.000 A 
ATOM     27  C   UNL     1       4.849   3.836  12.174  0.00  0.00    +0.000 A 
ATOM     28  C   UNL     1       4.086   3.020  11.334  0.00  0.00    +0.000 A 
ATOM     29  C   UNL     1       4.644   1.869  10.783  0.00  0.00    +0.000 A 
ATOM     30  C   UNL     1       5.959   1.521  11.082  0.00  0.00    +0.000 A 
ATOM     31  C   UNL     1       6.733   2.341  11.908  0.00  0.00    +0.000 A 
ENDBRANCH  25  26
ENDBRANCH  20  21
ENDBRANCH   5  20
TORSDOF 7
ENDMDL
MODEL 3
REMARK VINA RESULT:      -8.0      1.667      3.098
REMARK  Name = 
REMARK  8 active torsions:
REMARK  status: ('A' for Active; 'I' for Inactive)
REMARK    1  A    between atoms: C_1  and  C_2
REMARK    2  A    between atoms: C_2  and  C_3
REMARK    3  A    between atoms: C_3  and  C_4
REMARK    4  A    between atoms: C_4  and  C_5
REMARK    5  A    between atoms: C_5  and  C_6
REMARK    6  A    between atoms: N_16  and  C_17
REMARK    7  A    between atoms: C_17  and  C_18
REMARK    8  A    between atoms: N_22  and  C_23
REMARK                            x       y       z     vdW  Elec       q    Type
REMARK                         _______ _______ _______ _____ _____    ______ ____
ROOT
ATOM      1  C   UNL     1       2.479   5.638  19.314  0.00  0.00    +0.000 C 
ATOM      2  N   UNL     1       1.957   4.885  18.186  0.00  0.00    +0.000 N 
ATOM      3  C   UNL     1       2.934   4.241  17.469  0.00  0.00    +0.000 C 
ATOM      4  O   UNL     1       2.709   3.498  16.527  0.00  0.00    +0.000 OA
ATOM      5  N   UNL     1       4.143   4.582  17.975  0.00  0.00    +0.000 N 
ATOM      6  C   UNL     1       3.998   5.416  19.047  0.00  0.00    +0.000 C 
ATOM      7  O   UNL     1       4.927   5.888  19.696  0.00  0.00    +0.000 OA
ATOM      8  H   UNL     1       0.982   4.684  18.011  0.00  0.00    +0.000 HD
ENDROOT
BRANCH   1   9
ATOM      9  C   UNL     1       2.060   7.114  19.254  0.00  0.00    +0.000 A 
ATOM     10  C   UNL     1       2.234   7.873  18.079  0.00  0.00    +0.000 A 
ATOM     11  C   UNL     1       1.853   9.217  18.017  0.00  0.00    +0.000 A 
ATOM     12  C   UNL     1       1.314   9.829  19.139  0.00  0.00    +0.000 A 
ATOM     13  F   UNL     1       0.943  11.114  19.080  0.00  0.00    +0.000 F 
ATOM     14  C   UNL     1       1.165   9.126  20.325  0.00  0.00    +0.000 A 
ATOM     15  C   UNL     1       1.541   7.779  20.384  0.00  0.00    +0.000 A 
ENDBRANCH   1   9
BRANCH   1  16
ATOM     16  C   UNL     1       2.043   4.997  20.650  0.00  0.00    +0.000 C 
BRANCH  16  17
ATOM     17  C   UNL     1       0.868   4.014  20.535  0.00  0.00    +0.000 C 
BRANCH  17  19
ATOM     18  C   UNL     1       2.620   2.536  21.566  0.00  0.00    +0.000 C 
ATOM     19  C   UNL     1       1.299   2.574  20.813  0.00  0.00    +0.000 C 
ENDBRANCH  17  19
ENDBRANCH  16  17
ENDBRANCH   1  16
BRANCH   5  20
ATOM     20  C   UNL     1       5.413   4.117  17.463  0.00  0.00    +0.000 C 
BRANCH  20  21
ATOM     21  C   UNL     1       6.269   5.251  17.018  0.00  0.00    +0.000 A 
ATOM     22  N   UNL     1       6.818   6.181  17.779  0.00  0.00    +0.000 NA
ATOM     23  N   UNL     1       7.692   6.868  16.990  0.00  0.00    +0.000 NA
ATOM     24  N   UNL     1       7.710   6.375  15.763  0.00  0.00    +0.000 NA
ATOM     25  N   UNL     1       6.756   5.413  15.726  0.00  0.00    +0.000 N 
BRANCH  25  26
ATOM     26  C   UNL     1       6.436   4.750  14.515  0.00  0.00    +0.000 A 
ATOM     27  C   UNL     1       7.391   4.710  13.487  0.00  0.00    +0.000 A 
ATOM     28  C   UNL     1       7.121   4.015  12.305  0.00  0.00    +0.000 A 
ATOM     29  C   UNL     1       5.889   3.390  12.128  0.00  0.00    +0.000 A 
ATOM     30  C   UNL     1       4.918   3.471  13.124  0.00  0.00    +0.000 A 
ATOM     31  C   UNL     1       5.188   4.150  14.315  0.00  0.00    +0.000 A 
ENDBRANCH  25  26
ENDBRANCH  20  21
ENDBRANCH   5  20
TORSDOF 7
ENDMDL
MODEL 4
REMARK VINA RESULT:      -7.8      1.669      3.011
REMARK  Name = 
REMARK  8 active torsions:
REMARK  status: ('A' for Active; 'I' for Inactive)
REMARK    1  A    between atoms: C_1  and  C_2
REMARK    2  A    between atoms: C_2  and  C_3
REMARK    3  A    between atoms: C_3  and  C_4
REMARK    4  A    between atoms: C_4  and  C_5
REMARK    5  A    between atoms: C_5  and  C_6
REMARK    6  A    between atoms: N_16  and  C_17
REMARK    7  A    between atoms: C_17  and  C_18
REMARK    8  A    between atoms: N_22  and  C_23
REMARK                            x       y       z     vdW  Elec       q    Type
REMARK                         _______ _______ _______ _____ _____    ______ ____
ROOT
ATOM      1  C   UNL     1       2.479   5.660  19.371  0.00  0.00    +0.000 C 
ATOM      2  N   UNL     1       1.929   4.925  18.245  0.00  0.00    +0.000 N 
ATOM      3  C   UNL     1       2.884   4.274  17.507  0.00  0.00    +0.000 C 
ATOM      4  O   UNL     1       2.632   3.544  16.561  0.00  0.00    +0.000 OA
ATOM      5  N   UNL     1       4.106   4.592  17.996  0.00  0.00    +0.000 N 
ATOM      6  C   UNL     1       3.991   5.418  19.078  0.00  0.00    +0.000 C 
ATOM      7  O   UNL     1       4.937   5.870  19.716  0.00  0.00    +0.000 OA
ATOM      8  H   UNL     1       0.947   4.740  18.085  0.00  0.00    +0.000 HD
ENDROOT
BRANCH   1   9
ATOM      9  C   UNL     1       2.082   7.142  19.332  0.00  0.00    +0.000 A 
ATOM     10  C   UNL     1       1.557   7.786  20.472  0.00  0.00    +0.000 A 
ATOM     11  C   UNL     1       1.195   9.136  20.444  0.00  0.00    +0.000 A 
ATOM     12  C   UNL     1       1.331   9.857  19.267  0.00  0.00    +0.000 A 
ATOM     13  F   UNL     1       0.990  11.152  19.241  0.00  0.00    +0.000 F 
ATOM     14  C   UNL     1       1.805   9.249  18.115  0.00  0.00    +0.000 A 
ATOM     15  C   UNL     1       2.173   7.899  18.146  0.00  0.00    +0.000 A 
ENDBRANCH   1   9
BRANCH   1  16
ATOM     16  C   UNL     1       2.055   5.012  20.709  0.00  0.00    +0.000 C 
BRANCH  16  17
ATOM     17  C   UNL     1       1.082   3.833  20.569  0.00  0.00    +0.000 C 
BRANCH  17  19
ATOM     18  C   UNL     1       2.934   2.344  21.390  0.00  0.00    +0.000 C 
ATOM     19  C   UNL     1       1.452   2.674  21.494  0.00  0.00    +0.000 C 
ENDBRANCH  17  19
ENDBRANCH  16  17
ENDBRANCH   1  16
BRANCH   5  20
ATOM     20  C   UNL     1       5.360   4.114  17.459  0.00  0.00    +0.000 C 
BRANCH  20  21
ATOM     21  C   UNL     1       6.229   5.240  17.019  0.00  0.00    +0.000 A 
ATOM     22  N   UNL     1       6.762   6.178  17.780  0.00  0.00    +0.000 NA
ATOM     23  N   UNL     1       7.656   6.853  17.002  0.00  0.00    +0.000 NA
ATOM     24  N   UNL     1       7.702   6.343  15.783  0.00  0.00    +0.000 NA
ATOM     25  N   UNL     1       6.748   5.383  15.737  0.00  0.00    +0.000 N 
BRANCH  25  26
ATOM     26  C   UNL     1       6.455   4.703  14.528  0.00  0.00    +0.000 A 
ATOM     27  C   UNL     1       5.205   4.081  14.381  0.00  0.00    +0.000 A 
ATOM     28  C   UNL     1       4.871   3.452  13.179  0.00  0.00    +0.000 A 
ATOM     29  C   UNL     1       5.791   3.409  12.134  0.00  0.00    +0.000 A 
ATOM     30  C   UNL     1       7.051   3.979  12.293  0.00  0.00    +0.000 A 
ATOM     31  C   UNL     1       7.386   4.624  13.487  0.00  0.00    +0.000 A 
ENDBRANCH  25  26
ENDBRANCH  20  21
ENDBRANCH   5  20
TORSDOF 7
ENDMDL
MODEL 5
REMARK VINA RESULT:      -7.8      3.094      5.581
REMARK  Name = 
REMARK  8 active torsions:
REMARK  status: ('A' for Active; 'I' for Inactive)
REMARK    1  A    between atoms: C_1  and  C_2
REMARK    2  A    between atoms: C_2  and  C_3
REMARK    3  A    between atoms: C_3  and  C_4
REMARK    4  A    between atoms: C_4  and  C_5
REMARK    5  A    between atoms: C_5  and  C_6
REMARK    6  A    between atoms: N_16  and  C_17
REMARK    7  A    between atoms: C_17  and  C_18
REMARK    8  A    between atoms: N_22  and  C_23
REMARK                            x       y       z     vdW  Elec       q    Type
REMARK                         _______ _______ _______ _____ _____    ______ ____
ROOT
ATOM      1  C   UNL     1       3.440   4.959  18.231  0.00  0.00    +0.000 C 
ATOM      2  N   UNL     1       4.752   5.433  18.636  0.00  0.00    +0.000 N 
ATOM      3  C   UNL     1       5.760   5.007  17.809  0.00  0.00    +0.000 C 
ATOM      4  O   UNL     1       6.926   5.346  17.927  0.00  0.00    +0.000 OA
ATOM      5  N   UNL     1       5.239   4.164  16.885  0.00  0.00    +0.000 N 
ATOM      6  C   UNL     1       3.889   4.044  17.051  0.00  0.00    +0.000 C 
ATOM      7  O   UNL     1       3.160   3.340  16.359  0.00  0.00    +0.000 OA
ATOM      8  H   UNL     1       4.933   6.140  19.336  0.00  0.00    +0.000 HD
ENDROOT
BRANCH   1   9
ATOM      9  C   UNL     1       2.738   4.193  19.361  0.00  0.00    +0.000 A 
ATOM     10  C   UNL     1       3.477   3.463  20.315  0.00  0.00    +0.000 A 
ATOM     11  C   UNL     1       2.843   2.765  21.348  0.00  0.00    +0.000 A 
ATOM     12  C   UNL     1       1.459   2.767  21.427  0.00  0.00    +0.000 A 
ATOM     13  F   UNL     1       0.851   2.104  22.420  0.00  0.00    +0.000 F 
ATOM     14  C   UNL     1       0.697   3.440  20.485  0.00  0.00    +0.000 A 
ATOM     15  C   UNL     1       1.332   4.143  19.455  0.00  0.00    +0.000 A 
ENDBRANCH   1   9
BRANCH   1  16
ATOM     16  C   UNL     1       2.563   6.129  17.733  0.00  0.00    +0.000 C 
BRANCH  16  17
ATOM     17  C   UNL     1       2.726   7.434  18.526  0.00  0.00    +0.000 C 
BRANCH  17  19
ATOM     18  C   UNL     1       1.334   9.471  18.047  0.00  0.00    +0.000 C 
ATOM     19  C   UNL     1       2.560   8.667  17.639  0.00  0.00    +0.000 C 
ENDBRANCH  17  19
ENDBRANCH  16  17
ENDBRANCH   1  16
BRANCH   5  20
ATOM     20  C   UNL     1       6.002   3.495  15.855  0.00  0.00    +0.000 C 
BRANCH  20  21
ATOM     21  C   UNL     1       6.697   4.470  14.971  0.00  0.00    +0.000 A 
ATOM     22  N   UNL     1       7.497   5.453  15.343  0.00  0.00    +0.000 NA
ATOM     23  N   UNL     1       8.079   5.935  14.209  0.00  0.00    +0.000 NA
ATOM     24  N   UNL     1       7.671   5.264  13.145  0.00  0.00    +0.000 NA
ATOM     25  N   UNL     1       6.730   4.393  13.584  0.00  0.00    +0.000 N 
BRANCH  25  26
ATOM     26  C   UNL     1       6.004   3.585  12.673  0.00  0.00    +0.000 A 
ATOM     27  C   UNL     1       4.698   3.960  12.321  0.00  0.00    +0.000 A 
ATOM     28  C   UNL     1       3.981   3.211  11.385  0.00  0.00    +0.000 A 
ATOM     29  C   UNL     1       4.547   2.069  10.823  0.00  0.00    +0.000 A 
ATOM     30  C   UNL     1       5.822   1.663  11.208  0.00  0.00    +0.000 A 
ATOM     31  C   UNL     1       6.551   2.417  12.132  0.00  0.00    +0.000 A 
ENDBRANCH  25  26
ENDBRANCH  20  21
ENDBRANCH   5  20
TORSDOF 7
ENDMDL
MODEL 6
REMARK VINA RESULT:      -7.6      3.896      7.451
REMARK  Name = 
REMARK  8 active torsions:
REMARK  status: ('A' for Active; 'I' for Inactive)
REMARK    1  A    between atoms: C_1  and  C_2
REMARK    2  A    between atoms: C_2  and  C_3
REMARK    3  A    between atoms: C_3  and  C_4
REMARK    4  A    between atoms: C_4  and  C_5
REMARK    5  A    between atoms: C_5  and  C_6
REMARK    6  A    between atoms: N_16  and  C_17
REMARK    7  A    between atoms: C_17  and  C_18
REMARK    8  A    between atoms: N_22  and  C_23
REMARK                            x       y       z     vdW  Elec       q    Type
REMARK                         _______ _______ _______ _____ _____    ______ ____
ROOT
ATOM      1  C   UNL     1       2.607   6.522  18.543  0.00  0.00    +0.000 C 
ATOM      2  N   UNL     1       2.241   6.619  19.945  0.00  0.00    +0.000 N 
ATOM      3  C   UNL     1       1.741   7.850  20.288  0.00  0.00    +0.000 C 
ATOM      4  O   UNL     1       1.308   8.123  21.396  0.00  0.00    +0.000 OA
ATOM      5  N   UNL     1       1.826   8.671  19.214  0.00  0.00    +0.000 N 
ATOM      6  C   UNL     1       2.342   8.004  18.139  0.00  0.00    +0.000 C 
ATOM      7  O   UNL     1       2.537   8.503  17.035  0.00  0.00    +0.000 OA
ATOM      8  H   UNL     1       2.178   5.845  20.593  0.00  0.00    +0.000 HD
ENDROOT
BRANCH   1   9
ATOM      9  C   UNL     1       4.072   6.097  18.366  0.00  0.00    +0.000 A 
ATOM     10  C   UNL     1       4.688   6.116  17.097  0.00  0.00    +0.000 A 
ATOM     11  C   UNL     1       6.022   5.732  16.930  0.00  0.00    +0.000 A 
ATOM     12  C   UNL     1       6.754   5.301  18.026  0.00  0.00    +0.000 A 
ATOM     13  F   UNL     1       8.033   4.939  17.868  0.00  0.00    +0.000 F 
ATOM     14  C   UNL     1       6.171   5.231  19.282  0.00  0.00    +0.000 A 
ATOM     15  C   UNL     1       4.837   5.621  19.450  0.00  0.00    +0.000 A 
ENDBRANCH   1   9
BRANCH   1  16
ATOM     16  C   UNL     1       1.661   5.557  17.794  0.00  0.00    +0.000 C 
BRANCH  16  17
ATOM     17  C   UNL     1       1.676   4.113  18.316  0.00  0.00    +0.000 C 
BRANCH  17  19
ATOM     18  C   UNL     1       3.555   2.499  17.887  0.00  0.00    +0.000 C 
ATOM     19  C   UNL     1       2.305   3.148  17.310  0.00  0.00    +0.000 C 
ENDBRANCH  17  19
ENDBRANCH  16  17
ENDBRANCH   1  16
BRANCH   5  20
ATOM     20  C   UNL     1       1.417  10.057  19.201  0.00  0.00    +0.000 C 
BRANCH  20  21
ATOM     21  C   UNL     1       0.038  10.212  18.661  0.00  0.00    +0.000 A 
ATOM     22  N   UNL     1      -0.427   9.740  17.518  0.00  0.00    +0.000 NA
ATOM     23  N   UNL     1      -1.779   9.920  17.542  0.00  0.00    +0.000 NA
ATOM     24  N   UNL     1      -2.163  10.477  18.677  0.00  0.00    +0.000 NA
ATOM     25  N   UNL     1      -1.030  10.756  19.366  0.00  0.00    +0.000 N 
BRANCH  25  26
ATOM     26  C   UNL     1      -1.078  11.461  20.594  0.00  0.00    +0.000 A 
ATOM     27  C   UNL     1      -1.188  12.861  20.572  0.00  0.00    +0.000 A 
ATOM     28  C   UNL     1      -1.293  13.575  21.768  0.00  0.00    +0.000 A 
ATOM     29  C   UNL     1      -1.252  12.905  22.988  0.00  0.00    +0.000 A 
ATOM     30  C   UNL     1      -1.089  11.522  23.017  0.00  0.00    +0.000 A 
ATOM     31  C   UNL     1      -1.000  10.800  21.824  0.00  0.00    +0.000 A 
ENDBRANCH  25  26
ENDBRANCH  20  21
ENDBRANCH   5  20
TORSDOF 7
ENDMDL
MODEL 7
REMARK VINA RESULT:      -7.5      3.828      7.304
REMARK  Name = 
REMARK  8 active torsions:
REMARK  status: ('A' for Active; 'I' for Inactive)
REMARK    1  A    between atoms: C_1  and  C_2
REMARK    2  A    between atoms: C_2  and  C_3
REMARK    3  A    between atoms: C_3  and  C_4
REMARK    4  A    between atoms: C_4  and  C_5
REMARK    5  A    between atoms: C_5  and  C_6
REMARK    6  A    between atoms: N_16  and  C_17
REMARK    7  A    between atoms: C_17  and  C_18
REMARK    8  A    between atoms: N_22  and  C_23
REMARK                            x       y       z     vdW  Elec       q    Type
REMARK                         _______ _______ _______ _____ _____    ______ ____
ROOT
ATOM      1  C   UNL     1       2.617   6.376  18.552  0.00  0.00    +0.000 C 
ATOM      2  N   UNL     1       2.286   6.528  19.958  0.00  0.00    +0.000 N 
ATOM      3  C   UNL     1       1.801   7.773  20.267  0.00  0.00    +0.000 C 
ATOM      4  O   UNL     1       1.397   8.090  21.375  0.00  0.00    +0.000 OA
ATOM      5  N   UNL     1       1.865   8.554  19.162  0.00  0.00    +0.000 N 
ATOM      6  C   UNL     1       2.350   7.844  18.100  0.00  0.00    +0.000 C 
ATOM      7  O   UNL     1       2.521   8.302  16.974  0.00  0.00    +0.000 OA
ATOM      8  H   UNL     1       2.234   5.779  20.636  0.00  0.00    +0.000 HD
ENDROOT
BRANCH   1   9
ATOM      9  C   UNL     1       4.075   5.936  18.356  0.00  0.00    +0.000 A 
ATOM     10  C   UNL     1       4.838   5.442  19.433  0.00  0.00    +0.000 A 
ATOM     11  C   UNL     1       6.165   5.037  19.261  0.00  0.00    +0.000 A 
ATOM     12  C   UNL     1       6.757   5.143  18.011  0.00  0.00    +0.000 A 
ATOM     13  F   UNL     1       8.026   4.750  17.843  0.00  0.00    +0.000 F 
ATOM     14  C   UNL     1       6.051   5.661  16.936  0.00  0.00    +0.000 A 
ATOM     15  C   UNL     1       4.721   6.061  17.108  0.00  0.00    +0.000 A 
ENDBRANCH   1   9
BRANCH   1  16
ATOM     16  C   UNL     1       1.648   5.390  17.862  0.00  0.00    +0.000 C 
BRANCH  16  17
ATOM     17  C   UNL     1       2.076   3.917  17.933  0.00  0.00    +0.000 C 
BRANCH  17  19
ATOM     18  C   UNL     1       1.009   3.316  20.128  0.00  0.00    +0.000 C 
ATOM     19  C   UNL     1       1.028   3.051  18.630  0.00  0.00    +0.000 C 
ENDBRANCH  17  19
ENDBRANCH  16  17
ENDBRANCH   1  16
BRANCH   5  20
ATOM     20  C   UNL     1       1.462   9.941  19.107  0.00  0.00    +0.000 C 
BRANCH  20  21
ATOM     21  C   UNL     1       0.076  10.086  18.583  0.00  0.00    +0.000 A 
ATOM     22  N   UNL     1      -0.399   9.607  17.448  0.00  0.00    +0.000 NA
ATOM     23  N   UNL     1      -1.751   9.778  17.486  0.00  0.00    +0.000 NA
ATOM     24  N   UNL     1      -2.126  10.336  18.625  0.00  0.00    +0.000 NA
ATOM     25  N   UNL     1      -0.986  10.625  19.299  0.00  0.00    +0.000 N 
BRANCH  25  26
ATOM     26  C   UNL     1      -1.024  11.334  20.525  0.00  0.00    +0.000 A 
ATOM     27  C   UNL     1      -1.222  12.724  20.503  0.00  0.00    +0.000 A 
ATOM     28  C   UNL     1      -1.319  13.438  21.700  0.00  0.00    +0.000 A 
ATOM     29  C   UNL     1      -1.183  12.780  22.920  0.00  0.00    +0.000 A 
ATOM     30  C   UNL     1      -0.933  11.410  22.946  0.00  0.00    +0.000 A 
ATOM     31  C   UNL     1      -0.852  10.686  21.753  0.00  0.00    +0.000 A 
ENDBRANCH  25  26
ENDBRANCH  20  21
ENDBRANCH   5  20
TORSDOF 7
ENDMDL
MODEL 8
REMARK VINA RESULT:      -7.3      2.555      6.309
REMARK  Name = 
REMARK  8 active torsions:
REMARK  status: ('A' for Active; 'I' for Inactive)
REMARK    1  A    between atoms: C_1  and  C_2
REMARK    2  A    between atoms: C_2  and  C_3
REMARK    3  A    between atoms: C_3  and  C_4
REMARK    4  A    between atoms: C_4  and  C_5
REMARK    5  A    between atoms: C_5  and  C_6
REMARK    6  A    between atoms: N_16  and  C_17
REMARK    7  A    between atoms: C_17  and  C_18
REMARK    8  A    between atoms: N_22  and  C_23
REMARK                            x       y       z     vdW  Elec       q    Type
REMARK                         _______ _______ _______ _____ _____    ______ ____
ROOT
ATOM      1  C   UNL     1       4.922   4.518  16.692  0.00  0.00    +0.000 C 
ATOM      2  N   UNL     1       5.053   3.139  17.127  0.00  0.00    +0.000 N 
ATOM      3  C   UNL     1       3.912   2.646  17.709  0.00  0.00    +0.000 C 
ATOM      4  O   UNL     1       3.783   1.491  18.081  0.00  0.00    +0.000 OA
ATOM      5  N   UNL     1       3.002   3.645  17.801  0.00  0.00    +0.000 N 
ATOM      6  C   UNL     1       3.496   4.796  17.255  0.00  0.00    +0.000 C 
ATOM      7  O   UNL     1       2.889   5.862  17.207  0.00  0.00    +0.000 OA
ATOM      8  H   UNL     1       5.815   2.516  16.893  0.00  0.00    +0.000 HD
ENDROOT
BRANCH   1   9
ATOM      9  C   UNL     1       6.005   5.415  17.310  0.00  0.00    +0.000 A 
ATOM     10  C   UNL     1       6.233   6.719  16.827  0.00  0.00    +0.000 A 
ATOM     11  C   UNL     1       7.216   7.542  17.387  0.00  0.00    +0.000 A 
ATOM     12  C   UNL     1       8.001   7.061  18.424  0.00  0.00    +0.000 A 
ATOM     13  F   UNL     1       8.939   7.850  18.966  0.00  0.00    +0.000 F 
ATOM     14  C   UNL     1       7.833   5.770  18.900  0.00  0.00    +0.000 A 
ATOM     15  C   UNL     1       6.845   4.950  18.343  0.00  0.00    +0.000 A 
ENDBRANCH   1   9
BRANCH   1  16
ATOM     16  C   UNL     1       4.946   4.612  15.150  0.00  0.00    +0.000 C 
BRANCH  16  17
ATOM     17  C   UNL     1       6.143   3.915  14.485  0.00  0.00    +0.000 C 
BRANCH  17  19
ATOM     18  C   UNL     1       6.984   3.866  12.117  0.00  0.00    +0.000 C 
ATOM     19  C   UNL     1       5.836   3.501  13.047  0.00  0.00    +0.000 C 
ENDBRANCH  17  19
ENDBRANCH  16  17
ENDBRANCH   1  16
BRANCH   5  20
ATOM     20  C   UNL     1       1.685   3.511  18.381  0.00  0.00    +0.000 C 
BRANCH  20  21
ATOM     21  C   UNL     1       1.754   3.365  19.861  0.00  0.00    +0.000 A 
ATOM     22  N   UNL     1       1.877   2.242  20.546  0.00  0.00    +0.000 NA
ATOM     23  N   UNL     1       2.128   2.597  21.838  0.00  0.00    +0.000 NA
ATOM     24  N   UNL     1       2.181   3.912  21.967  0.00  0.00    +0.000 NA
ATOM     25  N   UNL     1       1.860   4.425  20.755  0.00  0.00    +0.000 N 
BRANCH  25  26
ATOM     26  C   UNL     1       1.717   5.823  20.570  0.00  0.00    +0.000 A 
ATOM     27  C   UNL     1       0.660   6.490  21.208  0.00  0.00    +0.000 A 
ATOM     28  C   UNL     1       0.530   7.876  21.086  0.00  0.00    +0.000 A 
ATOM     29  C   UNL     1       1.427   8.596  20.302  0.00  0.00    +0.000 A 
ATOM     30  C   UNL     1       2.447   7.932  19.624  0.00  0.00    +0.000 A 
ATOM     31  C   UNL     1       2.593   6.548  19.754  0.00  0.00    +0.000 A 
ENDBRANCH  25  26
ENDBRANCH  20  21
ENDBRANCH   5  20
TORSDOF 7
ENDMDL
MODEL 9
REMARK VINA RESULT:      -7.3      3.045      5.091
REMARK  Name = 
REMARK  8 active torsions:
REMARK  status: ('A' for Active; 'I' for Inactive)
REMARK    1  A    between atoms: C_1  and  C_2
REMARK    2  A    between atoms: C_2  and  C_3
REMARK    3  A    between atoms: C_3  and  C_4
REMARK    4  A    between atoms: C_4  and  C_5
REMARK    5  A    between atoms: C_5  and  C_6
REMARK    6  A    between atoms: N_16  and  C_17
REMARK    7  A    between atoms: C_17  and  C_18
REMARK    8  A    between atoms: N_22  and  C_23
REMARK                            x       y       z     vdW  Elec       q    Type
REMARK                         _______ _______ _______ _____ _____    ______ ____
ROOT
ATOM      1  C   UNL     1       0.437  10.051  18.958  0.00  0.00    +0.000 C 
ATOM      2  N   UNL     1       1.236   9.749  17.782  0.00  0.00    +0.000 N 
ATOM      3  C   UNL     1       2.059   8.665  17.953  0.00  0.00    +0.000 C 
ATOM      4  O   UNL     1       2.761   8.198  17.070  0.00  0.00    +0.000 OA
ATOM      5  N   UNL     1       1.959   8.238  19.235  0.00  0.00    +0.000 N 
ATOM      6  C   UNL     1       1.052   8.993  19.923  0.00  0.00    +0.000 C 
ATOM      7  O   UNL     1       0.766   8.834  21.106  0.00  0.00    +0.000 OA
ATOM      8  H   UNL     1       1.108  10.151  16.864  0.00  0.00    +0.000 HD
ENDROOT
BRANCH   1   9
ATOM      9  C   UNL     1       0.645  11.497  19.430  0.00  0.00    +0.000 A 
ATOM     10  C   UNL     1       1.627  12.321  18.843  0.00  0.00    +0.000 A 
ATOM     11  C   UNL     1       1.820  13.640  19.267  0.00  0.00    +0.000 A 
ATOM     12  C   UNL     1       1.048  14.146  20.302  0.00  0.00    +0.000 A 
ATOM     13  F   UNL     1       1.228  15.411  20.704  0.00  0.00    +0.000 F 
ATOM     14  C   UNL     1       0.100  13.354  20.930  0.00  0.00    +0.000 A 
ATOM     15  C   UNL     1      -0.096  12.036  20.502  0.00  0.00    +0.000 A 
ENDBRANCH   1   9
BRANCH   1  16
ATOM     16  C   UNL     1      -1.059   9.769  18.693  0.00  0.00    +0.000 C 
BRANCH  16  17
ATOM     17  C   UNL     1      -1.645  10.511  17.484  0.00  0.00    +0.000 C 
BRANCH  17  19
ATOM     18  C   UNL     1      -2.966   9.844  15.452  0.00  0.00    +0.000 C 
ATOM     19  C   UNL     1      -2.925   9.849  16.973  0.00  0.00    +0.000 C 
ENDBRANCH  17  19
ENDBRANCH  16  17
ENDBRANCH   1  16
BRANCH   5  20
ATOM     20  C   UNL     1       2.697   7.128  19.795  0.00  0.00    +0.000 C 
BRANCH  20  21
ATOM     21  C   UNL     1       2.668   5.944  18.894  0.00  0.00    +0.000 A 
ATOM     22  N   UNL     1       1.603   5.263  18.509  0.00  0.00    +0.000 NA
ATOM     23  N   UNL     1       2.014   4.419  17.520  0.00  0.00    +0.000 NA
ATOM     24  N   UNL     1       3.304   4.574  17.271  0.00  0.00    +0.000 NA
ATOM     25  N   UNL     1       3.762   5.464  18.184  0.00  0.00    +0.000 N 
BRANCH  25  26
ATOM     26  C   UNL     1       5.142   5.777  18.268  0.00  0.00    +0.000 A 
ATOM     27  C   UNL     1       5.708   6.627  17.304  0.00  0.00    +0.000 A 
ATOM     28  C   UNL     1       7.052   6.995  17.396  0.00  0.00    +0.000 A 
ATOM     29  C   UNL     1       7.846   6.491  18.423  0.00  0.00    +0.000 A 
ATOM     30  C   UNL     1       7.303   5.606  19.351  0.00  0.00    +0.000 A 
ATOM     31  C   UNL     1       5.955   5.246  19.275  0.00  0.00    +0.000 A 
ENDBRANCH  25  26
ENDBRANCH  20  21
ENDBRANCH   5  20
TORSDOF 7
ENDMDL
