MODEL 1
REMARK VINA RESULT:      -9.7      0.000      0.000
REMARK  Name = 
REMARK  6 active torsions:
REMARK  status: ('A' for Active; 'I' for Inactive)
REMARK    1  A    between atoms: C_1  and  C_2
REMARK    2  A    between atoms: C_5  and  C_6
REMARK    3  A    between atoms: C_6  and  C_7
REMARK    4  A    between atoms: N_9  and  C_10
REMARK    5  A    between atoms: C_12  and  N_13
REMARK    6  A    between atoms: C_14  and  C_16
REMARK                            x       y       z     vdW  Elec       q    Type
REMARK                         _______ _______ _______ _____ _____    ______ ____
ROOT
ATOM      1  C   UNL     1       3.987   4.657  19.088  0.00  0.00    +0.000 A 
ATOM      2  C   UNL     1       3.381   5.832  19.560  0.00  0.00    +0.000 A 
ATOM      3  C   UNL     1       2.244   5.774  20.380  0.00  0.00    +0.000 A 
ATOM      4  C   UNL     1       1.716   4.517  20.717  0.00  0.00    +0.000 A 
ATOM      5  C   UNL     1       2.330   3.343  20.269  0.00  0.00    +0.000 A 
ATOM      6  C   UNL     1       3.447   3.423  19.446  0.00  0.00    +0.000 A 
ATOM      7  F   UNL     1       4.042   2.292  19.037  0.00  0.00    +0.000 F 
ENDROOT
BRANCH   1  10
ATOM      8  C   UNL     1       6.384   5.001  18.681  0.00  0.00    +0.000 C 
ATOM      9  O   UNL     1       6.679   5.234  19.852  0.00  0.00    +0.000 OA
ATOM     10  N   UNL     1       5.116   4.672  18.235  0.00  0.00    +0.000 N 
ATOM     11  H   UNL     1       5.080   4.040  17.440  0.00  0.00    +0.000 HD
BRANCH   8  12
ATOM     12  C   UNL     1       7.437   5.019  17.586  0.00  0.00    +0.000 C 
BRANCH  12  17
ATOM     13  C   UNL     1       5.659   3.479  12.244  0.00  0.00    +0.000 C 
ATOM     14  C   UNL     1       6.102   3.895  13.617  0.00  0.00    +0.000 A 
ATOM     15  C   UNL     1       7.092   4.868  13.788  0.00  0.00    +0.000 A 
ATOM     16  C   UNL     1       7.502   5.247  15.072  0.00  0.00    +0.000 A 
ATOM     17  C   UNL     1       6.928   4.663  16.209  0.00  0.00    +0.000 A 
ATOM     18  C   UNL     1       5.939   3.687  16.034  0.00  0.00    +0.000 A 
ATOM     19  C   UNL     1       5.527   3.310  14.750  0.00  0.00    +0.000 A 
ENDBRANCH  12  17
ENDBRANCH   8  12
ENDBRANCH   1  10
BRANCH   3  20
ATOM     20  N   UNL     1       1.586   6.920  20.901  0.00  0.00    +0.000 N 
ATOM     21  C   UNL     1       1.478   8.154  20.283  0.00  0.00    +0.000 C 
ATOM     22  O   UNL     1       1.956   8.464  19.195  0.00  0.00    +0.000 OA
ATOM     23  H   UNL     1       1.297   6.862  21.871  0.00  0.00    +0.000 HD
BRANCH  21  24
ATOM     24  C   UNL     1       0.760   9.220  21.044  0.00  0.00    +0.000 A 
ATOM     25  C   UNL     1       0.193   8.868  22.293  0.00  0.00    +0.000 A 
ATOM     26  C   UNL     1      -0.464   9.823  23.084  0.00  0.00    +0.000 A 
ATOM     27  C   UNL     1      -0.520  11.112  22.601  0.00  0.00    +0.000 A 
ATOM     28  C   UNL     1       0.041  11.463  21.394  0.00  0.00    +0.000 A 
ATOM     29  C   UNL     1       0.691  10.539  20.588  0.00  0.00    +0.000 A 
ATOM     30  O   UNL     1      -0.112  12.783  21.119  0.00  0.00    +0.000 OA
ATOM     31  C   UNL     1      -0.819  13.228  22.296  0.00  0.00    +0.000 C 
ATOM     32  O   UNL     1      -1.106  12.167  23.229  0.00  0.00    +0.000 OA
ENDBRANCH  21  24
ENDBRANCH   3  20
TORSDOF 5
ENDMDL
MODEL 2
REMARK VINA RESULT:      -9.7      0.591      1.059
REMARK  Name = 
REMARK  6 active torsions:
REMARK  status: ('A' for Active; 'I' for Inactive)
REMARK    1  A    between atoms: C_1  and  C_2
REMARK    2  A    between atoms: C_5  and  C_6
REMARK    3  A    between atoms: C_6  and  C_7
REMARK    4  A    between atoms: N_9  and  C_10
REMARK    5  A    between atoms: C_12  and  N_13
REMARK    6  A    between atoms: C_14  and  C_16
REMARK                            x       y       z     vdW  Elec       q    Type
REMARK                         _______ _______ _______ _____ _____    ______ ____
ROOT
ATOM      1  C   UNL     1       3.819   5.394  18.967  0.00  0.00    +0.000 A 
ATOM      2  C   UNL     1       3.210   6.539  19.505  0.00  0.00    +0.000 A 
ATOM      3  C   UNL     1       2.079   6.430  20.330  0.00  0.00    +0.000 A 
ATOM      4  C   UNL     1       1.562   5.154  20.603  0.00  0.00    +0.000 A 
ATOM      5  C   UNL     1       2.179   4.010  20.089  0.00  0.00    +0.000 A 
ATOM      6  C   UNL     1       3.289   4.139  19.263  0.00  0.00    +0.000 A 
ATOM      7  F   UNL     1       3.888   3.035  18.790  0.00  0.00    +0.000 F 
ENDROOT
BRANCH   1  10
ATOM      8  C   UNL     1       6.241   5.343  18.568  0.00  0.00    +0.000 C 
ATOM      9  O   UNL     1       6.556   5.096  19.730  0.00  0.00    +0.000 OA
ATOM     10  N   UNL     1       4.941   5.461  18.108  0.00  0.00    +0.000 N 
ATOM     11  H   UNL     1       4.786   5.160  17.150  0.00  0.00    +0.000 HD
BRANCH   8  12
ATOM     12  C   UNL     1       7.295   5.512  17.486  0.00  0.00    +0.000 C 
BRANCH  12  17
ATOM     13  C   UNL     1       5.722   3.304  12.318  0.00  0.00    +0.000 C 
ATOM     14  C   UNL     1       6.143   3.853  13.650  0.00  0.00    +0.000 A 
ATOM     15  C   UNL     1       5.580   3.369  14.836  0.00  0.00    +0.000 A 
ATOM     16  C   UNL     1       5.973   3.889  16.074  0.00  0.00    +0.000 A 
ATOM     17  C   UNL     1       6.940   4.902  16.152  0.00  0.00    +0.000 A 
ATOM     18  C   UNL     1       7.499   5.386  14.962  0.00  0.00    +0.000 A 
ATOM     19  C   UNL     1       7.107   4.863  13.724  0.00  0.00    +0.000 A 
ENDBRANCH  12  17
ENDBRANCH   8  12
ENDBRANCH   1  10
BRANCH   3  20
ATOM     20  N   UNL     1       1.419   7.544  20.915  0.00  0.00    +0.000 N 
ATOM     21  C   UNL     1       1.084   8.725  20.277  0.00  0.00    +0.000 C 
ATOM     22  O   UNL     1       1.326   9.012  19.108  0.00  0.00    +0.000 OA
ATOM     23  H   UNL     1       1.316   7.517  21.923  0.00  0.00    +0.000 HD
BRANCH  21  24
ATOM     24  C   UNL     1       0.416   9.768  21.113  0.00  0.00    +0.000 A 
ATOM     25  C   UNL     1      -0.284   9.336  22.266  0.00  0.00    +0.000 A 
ATOM     26  C   UNL     1      -0.905  10.259  23.123  0.00  0.00    +0.000 A 
ATOM     27  C   UNL     1      -0.793  11.593  22.801  0.00  0.00    +0.000 A 
ATOM     28  C   UNL     1      -0.102  12.019  21.688  0.00  0.00    +0.000 A 
ATOM     29  C   UNL     1       0.516  11.130  20.821  0.00  0.00    +0.000 A 
ATOM     30  O   UNL     1      -0.100  13.371  21.570  0.00  0.00    +0.000 OA
ATOM     31  C   UNL     1      -0.854  13.750  22.741  0.00  0.00    +0.000 C 
ATOM     32  O   UNL     1      -1.320  12.625  23.513  0.00  0.00    +0.000 OA
ENDBRANCH  21  24
ENDBRANCH   3  20
TORSDOF 5
ENDMDL
MODEL 3
REMARK VINA RESULT:      -9.2      4.833     10.866
REMARK  Name = 
REMARK  6 active torsions:
REMARK  status: ('A' for Active; 'I' for Inactive)
REMARK    1  A    between atoms: C_1  and  C_2
REMARK    2  A    between atoms: C_5  and  C_6
REMARK    3  A    between atoms: C_6  and  C_7
REMARK    4  A    between atoms: N_9  and  C_10
REMARK    5  A    between atoms: C_12  and  N_13
REMARK    6  A    between atoms: C_14  and  C_16
REMARK                            x       y       z     vdW  Elec       q    Type
REMARK                         _______ _______ _______ _____ _____    ______ ____
ROOT
ATOM      1  C   UNL     1      -1.197  11.690  18.474  0.00  0.00    +0.000 A 
ATOM      2  C   UNL     1      -0.729  10.396  18.750  0.00  0.00    +0.000 A 
ATOM      3  C   UNL     1       0.635  10.161  18.988  0.00  0.00    +0.000 A 
ATOM      4  C   UNL     1       1.526  11.244  18.939  0.00  0.00    +0.000 A 
ATOM      5  C   UNL     1       1.061  12.539  18.690  0.00  0.00    +0.000 A 
ATOM      6  C   UNL     1      -0.291  12.749  18.442  0.00  0.00    +0.000 A 
ATOM      7  F   UNL     1      -0.732  13.997  18.222  0.00  0.00    +0.000 F 
ENDROOT
BRANCH   1  10
ATOM      8  C   UNL     1      -3.324  11.174  17.362  0.00  0.00    +0.000 C 
ATOM      9  O   UNL     1      -2.944  10.128  16.841  0.00  0.00    +0.000 OA
ATOM     10  N   UNL     1      -2.557  11.965  18.199  0.00  0.00    +0.000 N 
ATOM     11  H   UNL     1      -3.067  12.457  18.928  0.00  0.00    +0.000 HD
BRANCH   8  12
ATOM     12  C   UNL     1      -4.739  11.689  17.153  0.00  0.00    +0.000 C 
BRANCH  12  17
ATOM     13  C   UNL     1      -7.916  11.536  22.046  0.00  0.00    +0.000 C 
ATOM     14  C   UNL     1      -7.119  11.583  20.775  0.00  0.00    +0.000 A 
ATOM     15  C   UNL     1      -7.163  10.526  19.861  0.00  0.00    +0.000 A 
ATOM     16  C   UNL     1      -6.413  10.575  18.680  0.00  0.00    +0.000 A 
ATOM     17  C   UNL     1      -5.607  11.684  18.388  0.00  0.00    +0.000 A 
ATOM     18  C   UNL     1      -5.563  12.740  19.307  0.00  0.00    +0.000 A 
ATOM     19  C   UNL     1      -6.316  12.691  20.487  0.00  0.00    +0.000 A 
ENDBRANCH  12  17
ENDBRANCH   8  12
ENDBRANCH   1  10
BRANCH   3  20
ATOM     20  N   UNL     1       1.176   8.881  19.282  0.00  0.00    +0.000 N 
ATOM     21  C   UNL     1       2.065   8.168  18.497  0.00  0.00    +0.000 C 
ATOM     22  O   UNL     1       2.511   8.516  17.408  0.00  0.00    +0.000 OA
ATOM     23  H   UNL     1       0.758   8.394  20.066  0.00  0.00    +0.000 HD
BRANCH  21  24
ATOM     24  C   UNL     1       2.471   6.823  19.004  0.00  0.00    +0.000 A 
ATOM     25  C   UNL     1       1.822   6.334  20.164  0.00  0.00    +0.000 A 
ATOM     26  C   UNL     1       2.121   5.063  20.680  0.00  0.00    +0.000 A 
ATOM     27  C   UNL     1       3.059   4.313  20.004  0.00  0.00    +0.000 A 
ATOM     28  C   UNL     1       3.683   4.778  18.869  0.00  0.00    +0.000 A 
ATOM     29  C   UNL     1       3.412   6.031  18.341  0.00  0.00    +0.000 A 
ATOM     30  O   UNL     1       4.555   3.874  18.354  0.00  0.00    +0.000 OA
ATOM     31  C   UNL     1       4.397   2.781  19.283  0.00  0.00    +0.000 C 
ATOM     32  O   UNL     1       3.469   3.063  20.349  0.00  0.00    +0.000 OA
ENDBRANCH  21  24
ENDBRANCH   3  20
TORSDOF 5
ENDMDL
MODEL 4
REMARK VINA RESULT:      -9.1      0.789      1.584
REMARK  Name = 
REMARK  6 active torsions:
REMARK  status: ('A' for Active; 'I' for Inactive)
REMARK    1  A    between atoms: C_1  and  C_2
REMARK    2  A    between atoms: C_5  and  C_6
REMARK    3  A    between atoms: C_6  and  C_7
REMARK    4  A    between atoms: N_9  and  C_10
REMARK    5  A    between atoms: C_12  and  N_13
REMARK    6  A    between atoms: C_14  and  C_16
REMARK                            x       y       z     vdW  Elec       q    Type
REMARK                         _______ _______ _______ _____ _____    ______ ____
ROOT
ATOM      1  C   UNL     1       3.920   5.295  18.900  0.00  0.00    +0.000 A 
ATOM      2  C   UNL     1       3.393   6.517  19.348  0.00  0.00    +0.000 A 
ATOM      3  C   UNL     1       2.230   6.552  20.134  0.00  0.00    +0.000 A 
ATOM      4  C   UNL     1       1.598   5.342  20.461  0.00  0.00    +0.000 A 
ATOM      5  C   UNL     1       2.134   4.121  20.039  0.00  0.00    +0.000 A 
ATOM      6  C   UNL     1       3.277   4.109  19.249  0.00  0.00    +0.000 A 
ATOM      7  F   UNL     1       3.795   2.932  18.864  0.00  0.00    +0.000 F 
ENDROOT
BRANCH   1  10
ATOM      8  C   UNL     1       6.353   5.156  18.600  0.00  0.00    +0.000 C 
ATOM      9  O   UNL     1       6.624   5.086  19.797  0.00  0.00    +0.000 OA
ATOM     10  N   UNL     1       5.071   5.217  18.082  0.00  0.00    +0.000 N 
ATOM     11  H   UNL     1       4.943   4.775  17.176  0.00  0.00    +0.000 HD
BRANCH   8  12
ATOM     12  C   UNL     1       7.445   5.146  17.543  0.00  0.00    +0.000 C 
BRANCH  12  17
ATOM     13  C   UNL     1       5.553   3.464  12.284  0.00  0.00    +0.000 C 
ATOM     14  C   UNL     1       6.054   3.877  13.638  0.00  0.00    +0.000 A 
ATOM     15  C   UNL     1       5.527   3.310  14.803  0.00  0.00    +0.000 A 
ATOM     16  C   UNL     1       5.996   3.703  16.061  0.00  0.00    +0.000 A 
ATOM     17  C   UNL     1       7.005   4.669  16.180  0.00  0.00    +0.000 A 
ATOM     18  C   UNL     1       7.530   5.237  15.011  0.00  0.00    +0.000 A 
ATOM     19  C   UNL     1       7.061   4.841  13.752  0.00  0.00    +0.000 A 
ENDBRANCH  12  17
ENDBRANCH   8  12
ENDBRANCH   1  10
BRANCH   3  20
ATOM     20  N   UNL     1       1.647   7.750  20.628  0.00  0.00    +0.000 N 
ATOM     21  C   UNL     1       1.255   8.841  19.874  0.00  0.00    +0.000 C 
ATOM     22  O   UNL     1       1.370   8.961  18.657  0.00  0.00    +0.000 OA
ATOM     23  H   UNL     1       1.656   7.862  21.635  0.00  0.00    +0.000 HD
BRANCH  21  24
ATOM     24  C   UNL     1       0.691  10.003  20.625  0.00  0.00    +0.000 A 
ATOM     25  C   UNL     1       1.082  11.302  20.218  0.00  0.00    +0.000 A 
ATOM     26  C   UNL     1       0.566  12.444  20.849  0.00  0.00    +0.000 A 
ATOM     27  C   UNL     1      -0.341  12.247  21.867  0.00  0.00    +0.000 A 
ATOM     28  C   UNL     1      -0.734  10.987  22.259  0.00  0.00    +0.000 A 
ATOM     29  C   UNL     1      -0.237   9.840  21.657  0.00  0.00    +0.000 A 
ATOM     30  O   UNL     1      -1.646  11.021  23.263  0.00  0.00    +0.000 OA
ATOM     31  C   UNL     1      -1.795  12.444  23.450  0.00  0.00    +0.000 C 
ATOM     32  O   UNL     1      -0.949  13.229  22.586  0.00  0.00    +0.000 OA
ENDBRANCH  21  24
ENDBRANCH   3  20
TORSDOF 5
ENDMDL
MODEL 5
REMARK VINA RESULT:      -9.1      4.825     11.005
REMARK  Name = 
REMARK  6 active torsions:
REMARK  status: ('A' for Active; 'I' for Inactive)
REMARK    1  A    between atoms: C_1  and  C_2
REMARK    2  A    between atoms: C_5  and  C_6
REMARK    3  A    between atoms: C_6  and  C_7
REMARK    4  A    between atoms: N_9  and  C_10
REMARK    5  A    between atoms: C_12  and  N_13
REMARK    6  A    between atoms: C_14  and  C_16
REMARK                            x       y       z     vdW  Elec       q    Type
REMARK                         _______ _______ _______ _____ _____    ______ ____
ROOT
ATOM      1  C   UNL     1      -1.706  11.270  19.047  0.00  0.00    +0.000 A 
ATOM      2  C   UNL     1      -0.886  10.135  18.955  0.00  0.00    +0.000 A 
ATOM      3  C   UNL     1       0.459  10.185  19.354  0.00  0.00    +0.000 A 
ATOM      4  C   UNL     1       0.974  11.396  19.843  0.00  0.00    +0.000 A 
ATOM      5  C   UNL     1       0.155  12.524  19.960  0.00  0.00    +0.000 A 
ATOM      6  C   UNL     1      -1.170  12.457  19.546  0.00  0.00    +0.000 A 
ATOM      7  F   UNL     1      -1.955  13.537  19.679  0.00  0.00    +0.000 F 
ENDROOT
BRANCH   1  10
ATOM      8  C   UNL     1      -3.427  11.400  17.301  0.00  0.00    +0.000 C 
ATOM      9  O   UNL     1      -2.644  11.448  16.355  0.00  0.00    +0.000 OA
ATOM     10  N   UNL     1      -3.057  11.271  18.628  0.00  0.00    +0.000 N 
ATOM     11  H   UNL     1      -3.705  10.753  19.216  0.00  0.00    +0.000 HD
BRANCH   8  12
ATOM     12  C   UNL     1      -4.930  11.443  17.081  0.00  0.00    +0.000 C 
BRANCH  12  17
ATOM     13  C   UNL     1      -7.917  11.943  22.071  0.00  0.00    +0.000 C 
ATOM     14  C   UNL     1      -7.169  11.818  20.775  0.00  0.00    +0.000 A 
ATOM     15  C   UNL     1      -7.176  10.620  20.055  0.00  0.00    +0.000 A 
ATOM     16  C   UNL     1      -6.473  10.510  18.849  0.00  0.00    +0.000 A 
ATOM     17  C   UNL     1      -5.752  11.598  18.339  0.00  0.00    +0.000 A 
ATOM     18  C   UNL     1      -5.745  12.796  19.064  0.00  0.00    +0.000 A 
ATOM     19  C   UNL     1      -6.451  12.906  20.269  0.00  0.00    +0.000 A 
ENDBRANCH  12  17
ENDBRANCH   8  12
ENDBRANCH   1  10
BRANCH   3  20
ATOM     20  N   UNL     1       1.342   9.074  19.297  0.00  0.00    +0.000 N 
ATOM     21  C   UNL     1       2.105   8.689  18.209  0.00  0.00    +0.000 C 
ATOM     22  O   UNL     1       2.123   9.233  17.108  0.00  0.00    +0.000 OA
ATOM     23  H   UNL     1       1.293   8.430  20.079  0.00  0.00    +0.000 HD
BRANCH  21  24
ATOM     24  C   UNL     1       2.939   7.462  18.380  0.00  0.00    +0.000 A 
ATOM     25  C   UNL     1       2.626   6.600  19.459  0.00  0.00    +0.000 A 
ATOM     26  C   UNL     1       3.340   5.408  19.663  0.00  0.00    +0.000 A 
ATOM     27  C   UNL     1       4.342   5.111  18.766  0.00  0.00    +0.000 A 
ATOM     28  C   UNL     1       4.641   5.940  17.708  0.00  0.00    +0.000 A 
ATOM     29  C   UNL     1       3.958   7.125  17.485  0.00  0.00    +0.000 A 
ATOM     30  O   UNL     1       5.648   5.450  16.939  0.00  0.00    +0.000 OA
ATOM     31  C   UNL     1       5.937   4.212  17.623  0.00  0.00    +0.000 C 
ATOM     32  O   UNL     1       5.130   4.004  18.800  0.00  0.00    +0.000 OA
ENDBRANCH  21  24
ENDBRANCH   3  20
TORSDOF 5
ENDMDL
MODEL 6
REMARK VINA RESULT:      -9.1      4.939     11.228
REMARK  Name = 
REMARK  6 active torsions:
REMARK  status: ('A' for Active; 'I' for Inactive)
REMARK    1  A    between atoms: C_1  and  C_2
REMARK    2  A    between atoms: C_5  and  C_6
REMARK    3  A    between atoms: C_6  and  C_7
REMARK    4  A    between atoms: N_9  and  C_10
REMARK    5  A    between atoms: C_12  and  N_13
REMARK    6  A    between atoms: C_14  and  C_16
REMARK                            x       y       z     vdW  Elec       q    Type
REMARK                         _______ _______ _______ _____ _____    ______ ____
ROOT
ATOM      1  C   UNL     1      -1.254  10.729  18.351  0.00  0.00    +0.000 A 
ATOM      2  C   UNL     1      -0.435   9.654  17.972  0.00  0.00    +0.000 A 
ATOM      3  C   UNL     1       0.963   9.763  18.027  0.00  0.00    +0.000 A 
ATOM      4  C   UNL     1       1.531  10.970  18.462  0.00  0.00    +0.000 A 
ATOM      5  C   UNL     1       0.719  12.035  18.866  0.00  0.00    +0.000 A 
ATOM      6  C   UNL     1      -0.663  11.912  18.790  0.00  0.00    +0.000 A 
ATOM      7  F   UNL     1      -1.435  12.932  19.196  0.00  0.00    +0.000 F 
ENDROOT
BRANCH   1  10
ATOM      8  C   UNL     1      -3.373  11.025  17.147  0.00  0.00    +0.000 C 
ATOM      9  O   UNL     1      -2.865  11.343  16.074  0.00  0.00    +0.000 OA
ATOM     10  N   UNL     1      -2.667  10.672  18.283  0.00  0.00    +0.000 N 
ATOM     11  H   UNL     1      -3.113   9.982  18.881  0.00  0.00    +0.000 HD
BRANCH   8  12
ATOM     12  C   UNL     1      -4.882  10.954  17.313  0.00  0.00    +0.000 C 
BRANCH  12  17
ATOM     13  C   UNL     1      -7.133  15.927  19.379  0.00  0.00    +0.000 C 
ATOM     14  C   UNL     1      -6.574  14.635  18.856  0.00  0.00    +0.000 A 
ATOM     15  C   UNL     1      -5.874  13.764  19.697  0.00  0.00    +0.000 A 
ATOM     16  C   UNL     1      -5.351  12.564  19.201  0.00  0.00    +0.000 A 
ATOM     17  C   UNL     1      -5.521  12.210  17.855  0.00  0.00    +0.000 A 
ATOM     18  C   UNL     1      -6.220  13.087  17.016  0.00  0.00    +0.000 A 
ATOM     19  C   UNL     1      -6.745  14.286  17.513  0.00  0.00    +0.000 A 
ENDBRANCH  12  17
ENDBRANCH   8  12
ENDBRANCH   1  10
BRANCH   3  20
ATOM     20  N   UNL     1       1.851   8.714  17.667  0.00  0.00    +0.000 N 
ATOM     21  C   UNL     1       2.368   7.750  18.515  0.00  0.00    +0.000 C 
ATOM     22  O   UNL     1       2.161   7.662  19.722  0.00  0.00    +0.000 OA
ATOM     23  H   UNL     1       2.247   8.770  16.735  0.00  0.00    +0.000 HD
BRANCH  21  24
ATOM     24  C   UNL     1       3.310   6.763  17.908  0.00  0.00    +0.000 A 
ATOM     25  C   UNL     1       2.951   5.394  17.959  0.00  0.00    +0.000 A 
ATOM     26  C   UNL     1       3.766   4.410  17.376  0.00  0.00    +0.000 A 
ATOM     27  C   UNL     1       4.915   4.834  16.747  0.00  0.00    +0.000 A 
ATOM     28  C   UNL     1       5.262   6.165  16.682  0.00  0.00    +0.000 A 
ATOM     29  C   UNL     1       4.480   7.158  17.253  0.00  0.00    +0.000 A 
ATOM     30  O   UNL     1       6.419   6.363  16.001  0.00  0.00    +0.000 OA
ATOM     31  C   UNL     1       6.754   5.009  15.630  0.00  0.00    +0.000 C 
ATOM     32  O   UNL     1       5.817   4.030  16.123  0.00  0.00    +0.000 OA
ENDBRANCH  21  24
ENDBRANCH   3  20
TORSDOF 5
ENDMDL
MODEL 7
REMARK VINA RESULT:      -9.0      4.309     10.295
REMARK  Name = 
REMARK  6 active torsions:
REMARK  status: ('A' for Active; 'I' for Inactive)
REMARK    1  A    between atoms: C_1  and  C_2
REMARK    2  A    between atoms: C_5  and  C_6
REMARK    3  A    between atoms: C_6  and  C_7
REMARK    4  A    between atoms: N_9  and  C_10
REMARK    5  A    between atoms: C_12  and  N_13
REMARK    6  A    between atoms: C_14  and  C_16
REMARK                            x       y       z     vdW  Elec       q    Type
REMARK                         _______ _______ _______ _____ _____    ______ ____
ROOT
ATOM      1  C   UNL     1       0.851  11.848  18.857  0.00  0.00    +0.000 A 
ATOM      2  C   UNL     1       1.725  10.808  18.504  0.00  0.00    +0.000 A 
ATOM      3  C   UNL     1       1.229   9.582  18.034  0.00  0.00    +0.000 A 
ATOM      4  C   UNL     1      -0.160   9.411  17.928  0.00  0.00    +0.000 A 
ATOM      5  C   UNL     1      -1.034  10.452  18.255  0.00  0.00    +0.000 A 
ATOM      6  C   UNL     1      -0.524  11.654  18.733  0.00  0.00    +0.000 A 
ATOM      7  F   UNL     1      -1.368  12.655  19.026  0.00  0.00    +0.000 F 
ENDROOT
BRANCH   1  10
ATOM      8  C   UNL     1       1.405  13.350  20.719  0.00  0.00    +0.000 C 
ATOM      9  O   UNL     1       1.187  12.532  21.611  0.00  0.00    +0.000 OA
ATOM     10  N   UNL     1       1.307  13.088  19.364  0.00  0.00    +0.000 N 
ATOM     11  H   UNL     1       1.954  13.600  18.771  0.00  0.00    +0.000 HD
BRANCH   8  12
ATOM     12  C   UNL     1       1.853  14.766  21.043  0.00  0.00    +0.000 C 
BRANCH  12  17
ATOM     13  C   UNL     1       0.644  18.528  16.748  0.00  0.00    +0.000 C 
ATOM     14  C   UNL     1       0.964  17.579  17.866  0.00  0.00    +0.000 A 
ATOM     15  C   UNL     1       2.252  17.056  18.016  0.00  0.00    +0.000 A 
ATOM     16  C   UNL     1       2.542  16.168  19.058  0.00  0.00    +0.000 A 
ATOM     17  C   UNL     1       1.550  15.788  19.973  0.00  0.00    +0.000 A 
ATOM     18  C   UNL     1       0.260  16.312  19.818  0.00  0.00    +0.000 A 
ATOM     19  C   UNL     1      -0.028  17.203  18.776  0.00  0.00    +0.000 A 
ENDBRANCH  12  17
ENDBRANCH   8  12
ENDBRANCH   1  10
BRANCH   3  20
ATOM     20  N   UNL     1       2.054   8.492  17.651  0.00  0.00    +0.000 N 
ATOM     21  C   UNL     1       2.543   7.501  18.485  0.00  0.00    +0.000 C 
ATOM     22  O   UNL     1       2.362   7.420  19.696  0.00  0.00    +0.000 OA
ATOM     23  H   UNL     1       2.430   8.531  16.710  0.00  0.00    +0.000 HD
BRANCH  21  24
ATOM     24  C   UNL     1       3.420   6.470  17.853  0.00  0.00    +0.000 A 
ATOM     25  C   UNL     1       3.123   5.109  18.108  0.00  0.00    +0.000 A 
ATOM     26  C   UNL     1       3.877   4.081  17.520  0.00  0.00    +0.000 A 
ATOM     27  C   UNL     1       4.903   4.453  16.680  0.00  0.00    +0.000 A 
ATOM     28  C   UNL     1       5.187   5.775  16.417  0.00  0.00    +0.000 A 
ATOM     29  C   UNL     1       4.464   6.811  16.989  0.00  0.00    +0.000 A 
ATOM     30  O   UNL     1       6.222   5.917  15.550  0.00  0.00    +0.000 OA
ATOM     31  C   UNL     1       6.547   4.536  15.283  0.00  0.00    +0.000 C 
ATOM     32  O   UNL     1       5.731   3.601  16.018  0.00  0.00    +0.000 OA
ENDBRANCH  21  24
ENDBRANCH   3  20
TORSDOF 5
ENDMDL
MODEL 8
REMARK VINA RESULT:      -8.9      1.595      2.057
REMARK  Name = 
REMARK  6 active torsions:
REMARK  status: ('A' for Active; 'I' for Inactive)
REMARK    1  A    between atoms: C_1  and  C_2
REMARK    2  A    between atoms: C_5  and  C_6
REMARK    3  A    between atoms: C_6  and  C_7
REMARK    4  A    between atoms: N_9  and  C_10
REMARK    5  A    between atoms: C_12  and  N_13
REMARK    6  A    between atoms: C_14  and  C_16
REMARK                            x       y       z     vdW  Elec       q    Type
REMARK                         _______ _______ _______ _____ _____    ______ ____
ROOT
ATOM      1  C   UNL     1       3.969   5.538  18.943  0.00  0.00    +0.000 A 
ATOM      2  C   UNL     1       3.401   6.822  18.949  0.00  0.00    +0.000 A 
ATOM      3  C   UNL     1       2.265   7.102  19.724  0.00  0.00    +0.000 A 
ATOM      4  C   UNL     1       1.700   6.071  20.492  0.00  0.00    +0.000 A 
ATOM      5  C   UNL     1       2.277   4.797  20.509  0.00  0.00    +0.000 A 
ATOM      6  C   UNL     1       3.393   4.537  19.723  0.00  0.00    +0.000 A 
ATOM      7  F   UNL     1       3.951   3.317  19.760  0.00  0.00    +0.000 F 
ENDROOT
BRANCH   1  10
ATOM      8  C   UNL     1       6.381   5.173  18.663  0.00  0.00    +0.000 C 
ATOM      9  O   UNL     1       6.673   5.347  19.845  0.00  0.00    +0.000 OA
ATOM     10  N   UNL     1       5.095   5.206  18.153  0.00  0.00    +0.000 N 
ATOM     11  H   UNL     1       4.919   4.588  17.366  0.00  0.00    +0.000 HD
BRANCH   8  12
ATOM     12  C   UNL     1       7.447   4.860  17.627  0.00  0.00    +0.000 C 
BRANCH  12  17
ATOM     13  C   UNL     1       5.593   3.531  12.254  0.00  0.00    +0.000 C 
ATOM     14  C   UNL     1       6.056   3.893  13.636  0.00  0.00    +0.000 A 
ATOM     15  C   UNL     1       7.077   4.829  13.829  0.00  0.00    +0.000 A 
ATOM     16  C   UNL     1       7.506   5.158  15.120  0.00  0.00    +0.000 A 
ATOM     17  C   UNL     1       6.920   4.559  16.244  0.00  0.00    +0.000 A 
ATOM     18  C   UNL     1       5.900   3.620  16.047  0.00  0.00    +0.000 A 
ATOM     19  C   UNL     1       5.469   3.294  14.755  0.00  0.00    +0.000 A 
ENDBRANCH  12  17
ENDBRANCH   8  12
ENDBRANCH   1  10
BRANCH   3  20
ATOM     20  N   UNL     1       1.645   8.378  19.785  0.00  0.00    +0.000 N 
ATOM     21  C   UNL     1       1.467   9.253  18.727  0.00  0.00    +0.000 C 
ATOM     22  O   UNL     1       1.839   9.077  17.571  0.00  0.00    +0.000 OA
ATOM     23  H   UNL     1       1.447   8.730  20.714  0.00  0.00    +0.000 HD
BRANCH  21  24
ATOM     24  C   UNL     1       0.810  10.557  19.044  0.00  0.00    +0.000 A 
ATOM     25  C   UNL     1       1.454  11.741  18.609  0.00  0.00    +0.000 A 
ATOM     26  C   UNL     1       0.880  13.002  18.834  0.00  0.00    +0.000 A 
ATOM     27  C   UNL     1      -0.334  13.035  19.483  0.00  0.00    +0.000 A 
ATOM     28  C   UNL     1      -0.971  11.887  19.897  0.00  0.00    +0.000 A 
ATOM     29  C   UNL     1      -0.426  10.628  19.693  0.00  0.00    +0.000 A 
ATOM     30  O   UNL     1      -2.161  12.145  20.496  0.00  0.00    +0.000 OA
ATOM     31  C   UNL     1      -2.210  13.584  20.399  0.00  0.00    +0.000 C 
ATOM     32  O   UNL     1      -1.041  14.158  19.781  0.00  0.00    +0.000 OA
ENDBRANCH  21  24
ENDBRANCH   3  20
TORSDOF 5
ENDMDL
MODEL 9
REMARK VINA RESULT:      -8.9      4.180     10.421
REMARK  Name = 
REMARK  6 active torsions:
REMARK  status: ('A' for Active; 'I' for Inactive)
REMARK    1  A    between atoms: C_1  and  C_2
REMARK    2  A    between atoms: C_5  and  C_6
REMARK    3  A    between atoms: C_6  and  C_7
REMARK    4  A    between atoms: N_9  and  C_10
REMARK    5  A    between atoms: C_12  and  N_13
REMARK    6  A    between atoms: C_14  and  C_16
REMARK                            x       y       z     vdW  Elec       q    Type
REMARK                         _______ _______ _______ _____ _____    ______ ____
ROOT
ATOM      1  C   UNL     1      -0.315  10.018  20.240  0.00  0.00    +0.000 A 
ATOM      2  C   UNL     1       0.494   9.179  19.459  0.00  0.00    +0.000 A 
ATOM      3  C   UNL     1       1.458   8.351  20.057  0.00  0.00    +0.000 A 
ATOM      4  C   UNL     1       1.603   8.382  21.453  0.00  0.00    +0.000 A 
ATOM      5  C   UNL     1       0.783   9.198  22.237  0.00  0.00    +0.000 A 
ATOM      6  C   UNL     1      -0.155  10.021  21.625  0.00  0.00    +0.000 A 
ATOM      7  F   UNL     1      -0.952  10.787  22.386  0.00  0.00    +0.000 F 
ENDROOT
BRANCH   1  10
ATOM      8  C   UNL     1      -1.756  10.738  18.387  0.00  0.00    +0.000 C 
ATOM      9  O   UNL     1      -1.467   9.810  17.635  0.00  0.00    +0.000 OA
ATOM     10  N   UNL     1      -1.277  10.890  19.676  0.00  0.00    +0.000 N 
ATOM     11  H   UNL     1      -1.914  11.333  20.332  0.00  0.00    +0.000 HD
BRANCH   8  12
ATOM     12  C   UNL     1      -2.731  11.823  17.960  0.00  0.00    +0.000 C 
BRANCH  12  17
ATOM     13  C   UNL     1      -7.907  11.333  20.610  0.00  0.00    +0.000 C 
ATOM     14  C   UNL     1      -6.586  11.475  19.912  0.00  0.00    +0.000 A 
ATOM     15  C   UNL     1      -6.302  10.740  18.757  0.00  0.00    +0.000 A 
ATOM     16  C   UNL     1      -5.066  10.874  18.115  0.00  0.00    +0.000 A 
ATOM     17  C   UNL     1      -4.090  11.749  18.613  0.00  0.00    +0.000 A 
ATOM     18  C   UNL     1      -4.377  12.481  19.772  0.00  0.00    +0.000 A 
ATOM     19  C   UNL     1      -5.615  12.348  20.413  0.00  0.00    +0.000 A 
ENDBRANCH  12  17
ENDBRANCH   8  12
ENDBRANCH   1  10
BRANCH   3  20
ATOM     20  N   UNL     1       2.303   7.471  19.330  0.00  0.00    +0.000 N 
ATOM     21  C   UNL     1       2.789   7.673  18.050  0.00  0.00    +0.000 C 
ATOM     22  O   UNL     1       2.547   8.635  17.326  0.00  0.00    +0.000 OA
ATOM     23  H   UNL     1       2.441   6.553  19.737  0.00  0.00    +0.000 HD
BRANCH  21  24
ATOM     24  C   UNL     1       3.642   6.586  17.481  0.00  0.00    +0.000 A 
ATOM     25  C   UNL     1       3.249   5.248  17.724  0.00  0.00    +0.000 A 
ATOM     26  C   UNL     1       3.976   4.172  17.191  0.00  0.00    +0.000 A 
ATOM     27  C   UNL     1       5.074   4.475  16.416  0.00  0.00    +0.000 A 
ATOM     28  C   UNL     1       5.453   5.775  16.166  0.00  0.00    +0.000 A 
ATOM     29  C   UNL     1       4.757   6.857  16.684  0.00  0.00    +0.000 A 
ATOM     30  O   UNL     1       6.548   5.847  15.367  0.00  0.00    +0.000 OA
ATOM     31  C   UNL     1       6.806   4.448  15.129  0.00  0.00    +0.000 C 
ATOM     32  O   UNL     1       5.891   3.570  15.814  0.00  0.00    +0.000 OA
ENDBRANCH  21  24
ENDBRANCH   3  20
TORSDOF 5
ENDMDL
