MODEL 1
REMARK VINA RESULT:      -9.2      0.000      0.000
REMARK  Name = 
REMARK  5 active torsions:
REMARK  status: ('A' for Active; 'I' for Inactive)
REMARK    1  A    between atoms: C_1  and  C_2
REMARK    2  A    between atoms: C_7  and  C_8
REMARK    3  A    between atoms: C_10  and  N_11
REMARK    4  A    between atoms: N_11  and  C_25
REMARK    5  A    between atoms: C_12  and  C_14
REMARK                            x       y       z     vdW  Elec       q    Type
REMARK                         _______ _______ _______ _____ _____    ______ ____
ROOT
ATOM      1  N   UNL     1       1.258   9.086  19.410  0.00  0.00    +0.000 N 
ATOM      2  C   UNL     1       1.992   8.797  18.250  0.00  0.00    +0.000 C 
ATOM      3  O   UNL     1       2.215   9.588  17.340  0.00  0.00    +0.000 OA
ENDROOT
BRANCH   2   4
ATOM      4  C   UNL     1       2.598   7.458  18.077  0.00  0.00    +0.000 A 
ATOM      5  C   UNL     1       3.904   7.351  17.589  0.00  0.00    +0.000 A 
ATOM      6  C   UNL     1       4.517   6.098  17.569  0.00  0.00    +0.000 A 
ATOM      7  C   UNL     1       3.764   4.946  17.904  0.00  0.00    +0.000 A 
ATOM      8  C   UNL     1       4.257   3.650  18.102  0.00  0.00    +0.000 A 
ATOM      9  N   UNL     1       5.302   3.464  19.042  0.00  0.00    +0.000 N 
ATOM     10  N   UNL     1       3.520   2.551  17.941  0.00  0.00    +0.000 NA
ATOM     11  C   UNL     1       2.208   2.770  17.869  0.00  0.00    +0.000 A 
ATOM     12  N   UNL     1       1.605   3.952  18.081  0.00  0.00    +0.000 NA
ATOM     13  C   UNL     1       2.390   5.036  18.090  0.00  0.00    +0.000 A 
ATOM     14  C   UNL     1       1.847   6.300  18.288  0.00  0.00    +0.000 A 
ATOM     15  H   UNL     1       4.863   3.696  19.939  0.00  0.00    +0.000 HD
ATOM     16  H   UNL     1       5.447   2.453  19.073  0.00  0.00    +0.000 HD
ENDBRANCH   2   4
BRANCH   1  19
ATOM     17  C   UNL     1      -1.314  10.355  18.590  0.00  0.00    +0.000 C 
ATOM     18  C   UNL     1      -0.890  10.332  20.081  0.00  0.00    +0.000 C 
ATOM     19  C   UNL     1       0.590  10.434  19.594  0.00  0.00    +0.000 C 
ATOM     20  C   UNL     1      -0.021  11.182  18.367  0.00  0.00    +0.000 C 
BRANCH  17  27
ATOM     21  C   UNL     1      -2.495   9.869  15.850  0.00  0.00    +0.000 C 
ATOM     22  C   UNL     1      -3.256  10.703  16.849  0.00  0.00    +0.000 A 
ATOM     23  C   UNL     1      -4.531  11.179  16.490  0.00  0.00    +0.000 A 
ATOM     24  C   UNL     1      -5.286  11.943  17.372  0.00  0.00    +0.000 A 
ATOM     25  C   UNL     1      -4.761  12.234  18.634  0.00  0.00    +0.000 A 
ATOM     26  C   UNL     1      -3.504  11.754  18.999  0.00  0.00    +0.000 A 
ATOM     27  C   UNL     1      -2.716  10.959  18.137  0.00  0.00    +0.000 A 
ENDBRANCH  17  27
ENDBRANCH   1  19
BRANCH   1  28
ATOM     28  C   UNL     1       1.524   8.339  20.640  0.00  0.00    +0.000 C 
ATOM     29  C   UNL     1       0.408   8.010  21.603  0.00  0.00    +0.000 C 
ATOM     30  C   UNL     1       1.520   8.913  22.038  0.00  0.00    +0.000 C 
ENDBRANCH   1  28
TORSDOF 4
ENDMDL
MODEL 2
REMARK VINA RESULT:      -8.3      0.468      1.329
REMARK  Name = 
REMARK  5 active torsions:
REMARK  status: ('A' for Active; 'I' for Inactive)
REMARK    1  A    between atoms: C_1  and  C_2
REMARK    2  A    between atoms: C_7  and  C_8
REMARK    3  A    between atoms: C_10  and  N_11
REMARK    4  A    between atoms: N_11  and  C_25
REMARK    5  A    between atoms: C_12  and  C_14
REMARK                            x       y       z     vdW  Elec       q    Type
REMARK                         _______ _______ _______ _____ _____    ______ ____
ROOT
ATOM      1  N   UNL     1       1.445   8.929  19.313  0.00  0.00    +0.000 N 
ATOM      2  C   UNL     1       2.075   8.553  18.117  0.00  0.00    +0.000 C 
ATOM      3  O   UNL     1       2.185   9.263  17.122  0.00  0.00    +0.000 OA
ENDROOT
BRANCH   2   4
ATOM      4  C   UNL     1       2.705   7.219  18.003  0.00  0.00    +0.000 A 
ATOM      5  C   UNL     1       4.075   7.124  17.739  0.00  0.00    +0.000 A 
ATOM      6  C   UNL     1       4.685   5.870  17.781  0.00  0.00    +0.000 A 
ATOM      7  C   UNL     1       3.890   4.710  17.946  0.00  0.00    +0.000 A 
ATOM      8  C   UNL     1       4.346   3.407  18.181  0.00  0.00    +0.000 A 
ATOM      9  N   UNL     1       5.218   3.187  19.277  0.00  0.00    +0.000 N 
ATOM     10  N   UNL     1       3.650   2.316  17.861  0.00  0.00    +0.000 NA
ATOM     11  C   UNL     1       2.368   2.542  17.577  0.00  0.00    +0.000 A 
ATOM     12  N   UNL     1       1.734   3.718  17.724  0.00  0.00    +0.000 NA
ATOM     13  C   UNL     1       2.504   4.799  17.901  0.00  0.00    +0.000 A 
ATOM     14  C   UNL     1       1.932   6.056  18.046  0.00  0.00    +0.000 A 
ATOM     15  H   UNL     1       4.633   3.390  20.094  0.00  0.00    +0.000 HD
ATOM     16  H   UNL     1       5.358   2.175  19.299  0.00  0.00    +0.000 HD
ENDBRANCH   2   4
BRANCH   1  19
ATOM     17  C   UNL     1      -1.139  10.124  18.426  0.00  0.00    +0.000 C 
ATOM     18  C   UNL     1      -0.727  10.164  19.921  0.00  0.00    +0.000 C 
ATOM     19  C   UNL     1       0.755  10.272  19.441  0.00  0.00    +0.000 C 
ATOM     20  C   UNL     1       0.142  10.964  18.183  0.00  0.00    +0.000 C 
BRANCH  17  27
ATOM     21  C   UNL     1      -2.684  12.215  19.970  0.00  0.00    +0.000 C 
ATOM     22  C   UNL     1      -3.246  11.682  18.676  0.00  0.00    +0.000 A 
ATOM     23  C   UNL     1      -4.450  12.227  18.195  0.00  0.00    +0.000 A 
ATOM     24  C   UNL     1      -5.012  11.786  17.002  0.00  0.00    +0.000 A 
ATOM     25  C   UNL     1      -4.358  10.787  16.277  0.00  0.00    +0.000 A 
ATOM     26  C   UNL     1      -3.158  10.252  16.743  0.00  0.00    +0.000 A 
ATOM     27  C   UNL     1      -2.546  10.689  17.940  0.00  0.00    +0.000 A 
ENDBRANCH  17  27
ENDBRANCH   1  19
BRANCH   1  28
ATOM     28  C   UNL     1       1.852   8.303  20.571  0.00  0.00    +0.000 C 
ATOM     29  C   UNL     1       0.935   7.341  21.289  0.00  0.00    +0.000 C 
ATOM     30  C   UNL     1       1.304   8.638  21.939  0.00  0.00    +0.000 C 
ENDBRANCH   1  28
TORSDOF 4
ENDMDL
MODEL 3
REMARK VINA RESULT:      -7.9      0.988      1.624
REMARK  Name = 
REMARK  5 active torsions:
REMARK  status: ('A' for Active; 'I' for Inactive)
REMARK    1  A    between atoms: C_1  and  C_2
REMARK    2  A    between atoms: C_7  and  C_8
REMARK    3  A    between atoms: C_10  and  N_11
REMARK    4  A    between atoms: N_11  and  C_25
REMARK    5  A    between atoms: C_12  and  C_14
REMARK                            x       y       z     vdW  Elec       q    Type
REMARK                         _______ _______ _______ _____ _____    ______ ____
ROOT
ATOM      1  N   UNL     1       1.053   9.340  19.598  0.00  0.00    +0.000 N 
ATOM      2  C   UNL     1       1.888   9.023  18.517  0.00  0.00    +0.000 C 
ATOM      3  O   UNL     1       2.197   9.792  17.612  0.00  0.00    +0.000 OA
ENDROOT
BRANCH   2   4
ATOM      4  C   UNL     1       2.502   7.680  18.430  0.00  0.00    +0.000 A 
ATOM      5  C   UNL     1       2.208   6.723  19.407  0.00  0.00    +0.000 A 
ATOM      6  C   UNL     1       2.672   5.419  19.237  0.00  0.00    +0.000 A 
ATOM      7  C   UNL     1       3.544   5.121  18.162  0.00  0.00    +0.000 A 
ATOM      8  C   UNL     1       3.960   3.850  17.745  0.00  0.00    +0.000 A 
ATOM      9  N   UNL     1       2.968   2.882  17.448  0.00  0.00    +0.000 N 
ATOM     10  N   UNL     1       5.098   3.628  17.087  0.00  0.00    +0.000 NA
ATOM     11  C   UNL     1       5.670   4.724  16.588  0.00  0.00    +0.000 A 
ATOM     12  N   UNL     1       5.127   5.952  16.585  0.00  0.00    +0.000 NA
ATOM     13  C   UNL     1       4.068   6.145  17.380  0.00  0.00    +0.000 A 
ATOM     14  C   UNL     1       3.453   7.389  17.450  0.00  0.00    +0.000 A 
ATOM     15  H   UNL     1       2.498   3.266  16.621  0.00  0.00    +0.000 HD
ATOM     16  H   UNL     1       3.489   2.074  17.102  0.00  0.00    +0.000 HD
ENDBRANCH   2   4
BRANCH   1  19
ATOM     17  C   UNL     1      -1.526  10.535  18.694  0.00  0.00    +0.000 C 
ATOM     18  C   UNL     1      -1.102  10.616  20.183  0.00  0.00    +0.000 C 
ATOM     19  C   UNL     1       0.378  10.694  19.690  0.00  0.00    +0.000 C 
ATOM     20  C   UNL     1      -0.238  11.353  18.415  0.00  0.00    +0.000 C 
BRANCH  17  27
ATOM     21  C   UNL     1      -2.626   9.994  15.931  0.00  0.00    +0.000 C 
ATOM     22  C   UNL     1      -3.433  10.817  16.903  0.00  0.00    +0.000 A 
ATOM     23  C   UNL     1      -4.710  11.256  16.508  0.00  0.00    +0.000 A 
ATOM     24  C   UNL     1      -5.507  12.009  17.365  0.00  0.00    +0.000 A 
ATOM     25  C   UNL     1      -5.020  12.324  18.635  0.00  0.00    +0.000 A 
ATOM     26  C   UNL     1      -3.761  11.881  19.035  0.00  0.00    +0.000 A 
ATOM     27  C   UNL     1      -2.931  11.098  18.201  0.00  0.00    +0.000 A 
ENDBRANCH  17  27
ENDBRANCH   1  19
BRANCH   1  28
ATOM     28  C   UNL     1       1.204   8.621  20.864  0.00  0.00    +0.000 C 
ATOM     29  C   UNL     1       0.106   8.642  21.901  0.00  0.00    +0.000 C 
ATOM     30  C   UNL     1       1.434   9.256  22.215  0.00  0.00    +0.000 C 
ENDBRANCH   1  28
TORSDOF 4
ENDMDL
MODEL 4
REMARK VINA RESULT:      -7.7      1.232      1.866
REMARK  Name = 
REMARK  5 active torsions:
REMARK  status: ('A' for Active; 'I' for Inactive)
REMARK    1  A    between atoms: C_1  and  C_2
REMARK    2  A    between atoms: C_7  and  C_8
REMARK    3  A    between atoms: C_10  and  N_11
REMARK    4  A    between atoms: N_11  and  C_25
REMARK    5  A    between atoms: C_12  and  C_14
REMARK                            x       y       z     vdW  Elec       q    Type
REMARK                         _______ _______ _______ _____ _____    ______ ____
ROOT
ATOM      1  N   UNL     1       0.835   9.205  20.132  0.00  0.00    +0.000 N 
ATOM      2  C   UNL     1       1.704   8.555  19.243  0.00  0.00    +0.000 C 
ATOM      3  O   UNL     1       2.189   9.056  18.234  0.00  0.00    +0.000 OA
ENDROOT
BRANCH   2   4
ATOM      4  C   UNL     1       2.132   7.165  19.516  0.00  0.00    +0.000 A 
ATOM      5  C   UNL     1       1.501   6.436  20.530  0.00  0.00    +0.000 A 
ATOM      6  C   UNL     1       1.807   5.084  20.681  0.00  0.00    +0.000 A 
ATOM      7  C   UNL     1       2.847   4.512  19.908  0.00  0.00    +0.000 A 
ATOM      8  C   UNL     1       3.166   3.151  19.807  0.00  0.00    +0.000 A 
ATOM      9  N   UNL     1       2.142   2.246  19.432  0.00  0.00    +0.000 N 
ATOM     10  N   UNL     1       4.380   2.704  19.486  0.00  0.00    +0.000 NA
ATOM     11  C   UNL     1       5.194   3.629  18.977  0.00  0.00    +0.000 A 
ATOM     12  N   UNL     1       4.838   4.883  18.652  0.00  0.00    +0.000 NA
ATOM     13  C   UNL     1       3.666   5.319  19.128  0.00  0.00    +0.000 A 
ATOM     14  C   UNL     1       3.228   6.609  18.853  0.00  0.00    +0.000 A 
ATOM     15  H   UNL     1       1.924   2.516  18.468  0.00  0.00    +0.000 HD
ATOM     16  H   UNL     1       2.611   1.342  19.353  0.00  0.00    +0.000 HD
ENDBRANCH   2   4
BRANCH   1  19
ATOM     17  C   UNL     1      -1.579  10.454  18.904  0.00  0.00    +0.000 C 
ATOM     18  C   UNL     1      -1.119  10.866  20.326  0.00  0.00    +0.000 C 
ATOM     19  C   UNL     1       0.348  10.613  19.853  0.00  0.00    +0.000 C 
ATOM     20  C   UNL     1      -0.200  10.990  18.441  0.00  0.00    +0.000 C 
BRANCH  17  27
ATOM     21  C   UNL     1      -2.416   9.874  16.057  0.00  0.00    +0.000 C 
ATOM     22  C   UNL     1      -3.286  10.750  16.922  0.00  0.00    +0.000 A 
ATOM     23  C   UNL     1      -4.500  11.222  16.390  0.00  0.00    +0.000 A 
ATOM     24  C   UNL     1      -5.350  12.024  17.143  0.00  0.00    +0.000 A 
ATOM     25  C   UNL     1      -4.983  12.358  18.449  0.00  0.00    +0.000 A 
ATOM     26  C   UNL     1      -3.786  11.884  18.985  0.00  0.00    +0.000 A 
ATOM     27  C   UNL     1      -2.907  11.050  18.258  0.00  0.00    +0.000 A 
ENDBRANCH  17  27
ENDBRANCH   1  19
BRANCH   1  28
ATOM     28  C   UNL     1       0.781   8.781  21.531  0.00  0.00    +0.000 C 
ATOM     29  C   UNL     1       0.192   9.682  22.590  0.00  0.00    +0.000 C 
ATOM     30  C   UNL     1       1.643   9.321  22.648  0.00  0.00    +0.000 C 
ENDBRANCH   1  28
TORSDOF 4
ENDMDL
MODEL 5
REMARK VINA RESULT:      -7.6      2.059      3.003
REMARK  Name = 
REMARK  5 active torsions:
REMARK  status: ('A' for Active; 'I' for Inactive)
REMARK    1  A    between atoms: C_1  and  C_2
REMARK    2  A    between atoms: C_7  and  C_8
REMARK    3  A    between atoms: C_10  and  N_11
REMARK    4  A    between atoms: N_11  and  C_25
REMARK    5  A    between atoms: C_12  and  C_14
REMARK                            x       y       z     vdW  Elec       q    Type
REMARK                         _______ _______ _______ _____ _____    ______ ____
ROOT
ATOM      1  N   UNL     1       1.790   8.542  18.883  0.00  0.00    +0.000 N 
ATOM      2  C   UNL     1       2.556   7.929  17.881  0.00  0.00    +0.000 C 
ATOM      3  O   UNL     1       2.898   8.459  16.829  0.00  0.00    +0.000 OA
ENDROOT
BRANCH   2   4
ATOM      4  C   UNL     1       3.047   6.546  18.072  0.00  0.00    +0.000 A 
ATOM      5  C   UNL     1       4.405   6.326  18.324  0.00  0.00    +0.000 A 
ATOM      6  C   UNL     1       4.831   5.038  18.649  0.00  0.00    +0.000 A 
ATOM      7  C   UNL     1       3.917   3.959  18.577  0.00  0.00    +0.000 A 
ATOM      8  C   UNL     1       4.126   2.650  19.029  0.00  0.00    +0.000 A 
ATOM      9  N   UNL     1       4.527   2.459  20.375  0.00  0.00    +0.000 N 
ATOM     10  N   UNL     1       3.482   1.592  18.537  0.00  0.00    +0.000 NA
ATOM     11  C   UNL     1       2.413   1.889  17.798  0.00  0.00    +0.000 A 
ATOM     12  N   UNL     1       1.891   3.117  17.645  0.00  0.00    +0.000 NA
ATOM     13  C   UNL     1       2.653   4.148  18.031  0.00  0.00    +0.000 A 
ATOM     14  C   UNL     1       2.197   5.453  17.894  0.00  0.00    +0.000 A 
ATOM     15  H   UNL     1       3.714   2.775  20.915  0.00  0.00    +0.000 HD
ATOM     16  H   UNL     1       4.547   1.445  20.498  0.00  0.00    +0.000 HD
ENDBRANCH   2   4
BRANCH   1  19
ATOM     17  C   UNL     1      -0.129  10.320  20.315  0.00  0.00    +0.000 C 
ATOM     18  C   UNL     1       1.304  10.813  19.989  0.00  0.00    +0.000 C 
ATOM     19  C   UNL     1       1.238   9.941  18.695  0.00  0.00    +0.000 C 
ATOM     20  C   UNL     1      -0.300  10.197  18.779  0.00  0.00    +0.000 C 
BRANCH  17  27
ATOM     21  C   UNL     1      -0.491  10.051  23.305  0.00  0.00    +0.000 C 
ATOM     22  C   UNL     1      -1.286  11.087  22.552  0.00  0.00    +0.000 A 
ATOM     23  C   UNL     1      -2.131  11.943  23.282  0.00  0.00    +0.000 A 
ATOM     24  C   UNL     1      -2.881  12.926  22.645  0.00  0.00    +0.000 A 
ATOM     25  C   UNL     1      -2.782  13.057  21.258  0.00  0.00    +0.000 A 
ATOM     26  C   UNL     1      -1.938  12.219  20.531  0.00  0.00    +0.000 A 
ATOM     27  C   UNL     1      -1.146  11.222  21.145  0.00  0.00    +0.000 A 
ENDBRANCH  17  27
ENDBRANCH   1  19
BRANCH   1  28
ATOM     28  C   UNL     1       1.922   8.095  20.270  0.00  0.00    +0.000 C 
ATOM     29  C   UNL     1       1.794   6.633  20.627  0.00  0.00    +0.000 C 
ATOM     30  C   UNL     1       0.793   7.614  21.152  0.00  0.00    +0.000 C 
ENDBRANCH   1  28
TORSDOF 4
ENDMDL
MODEL 6
REMARK VINA RESULT:      -7.6      2.579      4.126
REMARK  Name = 
REMARK  5 active torsions:
REMARK  status: ('A' for Active; 'I' for Inactive)
REMARK    1  A    between atoms: C_1  and  C_2
REMARK    2  A    between atoms: C_7  and  C_8
REMARK    3  A    between atoms: C_10  and  N_11
REMARK    4  A    between atoms: N_11  and  C_25
REMARK    5  A    between atoms: C_12  and  C_14
REMARK                            x       y       z     vdW  Elec       q    Type
REMARK                         _______ _______ _______ _____ _____    ______ ____
ROOT
ATOM      1  N   UNL     1       0.196  11.548  19.034  0.00  0.00    +0.000 N 
ATOM      2  C   UNL     1      -0.046  10.241  18.584  0.00  0.00    +0.000 C 
ATOM      3  O   UNL     1      -1.025   9.885  17.937  0.00  0.00    +0.000 OA
ENDROOT
BRANCH   2   4
ATOM      4  C   UNL     1       0.944   9.175  18.855  0.00  0.00    +0.000 A 
ATOM      5  C   UNL     1       1.107   8.700  20.160  0.00  0.00    +0.000 A 
ATOM      6  C   UNL     1       1.933   7.598  20.380  0.00  0.00    +0.000 A 
ATOM      7  C   UNL     1       2.698   7.073  19.311  0.00  0.00    +0.000 A 
ATOM      8  C   UNL     1       3.435   5.881  19.312  0.00  0.00    +0.000 A 
ATOM      9  N   UNL     1       2.771   4.680  19.667  0.00  0.00    +0.000 N 
ATOM     10  N   UNL     1       4.482   5.664  18.516  0.00  0.00    +0.000 NA
ATOM     11  C   UNL     1       4.603   6.533  17.512  0.00  0.00    +0.000 A 
ATOM     12  N   UNL     1       3.703   7.475  17.187  0.00  0.00    +0.000 NA
ATOM     13  C   UNL     1       2.757   7.744  18.095  0.00  0.00    +0.000 A 
ATOM     14  C   UNL     1       1.795   8.715  17.847  0.00  0.00    +0.000 A 
ATOM     15  H   UNL     1       2.094   4.546  18.908  0.00  0.00    +0.000 HD
ATOM     16  H   UNL     1       3.469   3.947  19.530  0.00  0.00    +0.000 HD
ENDBRANCH   2   4
BRANCH   1  19
ATOM     17  C   UNL     1      -2.281  12.512  20.386  0.00  0.00    +0.000 C 
ATOM     18  C   UNL     1      -1.116  13.492  20.089  0.00  0.00    +0.000 C 
ATOM     19  C   UNL     1      -0.821  12.648  18.808  0.00  0.00    +0.000 C 
ATOM     20  C   UNL     1      -2.349  12.327  18.848  0.00  0.00    +0.000 C 
BRANCH  17  27
ATOM     21  C   UNL     1      -2.683  11.997  23.338  0.00  0.00    +0.000 C 
ATOM     22  C   UNL     1      -3.739  12.746  22.565  0.00  0.00    +0.000 A 
ATOM     23  C   UNL     1      -4.857  13.238  23.264  0.00  0.00    +0.000 A 
ATOM     24  C   UNL     1      -5.858  13.947  22.608  0.00  0.00    +0.000 A 
ATOM     25  C   UNL     1      -5.739  14.169  21.234  0.00  0.00    +0.000 A 
ATOM     26  C   UNL     1      -4.628  13.693  20.539  0.00  0.00    +0.000 A 
ATOM     27  C   UNL     1      -3.581  12.987  21.174  0.00  0.00    +0.000 A 
ENDBRANCH  17  27
ENDBRANCH   1  19
BRANCH   1  28
ATOM     28  C   UNL     1       1.571  11.993  19.258  0.00  0.00    +0.000 C 
ATOM     29  C   UNL     1       1.962  13.436  19.045  0.00  0.00    +0.000 C 
ATOM     30  C   UNL     1       2.561  12.371  18.181  0.00  0.00    +0.000 C 
ENDBRANCH   1  28
TORSDOF 4
ENDMDL
MODEL 7
REMARK VINA RESULT:      -7.6      3.379      4.365
REMARK  Name = 
REMARK  5 active torsions:
REMARK  status: ('A' for Active; 'I' for Inactive)
REMARK    1  A    between atoms: C_1  and  C_2
REMARK    2  A    between atoms: C_7  and  C_8
REMARK    3  A    between atoms: C_10  and  N_11
REMARK    4  A    between atoms: N_11  and  C_25
REMARK    5  A    between atoms: C_12  and  C_14
REMARK                            x       y       z     vdW  Elec       q    Type
REMARK                         _______ _______ _______ _____ _____    ______ ____
ROOT
ATOM      1  N   UNL     1       1.850   7.253  19.965  0.00  0.00    +0.000 N 
ATOM      2  C   UNL     1       2.448   5.991  20.106  0.00  0.00    +0.000 C 
ATOM      3  O   UNL     1       2.202   5.187  20.999  0.00  0.00    +0.000 OA
ENDROOT
BRANCH   2   4
ATOM      4  C   UNL     1       3.435   5.530  19.105  0.00  0.00    +0.000 A 
ATOM      5  C   UNL     1       2.992   4.888  17.944  0.00  0.00    +0.000 A 
ATOM      6  C   UNL     1       3.915   4.590  16.942  0.00  0.00    +0.000 A 
ATOM      7  C   UNL     1       5.294   4.809  17.174  0.00  0.00    +0.000 A 
ATOM      8  C   UNL     1       6.327   4.731  16.231  0.00  0.00    +0.000 A 
ATOM      9  N   UNL     1       6.217   5.504  15.047  0.00  0.00    +0.000 N 
ATOM     10  N   UNL     1       7.595   4.470  16.549  0.00  0.00    +0.000 NA
ATOM     11  C   UNL     1       7.873   4.582  17.848  0.00  0.00    +0.000 A 
ATOM     12  N   UNL     1       7.034   5.056  18.784  0.00  0.00    +0.000 NA
ATOM     13  C   UNL     1       5.745   5.159  18.441  0.00  0.00    +0.000 A 
ATOM     14  C   UNL     1       4.806   5.625  19.354  0.00  0.00    +0.000 A 
ATOM     15  H   UNL     1       6.271   6.470  15.386  0.00  0.00    +0.000 HD
ATOM     16  H   UNL     1       7.098   5.349  14.553  0.00  0.00    +0.000 HD
ENDBRANCH   2   4
BRANCH   1  19
ATOM     17  C   UNL     1       0.886   9.919  20.890  0.00  0.00    +0.000 C 
ATOM     18  C   UNL     1      -0.124   8.833  20.434  0.00  0.00    +0.000 C 
ATOM     19  C   UNL     1       0.869   7.768  20.998  0.00  0.00    +0.000 C 
ATOM     20  C   UNL     1       1.290   8.901  21.987  0.00  0.00    +0.000 C 
BRANCH  17  27
ATOM     21  C   UNL     1       1.851  12.432  19.515  0.00  0.00    +0.000 C 
ATOM     22  C   UNL     1       0.856  12.539  20.644  0.00  0.00    +0.000 A 
ATOM     23  C   UNL     1       0.360  13.812  20.979  0.00  0.00    +0.000 A 
ATOM     24  C   UNL     1      -0.568  13.973  22.003  0.00  0.00    +0.000 A 
ATOM     25  C   UNL     1      -1.008  12.845  22.698  0.00  0.00    +0.000 A 
ATOM     26  C   UNL     1      -0.528  11.580  22.361  0.00  0.00    +0.000 A 
ATOM     27  C   UNL     1       0.400  11.374  21.316  0.00  0.00    +0.000 A 
ENDBRANCH  17  27
ENDBRANCH   1  19
BRANCH   1  28
ATOM     28  C   UNL     1       1.752   7.863  18.639  0.00  0.00    +0.000 C 
ATOM     29  C   UNL     1       2.983   8.067  17.789  0.00  0.00    +0.000 C 
ATOM     30  C   UNL     1       2.212   9.255  18.274  0.00  0.00    +0.000 C 
ENDBRANCH   1  28
TORSDOF 4
ENDMDL
MODEL 8
REMARK VINA RESULT:      -7.5      3.250      4.642
REMARK  Name = 
REMARK  5 active torsions:
REMARK  status: ('A' for Active; 'I' for Inactive)
REMARK    1  A    between atoms: C_1  and  C_2
REMARK    2  A    between atoms: C_7  and  C_8
REMARK    3  A    between atoms: C_10  and  N_11
REMARK    4  A    between atoms: N_11  and  C_25
REMARK    5  A    between atoms: C_12  and  C_14
REMARK                            x       y       z     vdW  Elec       q    Type
REMARK                         _______ _______ _______ _____ _____    ______ ____
ROOT
ATOM      1  N   UNL     1      -0.383  10.786  19.290  0.00  0.00    +0.000 N 
ATOM      2  C   UNL     1       0.767  10.336  19.955  0.00  0.00    +0.000 C 
ATOM      3  O   UNL     1       1.297  10.895  20.910  0.00  0.00    +0.000 OA
ENDROOT
BRANCH   2   4
ATOM      4  C   UNL     1       1.414   9.073  19.535  0.00  0.00    +0.000 A 
ATOM      5  C   UNL     1       1.893   8.945  18.227  0.00  0.00    +0.000 A 
ATOM      6  C   UNL     1       2.630   7.812  17.885  0.00  0.00    +0.000 A 
ATOM      7  C   UNL     1       2.756   6.752  18.816  0.00  0.00    +0.000 A 
ATOM      8  C   UNL     1       3.591   5.633  18.706  0.00  0.00    +0.000 A 
ATOM      9  N   UNL     1       4.975   5.846  18.484  0.00  0.00    +0.000 N 
ATOM     10  N   UNL     1       3.348   4.472  19.315  0.00  0.00    +0.000 NA
ATOM     11  C   UNL     1       2.423   4.533  20.272  0.00  0.00    +0.000 A 
ATOM     12  N   UNL     1       1.854   5.659  20.733  0.00  0.00    +0.000 NA
ATOM     13  C   UNL     1       2.019   6.764  19.995  0.00  0.00    +0.000 A 
ATOM     14  C   UNL     1       1.452   7.969  20.390  0.00  0.00    +0.000 A 
ATOM     15  H   UNL     1       5.289   6.299  19.349  0.00  0.00    +0.000 HD
ATOM     16  H   UNL     1       5.389   4.912  18.511  0.00  0.00    +0.000 HD
ENDBRANCH   2   4
BRANCH   1  19
ATOM     17  C   UNL     1       0.231  13.686  18.962  0.00  0.00    +0.000 C 
ATOM     18  C   UNL     1      -1.130  13.113  18.488  0.00  0.00    +0.000 C 
ATOM     19  C   UNL     1      -1.039  12.097  19.672  0.00  0.00    +0.000 C 
ATOM     20  C   UNL     1      -0.208  13.217  20.374  0.00  0.00    +0.000 C 
BRANCH  17  27
ATOM     21  C   UNL     1       3.078  14.621  18.564  0.00  0.00    +0.000 C 
ATOM     22  C   UNL     1       1.955  15.627  18.530  0.00  0.00    +0.000 A 
ATOM     23  C   UNL     1       2.268  16.969  18.248  0.00  0.00    +0.000 A 
ATOM     24  C   UNL     1       1.275  17.941  18.191  0.00  0.00    +0.000 A 
ATOM     25  C   UNL     1      -0.051  17.564  18.416  0.00  0.00    +0.000 A 
ATOM     26  C   UNL     1      -0.368  16.233  18.683  0.00  0.00    +0.000 A 
ATOM     27  C   UNL     1       0.611  15.215  18.730  0.00  0.00    +0.000 A 
ENDBRANCH  17  27
ENDBRANCH   1  19
BRANCH   1  28
ATOM     28  C   UNL     1      -1.244   9.824  18.602  0.00  0.00    +0.000 C 
ATOM     29  C   UNL     1      -1.511   9.946  17.120  0.00  0.00    +0.000 C 
ATOM     30  C   UNL     1      -2.639  10.098  18.092  0.00  0.00    +0.000 C 
ENDBRANCH   1  28
TORSDOF 4
ENDMDL
MODEL 9
REMARK VINA RESULT:      -7.5      3.202      4.849
REMARK  Name = 
REMARK  5 active torsions:
REMARK  status: ('A' for Active; 'I' for Inactive)
REMARK    1  A    between atoms: C_1  and  C_2
REMARK    2  A    between atoms: C_7  and  C_8
REMARK    3  A    between atoms: C_10  and  N_11
REMARK    4  A    between atoms: N_11  and  C_25
REMARK    5  A    between atoms: C_12  and  C_14
REMARK                            x       y       z     vdW  Elec       q    Type
REMARK                         _______ _______ _______ _____ _____    ______ ____
ROOT
ATOM      1  N   UNL     1      -0.388  10.824  19.700  0.00  0.00    +0.000 N 
ATOM      2  C   UNL     1       0.651  10.302  20.486  0.00  0.00    +0.000 C 
ATOM      3  O   UNL     1       1.111  10.831  21.492  0.00  0.00    +0.000 OA
ENDROOT
BRANCH   2   4
ATOM      4  C   UNL     1       1.252   8.996  20.138  0.00  0.00    +0.000 A 
ATOM      5  C   UNL     1       1.191   7.942  21.056  0.00  0.00    +0.000 A 
ATOM      6  C   UNL     1       1.627   6.677  20.662  0.00  0.00    +0.000 A 
ATOM      7  C   UNL     1       2.251   6.513  19.402  0.00  0.00    +0.000 A 
ATOM      8  C   UNL     1       2.587   5.302  18.783  0.00  0.00    +0.000 A 
ATOM      9  N   UNL     1       1.570   4.331  18.609  0.00  0.00    +0.000 N 
ATOM     10  N   UNL     1       3.560   5.185  17.879  0.00  0.00    +0.000 NA
ATOM     11  C   UNL     1       3.995   6.342  17.380  0.00  0.00    +0.000 A 
ATOM     12  N   UNL     1       3.445   7.545  17.615  0.00  0.00    +0.000 NA
ATOM     13  C   UNL     1       2.579   7.623  18.632  0.00  0.00    +0.000 A 
ATOM     14  C   UNL     1       1.975   8.832  18.954  0.00  0.00    +0.000 A 
ATOM     15  H   UNL     1       0.927   4.773  17.944  0.00  0.00    +0.000 HD
ATOM     16  H   UNL     1       2.017   3.578  18.083  0.00  0.00    +0.000 HD
ENDBRANCH   2   4
BRANCH   1  19
ATOM     17  C   UNL     1       0.275  13.671  19.109  0.00  0.00    +0.000 C 
ATOM     18  C   UNL     1      -1.122  13.100  18.754  0.00  0.00    +0.000 C 
ATOM     19  C   UNL     1      -0.991  12.179  20.009  0.00  0.00    +0.000 C 
ATOM     20  C   UNL     1      -0.097  13.328  20.574  0.00  0.00    +0.000 C 
BRANCH  17  27
ATOM     21  C   UNL     1       3.137  14.525  18.640  0.00  0.00    +0.000 C 
ATOM     22  C   UNL     1       2.029  15.538  18.504  0.00  0.00    +0.000 A 
ATOM     23  C   UNL     1       2.363  16.843  18.099  0.00  0.00    +0.000 A 
ATOM     24  C   UNL     1       1.383  17.819  17.944  0.00  0.00    +0.000 A 
ATOM     25  C   UNL     1       0.051  17.484  18.196  0.00  0.00    +0.000 A 
ATOM     26  C   UNL     1      -0.286  16.188  18.586  0.00  0.00    +0.000 A 
ATOM     27  C   UNL     1       0.678  15.165  18.735  0.00  0.00    +0.000 A 
ENDBRANCH  17  27
ENDBRANCH   1  19
BRANCH   1  28
ATOM     28  C   UNL     1      -1.232   9.917  18.923  0.00  0.00    +0.000 C 
ATOM     29  C   UNL     1      -1.161   9.896  17.414  0.00  0.00    +0.000 C 
ATOM     30  C   UNL     1      -2.427  10.322  18.091  0.00  0.00    +0.000 C 
ENDBRANCH   1  28
TORSDOF 4
ENDMDL
