MODEL 1
REMARK VINA RESULT:      -8.8      0.000      0.000
REMARK  Name = 
REMARK  8 active torsions:
REMARK  status: ('A' for Active; 'I' for Inactive)
REMARK    1  A    between atoms: C_1  and  C_2
REMARK    2  A    between atoms: C_5  and  C_6
REMARK    3  A    between atoms: C_9  and  C_10
REMARK    4  A    between atoms: C_10  and  N_11
REMARK    5  A    between atoms: N_11  and  C_12
REMARK    6  A    between atoms: C_12  and  C_13
REMARK    7  A    between atoms: C_12  and  C_20
REMARK    8  A    between atoms: C_13  and  C_14
REMARK                            x       y       z     vdW  Elec       q    Type
REMARK                         _______ _______ _______ _____ _____    ______ ____
ROOT
ATOM      1  N   UNL     1       1.875   7.121  18.154  0.00  0.00    +0.000 NA
ATOM      2  H   UNL     1       1.369   6.720  17.363  0.00  0.00    +0.000 HD
ENDROOT
BRANCH   1   3
ATOM      3  C   UNL     1       2.382   8.439  17.762  0.00  0.00    +0.000 C 
BRANCH   3   7
ATOM      4  C   UNL     1       0.566  10.793  19.733  0.00  0.00    +0.000 A 
ATOM      5  N   UNL     1       1.275  11.647  18.975  0.00  0.00    +0.000 NA
ATOM      6  O   UNL     1       2.058  10.812  18.178  0.00  0.00    +0.000 OA
ATOM      7  C   UNL     1       1.738   9.537  18.530  0.00  0.00    +0.000 A 
ATOM      8  N   UNL     1       0.836   9.465  19.482  0.00  0.00    +0.000 NA
BRANCH   4  13
ATOM      9  C   UNL     1      -3.284  12.443  23.707  0.00  0.00    +0.000 C 
ATOM     10  C   UNL     1      -2.303  12.004  22.662  0.00  0.00    +0.000 A 
ATOM     11  C   UNL     1      -2.395  12.473  21.348  0.00  0.00    +0.000 A 
ATOM     12  C   UNL     1      -1.462  12.075  20.386  0.00  0.00    +0.000 A 
ATOM     13  C   UNL     1      -0.418  11.205  20.724  0.00  0.00    +0.000 A 
ATOM     14  C   UNL     1      -0.335  10.728  22.041  0.00  0.00    +0.000 A 
ATOM     15  C   UNL     1      -1.269  11.125  23.001  0.00  0.00    +0.000 A 
ENDBRANCH   4  13
ENDBRANCH   3   7
ENDBRANCH   1   3
BRANCH   1  16
ATOM     16  C   UNL     1       2.923   6.175  18.586  0.00  0.00    +0.000 C 
BRANCH  16  17
ATOM     17  C   UNL     1       2.312   4.942  19.253  0.00  0.00    +0.000 A 
ATOM     18  C   UNL     1       1.552   3.998  18.539  0.00  0.00    +0.000 A 
ATOM     19  C   UNL     1       0.950   2.919  19.188  0.00  0.00    +0.000 A 
ATOM     20  C   UNL     1       1.096   2.761  20.563  0.00  0.00    +0.000 A 
ATOM     21  C   UNL     1       1.844   3.684  21.290  0.00  0.00    +0.000 A 
ATOM     22  C   UNL     1       2.442   4.768  20.641  0.00  0.00    +0.000 A 
ENDBRANCH  16  17
BRANCH  16  23
ATOM     23  C   UNL     1       3.978   5.834  17.492  0.00  0.00    +0.000 C 
BRANCH  23  24
ATOM     24  C   UNL     1       5.419   6.093  17.880  0.00  0.00    +0.000 A 
ATOM     25  C   UNL     1       6.030   5.372  18.913  0.00  0.00    +0.000 A 
ATOM     26  C   UNL     1       7.354   5.634  19.273  0.00  0.00    +0.000 A 
ATOM     27  C   UNL     1       8.084   6.611  18.599  0.00  0.00    +0.000 A 
ATOM     28  C   UNL     1       7.493   7.322  17.556  0.00  0.00    +0.000 A 
ATOM     29  C   UNL     1       6.171   7.062  17.196  0.00  0.00    +0.000 A 
ENDBRANCH  23  24
ENDBRANCH  16  23
ENDBRANCH   1  16
TORSDOF 7
ENDMDL
MODEL 2
REMARK VINA RESULT:      -8.8      3.514      7.664
REMARK  Name = 
REMARK  8 active torsions:
REMARK  status: ('A' for Active; 'I' for Inactive)
REMARK    1  A    between atoms: C_1  and  C_2
REMARK    2  A    between atoms: C_5  and  C_6
REMARK    3  A    between atoms: C_9  and  C_10
REMARK    4  A    between atoms: C_10  and  N_11
REMARK    5  A    between atoms: N_11  and  C_12
REMARK    6  A    between atoms: C_12  and  C_13
REMARK    7  A    between atoms: C_12  and  C_20
REMARK    8  A    between atoms: C_13  and  C_14
REMARK                            x       y       z     vdW  Elec       q    Type
REMARK                         _______ _______ _______ _____ _____    ______ ____
ROOT
ATOM      1  N   UNL     1       4.691   6.689  16.668  0.00  0.00    +0.000 NA
ATOM      2  H   UNL     1       4.252   6.458  15.776  0.00  0.00    +0.000 HD
ENDROOT
BRANCH   1   3
ATOM      3  C   UNL     1       6.083   6.232  16.634  0.00  0.00    +0.000 C 
BRANCH   3   7
ATOM      4  C   UNL     1       8.180   8.632  18.236  0.00  0.00    +0.000 A 
ATOM      5  N   UNL     1       8.553   7.532  18.912  0.00  0.00    +0.000 NA
ATOM      6  O   UNL     1       7.753   6.525  18.376  0.00  0.00    +0.000 OA
ATOM      7  C   UNL     1       6.980   7.115  17.424  0.00  0.00    +0.000 A 
ATOM      8  N   UNL     1       7.194   8.405  17.300  0.00  0.00    +0.000 NA
BRANCH   4  13
ATOM      9  C   UNL     1      10.413  13.896  19.041  0.00  0.00    +0.000 C 
ATOM     10  C   UNL     1       9.857  12.520  18.828  0.00  0.00    +0.000 A 
ATOM     11  C   UNL     1      10.223  11.459  19.661  0.00  0.00    +0.000 A 
ATOM     12  C   UNL     1       9.681  10.186  19.468  0.00  0.00    +0.000 A 
ATOM     13  C   UNL     1       8.760   9.953  18.439  0.00  0.00    +0.000 A 
ATOM     14  C   UNL     1       8.402  11.017  17.599  0.00  0.00    +0.000 A 
ATOM     15  C   UNL     1       8.945  12.290  17.791  0.00  0.00    +0.000 A 
ENDBRANCH   4  13
ENDBRANCH   3   7
ENDBRANCH   1   3
BRANCH   1  16
ATOM     16  C   UNL     1       3.891   6.106  17.764  0.00  0.00    +0.000 C 
BRANCH  16  17
ATOM     17  C   UNL     1       2.916   7.133  18.341  0.00  0.00    +0.000 A 
ATOM     18  C   UNL     1       2.467   8.243  17.603  0.00  0.00    +0.000 A 
ATOM     19  C   UNL     1       1.630   9.200  18.179  0.00  0.00    +0.000 A 
ATOM     20  C   UNL     1       1.225   9.067  19.504  0.00  0.00    +0.000 A 
ATOM     21  C   UNL     1       1.657   7.976  20.253  0.00  0.00    +0.000 A 
ATOM     22  C   UNL     1       2.499   7.020  19.678  0.00  0.00    +0.000 A 
ENDBRANCH  16  17
BRANCH  16  23
ATOM     23  C   UNL     1       3.228   4.737  17.424  0.00  0.00    +0.000 C 
BRANCH  23  24
ATOM     24  C   UNL     1       2.674   3.975  18.609  0.00  0.00    +0.000 A 
ATOM     25  C   UNL     1       1.302   3.718  18.726  0.00  0.00    +0.000 A 
ATOM     26  C   UNL     1       0.803   3.029  19.834  0.00  0.00    +0.000 A 
ATOM     27  C   UNL     1       1.668   2.583  20.830  0.00  0.00    +0.000 A 
ATOM     28  C   UNL     1       3.037   2.815  20.716  0.00  0.00    +0.000 A 
ATOM     29  C   UNL     1       3.538   3.504  19.611  0.00  0.00    +0.000 A 
ENDBRANCH  23  24
ENDBRANCH  16  23
ENDBRANCH   1  16
TORSDOF 7
ENDMDL
MODEL 3
REMARK VINA RESULT:      -8.7      5.611      7.434
REMARK  Name = 
REMARK  8 active torsions:
REMARK  status: ('A' for Active; 'I' for Inactive)
REMARK    1  A    between atoms: C_1  and  C_2
REMARK    2  A    between atoms: C_5  and  C_6
REMARK    3  A    between atoms: C_9  and  C_10
REMARK    4  A    between atoms: C_10  and  N_11
REMARK    5  A    between atoms: N_11  and  C_12
REMARK    6  A    between atoms: C_12  and  C_13
REMARK    7  A    between atoms: C_12  and  C_20
REMARK    8  A    between atoms: C_13  and  C_14
REMARK                            x       y       z     vdW  Elec       q    Type
REMARK                         _______ _______ _______ _____ _____    ______ ____
ROOT
ATOM      1  N   UNL     1       6.008   5.197  18.293  0.00  0.00    +0.000 NA
ATOM      2  H   UNL     1       5.545   6.077  18.522  0.00  0.00    +0.000 HD
ENDROOT
BRANCH   1   3
ATOM      3  C   UNL     1       7.424   5.468  18.035  0.00  0.00    +0.000 C 
BRANCH   3   7
ATOM      4  C   UNL     1       8.304   8.920  18.203  0.00  0.00    +0.000 A 
ATOM      5  N   UNL     1       7.353   8.985  17.256  0.00  0.00    +0.000 NA
ATOM      6  O   UNL     1       6.960   7.658  17.088  0.00  0.00    +0.000 OA
ATOM      7  C   UNL     1       7.709   6.925  17.957  0.00  0.00    +0.000 A 
ATOM      8  N   UNL     1       8.554   7.644  18.659  0.00  0.00    +0.000 NA
BRANCH   4  13
ATOM      9  C   UNL     1      11.142  13.470  20.345  0.00  0.00    +0.000 C 
ATOM     10  C   UNL     1      10.390  12.305  19.776  0.00  0.00    +0.000 A 
ATOM     11  C   UNL     1      10.360  12.073  18.398  0.00  0.00    +0.000 A 
ATOM     12  C   UNL     1       9.676  10.970  17.879  0.00  0.00    +0.000 A 
ATOM     13  C   UNL     1       9.012  10.079  18.732  0.00  0.00    +0.000 A 
ATOM     14  C   UNL     1       9.035  10.321  20.113  0.00  0.00    +0.000 A 
ATOM     15  C   UNL     1       9.719  11.424  20.631  0.00  0.00    +0.000 A 
ENDBRANCH   4  13
ENDBRANCH   3   7
ENDBRANCH   1   3
BRANCH   1  16
ATOM     16  C   UNL     1       5.299   4.559  17.166  0.00  0.00    +0.000 C 
BRANCH  16  17
ATOM     17  C   UNL     1       3.989   3.920  17.627  0.00  0.00    +0.000 A 
ATOM     18  C   UNL     1       3.883   2.547  17.916  0.00  0.00    +0.000 A 
ATOM     19  C   UNL     1       2.659   1.978  18.270  0.00  0.00    +0.000 A 
ATOM     20  C   UNL     1       1.516   2.770  18.343  0.00  0.00    +0.000 A 
ATOM     21  C   UNL     1       1.598   4.131  18.061  0.00  0.00    +0.000 A 
ATOM     22  C   UNL     1       2.823   4.699  17.701  0.00  0.00    +0.000 A 
ENDBRANCH  16  17
BRANCH  16  23
ATOM     23  C   UNL     1       5.144   5.463  15.906  0.00  0.00    +0.000 C 
BRANCH  23  24
ATOM     24  C   UNL     1       5.819   4.947  14.652  0.00  0.00    +0.000 A 
ATOM     25  C   UNL     1       5.188   4.008  13.826  0.00  0.00    +0.000 A 
ATOM     26  C   UNL     1       5.830   3.527  12.682  0.00  0.00    +0.000 A 
ATOM     27  C   UNL     1       7.103   3.985  12.348  0.00  0.00    +0.000 A 
ATOM     28  C   UNL     1       7.732   4.934  13.151  0.00  0.00    +0.000 A 
ATOM     29  C   UNL     1       7.093   5.415  14.294  0.00  0.00    +0.000 A 
ENDBRANCH  23  24
ENDBRANCH  16  23
ENDBRANCH   1  16
TORSDOF 7
ENDMDL
MODEL 4
REMARK VINA RESULT:      -8.7      4.721      8.244
REMARK  Name = 
REMARK  8 active torsions:
REMARK  status: ('A' for Active; 'I' for Inactive)
REMARK    1  A    between atoms: C_1  and  C_2
REMARK    2  A    between atoms: C_5  and  C_6
REMARK    3  A    between atoms: C_9  and  C_10
REMARK    4  A    between atoms: C_10  and  N_11
REMARK    5  A    between atoms: N_11  and  C_12
REMARK    6  A    between atoms: C_12  and  C_13
REMARK    7  A    between atoms: C_12  and  C_20
REMARK    8  A    between atoms: C_13  and  C_14
REMARK                            x       y       z     vdW  Elec       q    Type
REMARK                         _______ _______ _______ _____ _____    ______ ____
ROOT
ATOM      1  N   UNL     1       7.396   4.560  17.011  0.00  0.00    +0.000 NA
ATOM      2  H   UNL     1       7.449   3.563  17.223  0.00  0.00    +0.000 HD
ENDROOT
BRANCH   1   3
ATOM      3  C   UNL     1       7.374   5.304  18.273  0.00  0.00    +0.000 C 
BRANCH   3   7
ATOM      4  C   UNL     1       8.310   8.745  18.193  0.00  0.00    +0.000 A 
ATOM      5  N   UNL     1       7.489   8.719  17.129  0.00  0.00    +0.000 NA
ATOM      6  O   UNL     1       7.088   7.386  17.051  0.00  0.00    +0.000 OA
ATOM      7  C   UNL     1       7.702   6.741  18.080  0.00  0.00    +0.000 A 
ATOM      8  N   UNL     1       8.468   7.522  18.808  0.00  0.00    +0.000 NA
BRANCH   4  13
ATOM      9  C   UNL     1      10.977  13.464  20.184  0.00  0.00    +0.000 C 
ATOM     10  C   UNL     1      10.266  12.253  19.657  0.00  0.00    +0.000 A 
ATOM     11  C   UNL     1      10.079  12.072  18.284  0.00  0.00    +0.000 A 
ATOM     12  C   UNL     1       9.435  10.928  17.801  0.00  0.00    +0.000 A 
ATOM     13  C   UNL     1       8.972   9.946  18.685  0.00  0.00    +0.000 A 
ATOM     14  C   UNL     1       9.152  10.137  20.063  0.00  0.00    +0.000 A 
ATOM     15  C   UNL     1       9.795  11.280  20.545  0.00  0.00    +0.000 A 
ENDBRANCH   4  13
ENDBRANCH   3   7
ENDBRANCH   1   3
BRANCH   1  16
ATOM     16  C   UNL     1       6.227   4.807  16.143  0.00  0.00    +0.000 C 
BRANCH  16  17
ATOM     17  C   UNL     1       6.570   4.566  14.673  0.00  0.00    +0.000 A 
ATOM     18  C   UNL     1       7.530   5.333  13.988  0.00  0.00    +0.000 A 
ATOM     19  C   UNL     1       7.774   5.136  12.628  0.00  0.00    +0.000 A 
ATOM     20  C   UNL     1       7.064   4.166  11.926  0.00  0.00    +0.000 A 
ATOM     21  C   UNL     1       6.110   3.395  12.583  0.00  0.00    +0.000 A 
ATOM     22  C   UNL     1       5.861   3.597  13.944  0.00  0.00    +0.000 A 
ENDBRANCH  16  17
BRANCH  16  23
ATOM     23  C   UNL     1       4.919   4.098  16.604  0.00  0.00    +0.000 C 
BRANCH  23  24
ATOM     24  C   UNL     1       4.014   4.925  17.493  0.00  0.00    +0.000 A 
ATOM     25  C   UNL     1       3.294   4.336  18.540  0.00  0.00    +0.000 A 
ATOM     26  C   UNL     1       2.450   5.108  19.341  0.00  0.00    +0.000 A 
ATOM     27  C   UNL     1       2.322   6.476  19.110  0.00  0.00    +0.000 A 
ATOM     28  C   UNL     1       3.048   7.078  18.084  0.00  0.00    +0.000 A 
ATOM     29  C   UNL     1       3.891   6.308  17.283  0.00  0.00    +0.000 A 
ENDBRANCH  23  24
ENDBRANCH  16  23
ENDBRANCH   1  16
TORSDOF 7
ENDMDL
MODEL 5
REMARK VINA RESULT:      -8.7      5.541      7.586
REMARK  Name = 
REMARK  8 active torsions:
REMARK  status: ('A' for Active; 'I' for Inactive)
REMARK    1  A    between atoms: C_1  and  C_2
REMARK    2  A    between atoms: C_5  and  C_6
REMARK    3  A    between atoms: C_9  and  C_10
REMARK    4  A    between atoms: C_10  and  N_11
REMARK    5  A    between atoms: N_11  and  C_12
REMARK    6  A    between atoms: C_12  and  C_13
REMARK    7  A    between atoms: C_12  and  C_20
REMARK    8  A    between atoms: C_13  and  C_14
REMARK                            x       y       z     vdW  Elec       q    Type
REMARK                         _______ _______ _______ _____ _____    ______ ____
ROOT
ATOM      1  N   UNL     1       5.893   5.552  18.230  0.00  0.00    +0.000 NA
ATOM      2  H   UNL     1       5.453   6.472  18.284  0.00  0.00    +0.000 HD
ENDROOT
BRANCH   1   3
ATOM      3  C   UNL     1       7.346   5.732  18.184  0.00  0.00    +0.000 C 
BRANCH   3   7
ATOM      4  C   UNL     1       8.426   9.132  18.236  0.00  0.00    +0.000 A 
ATOM      5  N   UNL     1       7.563   9.195  17.208  0.00  0.00    +0.000 NA
ATOM      6  O   UNL     1       7.102   7.885  17.081  0.00  0.00    +0.000 OA
ATOM      7  C   UNL     1       7.728   7.163  18.050  0.00  0.00    +0.000 A 
ATOM      8  N   UNL     1       8.556   7.873  18.782  0.00  0.00    +0.000 NA
BRANCH   4  13
ATOM      9  C   UNL     1      11.288  13.714  20.274  0.00  0.00    +0.000 C 
ATOM     10  C   UNL     1      10.563  12.509  19.755  0.00  0.00    +0.000 A 
ATOM     11  C   UNL     1      10.065  11.538  20.628  0.00  0.00    +0.000 A 
ATOM     12  C   UNL     1       9.370  10.430  20.135  0.00  0.00    +0.000 A 
ATOM     13  C   UNL     1       9.159  10.277  18.759  0.00  0.00    +0.000 A 
ATOM     14  C   UNL     1       9.668  11.248  17.885  0.00  0.00    +0.000 A 
ATOM     15  C   UNL     1      10.363  12.355  18.378  0.00  0.00    +0.000 A 
ENDBRANCH   4  13
ENDBRANCH   3   7
ENDBRANCH   1   3
BRANCH   1  16
ATOM     16  C   UNL     1       5.337   4.820  17.075  0.00  0.00    +0.000 C 
BRANCH  16  17
ATOM     17  C   UNL     1       4.017   4.139  17.435  0.00  0.00    +0.000 A 
ATOM     18  C   UNL     1       2.861   4.867  17.771  0.00  0.00    +0.000 A 
ATOM     19  C   UNL     1       1.689   4.217  18.162  0.00  0.00    +0.000 A 
ATOM     20  C   UNL     1       1.649   2.828  18.224  0.00  0.00    +0.000 A 
ATOM     21  C   UNL     1       2.781   2.087  17.896  0.00  0.00    +0.000 A 
ATOM     22  C   UNL     1       3.956   2.737  17.510  0.00  0.00    +0.000 A 
ENDBRANCH  16  17
BRANCH  16  23
ATOM     23  C   UNL     1       5.274   5.646  15.755  0.00  0.00    +0.000 C 
BRANCH  23  24
ATOM     24  C   UNL     1       5.873   4.970  14.540  0.00  0.00    +0.000 A 
ATOM     25  C   UNL     1       7.153   5.307  14.082  0.00  0.00    +0.000 A 
ATOM     26  C   UNL     1       7.687   4.688  12.949  0.00  0.00    +0.000 A 
ATOM     27  C   UNL     1       6.951   3.720  12.268  0.00  0.00    +0.000 A 
ATOM     28  C   UNL     1       5.684   3.362  12.724  0.00  0.00    +0.000 A 
ATOM     29  C   UNL     1       5.150   3.980  13.855  0.00  0.00    +0.000 A 
ENDBRANCH  23  24
ENDBRANCH  16  23
ENDBRANCH   1  16
TORSDOF 7
ENDMDL
MODEL 6
REMARK VINA RESULT:      -8.6      0.647      1.119
REMARK  Name = 
REMARK  8 active torsions:
REMARK  status: ('A' for Active; 'I' for Inactive)
REMARK    1  A    between atoms: C_1  and  C_2
REMARK    2  A    between atoms: C_5  and  C_6
REMARK    3  A    between atoms: C_9  and  C_10
REMARK    4  A    between atoms: C_10  and  N_11
REMARK    5  A    between atoms: N_11  and  C_12
REMARK    6  A    between atoms: C_12  and  C_13
REMARK    7  A    between atoms: C_12  and  C_20
REMARK    8  A    between atoms: C_13  and  C_14
REMARK                            x       y       z     vdW  Elec       q    Type
REMARK                         _______ _______ _______ _____ _____    ______ ____
ROOT
ATOM      1  N   UNL     1       2.066   6.901  18.165  0.00  0.00    +0.000 NA
ATOM      2  H   UNL     1       1.838   6.653  17.202  0.00  0.00    +0.000 HD
ENDROOT
BRANCH   1   3
ATOM      3  C   UNL     1       2.494   8.302  18.198  0.00  0.00    +0.000 C 
BRANCH   3   7
ATOM      4  C   UNL     1      -0.077  10.365  19.559  0.00  0.00    +0.000 A 
ATOM      5  N   UNL     1      -0.430  10.407  18.262  0.00  0.00    +0.000 NA
ATOM      6  O   UNL     1       0.550   9.645  17.627  0.00  0.00    +0.000 OA
ATOM      7  C   UNL     1       1.393   9.213  18.605  0.00  0.00    +0.000 A 
ATOM      8  N   UNL     1       1.062   9.630  19.806  0.00  0.00    +0.000 NA
BRANCH   4  13
ATOM      9  C   UNL     1      -2.971  12.948  23.836  0.00  0.00    +0.000 C 
ATOM     10  C   UNL     1      -2.242  12.268  22.717  0.00  0.00    +0.000 A 
ATOM     11  C   UNL     1      -2.494  12.608  21.384  0.00  0.00    +0.000 A 
ATOM     12  C   UNL     1      -1.792  11.984  20.349  0.00  0.00    +0.000 A 
ATOM     13  C   UNL     1      -0.823  11.013  20.630  0.00  0.00    +0.000 A 
ATOM     14  C   UNL     1      -0.580  10.668  21.967  0.00  0.00    +0.000 A 
ATOM     15  C   UNL     1      -1.283  11.290  23.002  0.00  0.00    +0.000 A 
ENDBRANCH   4  13
ENDBRANCH   3   7
ENDBRANCH   1   3
BRANCH   1  16
ATOM     16  C   UNL     1       3.071   5.950  18.681  0.00  0.00    +0.000 C 
BRANCH  16  17
ATOM     17  C   UNL     1       2.403   4.763  19.375  0.00  0.00    +0.000 A 
ATOM     18  C   UNL     1       1.609   3.834  18.680  0.00  0.00    +0.000 A 
ATOM     19  C   UNL     1       0.956   2.799  19.351  0.00  0.00    +0.000 A 
ATOM     20  C   UNL     1       1.086   2.671  20.731  0.00  0.00    +0.000 A 
ATOM     21  C   UNL     1       1.867   3.579  21.439  0.00  0.00    +0.000 A 
ATOM     22  C   UNL     1       2.516   4.619  20.768  0.00  0.00    +0.000 A 
ENDBRANCH  16  17
BRANCH  16  23
ATOM     23  C   UNL     1       4.162   5.537  17.647  0.00  0.00    +0.000 C 
BRANCH  23  24
ATOM     24  C   UNL     1       5.569   5.986  17.977  0.00  0.00    +0.000 A 
ATOM     25  C   UNL     1       6.189   7.013  17.255  0.00  0.00    +0.000 A 
ATOM     26  C   UNL     1       7.495   7.405  17.559  0.00  0.00    +0.000 A 
ATOM     27  C   UNL     1       8.191   6.783  18.593  0.00  0.00    +0.000 A 
ATOM     28  C   UNL     1       7.578   5.773  19.333  0.00  0.00    +0.000 A 
ATOM     29  C   UNL     1       6.274   5.380  19.030  0.00  0.00    +0.000 A 
ENDBRANCH  23  24
ENDBRANCH  16  23
ENDBRANCH   1  16
TORSDOF 7
ENDMDL
MODEL 7
REMARK VINA RESULT:      -8.6      1.173      4.350
REMARK  Name = 
REMARK  8 active torsions:
REMARK  status: ('A' for Active; 'I' for Inactive)
REMARK    1  A    between atoms: C_1  and  C_2
REMARK    2  A    between atoms: C_5  and  C_6
REMARK    3  A    between atoms: C_9  and  C_10
REMARK    4  A    between atoms: C_10  and  N_11
REMARK    5  A    between atoms: N_11  and  C_12
REMARK    6  A    between atoms: C_12  and  C_13
REMARK    7  A    between atoms: C_12  and  C_20
REMARK    8  A    between atoms: C_13  and  C_14
REMARK                            x       y       z     vdW  Elec       q    Type
REMARK                         _______ _______ _______ _____ _____    ______ ____
ROOT
ATOM      1  N   UNL     1       2.844   5.951  17.882  0.00  0.00    +0.000 NA
ATOM      2  H   UNL     1       2.687   6.697  17.204  0.00  0.00    +0.000 HD
ENDROOT
BRANCH   1   3
ATOM      3  C   UNL     1       3.058   6.556  19.199  0.00  0.00    +0.000 C 
BRANCH   3   7
ATOM      4  C   UNL     1       0.916   9.282  20.038  0.00  0.00    +0.000 A 
ATOM      5  N   UNL     1       1.113   9.554  18.736  0.00  0.00    +0.000 NA
ATOM      6  O   UNL     1       1.980   8.547  18.314  0.00  0.00    +0.000 OA
ATOM      7  C   UNL     1       2.216   7.764  19.402  0.00  0.00    +0.000 A 
ATOM      8  N   UNL     1       1.596   8.171  20.487  0.00  0.00    +0.000 NA
BRANCH   4  13
ATOM      9  C   UNL     1      -2.555  12.372  23.466  0.00  0.00    +0.000 C 
ATOM     10  C   UNL     1      -1.634  11.576  22.591  0.00  0.00    +0.000 A 
ATOM     11  C   UNL     1      -0.949  10.465  23.092  0.00  0.00    +0.000 A 
ATOM     12  C   UNL     1      -0.110   9.715  22.261  0.00  0.00    +0.000 A 
ATOM     13  C   UNL     1       0.054  10.063  20.914  0.00  0.00    +0.000 A 
ATOM     14  C   UNL     1      -0.627  11.184  20.418  0.00  0.00    +0.000 A 
ATOM     15  C   UNL     1      -1.464  11.934  21.249  0.00  0.00    +0.000 A 
ENDBRANCH   4  13
ENDBRANCH   3   7
ENDBRANCH   1   3
BRANCH   1  16
ATOM     16  C   UNL     1       3.962   5.105  17.417  0.00  0.00    +0.000 C 
BRANCH  16  17
ATOM     17  C   UNL     1       5.312   5.721  17.789  0.00  0.00    +0.000 A 
ATOM     18  C   UNL     1       5.871   6.796  17.074  0.00  0.00    +0.000 A 
ATOM     19  C   UNL     1       7.135   7.293  17.394  0.00  0.00    +0.000 A 
ATOM     20  C   UNL     1       7.865   6.727  18.434  0.00  0.00    +0.000 A 
ATOM     21  C   UNL     1       7.332   5.662  19.155  0.00  0.00    +0.000 A 
ATOM     22  C   UNL     1       6.068   5.160  18.831  0.00  0.00    +0.000 A 
ENDBRANCH  16  17
BRANCH  16  23
ATOM     23  C   UNL     1       3.836   3.600  17.797  0.00  0.00    +0.000 C 
BRANCH  23  24
ATOM     24  C   UNL     1       2.928   3.303  18.972  0.00  0.00    +0.000 A 
ATOM     25  C   UNL     1       3.451   3.093  20.254  0.00  0.00    +0.000 A 
ATOM     26  C   UNL     1       2.603   2.802  21.326  0.00  0.00    +0.000 A 
ATOM     27  C   UNL     1       1.225   2.729  21.130  0.00  0.00    +0.000 A 
ATOM     28  C   UNL     1       0.691   2.955  19.863  0.00  0.00    +0.000 A 
ATOM     29  C   UNL     1       1.537   3.245  18.792  0.00  0.00    +0.000 A 
ENDBRANCH  23  24
ENDBRANCH  16  23
ENDBRANCH   1  16
TORSDOF 7
ENDMDL
MODEL 8
REMARK VINA RESULT:      -8.5      0.504      1.360
REMARK  Name = 
REMARK  8 active torsions:
REMARK  status: ('A' for Active; 'I' for Inactive)
REMARK    1  A    between atoms: C_1  and  C_2
REMARK    2  A    between atoms: C_5  and  C_6
REMARK    3  A    between atoms: C_9  and  C_10
REMARK    4  A    between atoms: C_10  and  N_11
REMARK    5  A    between atoms: N_11  and  C_12
REMARK    6  A    between atoms: C_12  and  C_13
REMARK    7  A    between atoms: C_12  and  C_20
REMARK    8  A    between atoms: C_13  and  C_14
REMARK                            x       y       z     vdW  Elec       q    Type
REMARK                         _______ _______ _______ _____ _____    ______ ____
ROOT
ATOM      1  N   UNL     1       1.800   7.354  18.241  0.00  0.00    +0.000 NA
ATOM      2  H   UNL     1       1.174   7.048  17.495  0.00  0.00    +0.000 HD
ENDROOT
BRANCH   1   3
ATOM      3  C   UNL     1       2.315   8.683  17.901  0.00  0.00    +0.000 C 
BRANCH   3   7
ATOM      4  C   UNL     1       0.484  10.969  19.938  0.00  0.00    +0.000 A 
ATOM      5  N   UNL     1       1.180  11.849  19.197  0.00  0.00    +0.000 NA
ATOM      6  O   UNL     1       1.967  11.042  18.376  0.00  0.00    +0.000 OA
ATOM      7  C   UNL     1       1.662   9.755  18.699  0.00  0.00    +0.000 A 
ATOM      8  N   UNL     1       0.767   9.651  19.654  0.00  0.00    +0.000 NA
BRANCH   4  13
ATOM      9  C   UNL     1      -3.467  12.444  23.883  0.00  0.00    +0.000 C 
ATOM     10  C   UNL     1      -2.423  12.072  22.873  0.00  0.00    +0.000 A 
ATOM     11  C   UNL     1      -1.376  11.207  23.207  0.00  0.00    +0.000 A 
ATOM     12  C   UNL     1      -0.421  10.848  22.251  0.00  0.00    +0.000 A 
ATOM     13  C   UNL     1      -0.500  11.346  20.944  0.00  0.00    +0.000 A 
ATOM     14  C   UNL     1      -1.545  12.221  20.616  0.00  0.00    +0.000 A 
ATOM     15  C   UNL     1      -2.499  12.580  21.572  0.00  0.00    +0.000 A 
ENDBRANCH   4  13
ENDBRANCH   3   7
ENDBRANCH   1   3
BRANCH   1  16
ATOM     16  C   UNL     1       2.848   6.333  18.438  0.00  0.00    +0.000 C 
BRANCH  16  17
ATOM     17  C   UNL     1       2.236   4.963  18.733  0.00  0.00    +0.000 A 
ATOM     18  C   UNL     1       1.678   4.641  19.983  0.00  0.00    +0.000 A 
ATOM     19  C   UNL     1       1.188   3.361  20.245  0.00  0.00    +0.000 A 
ATOM     20  C   UNL     1       1.244   2.378  19.262  0.00  0.00    +0.000 A 
ATOM     21  C   UNL     1       1.792   2.674  18.017  0.00  0.00    +0.000 A 
ATOM     22  C   UNL     1       2.289   3.954  17.757  0.00  0.00    +0.000 A 
ENDBRANCH  16  17
BRANCH  16  23
ATOM     23  C   UNL     1       3.941   6.304  17.328  0.00  0.00    +0.000 C 
BRANCH  23  24
ATOM     24  C   UNL     1       5.371   6.331  17.827  0.00  0.00    +0.000 A 
ATOM     25  C   UNL     1       5.796   5.474  18.849  0.00  0.00    +0.000 A 
ATOM     26  C   UNL     1       7.113   5.521  19.312  0.00  0.00    +0.000 A 
ATOM     27  C   UNL     1       8.021   6.418  18.751  0.00  0.00    +0.000 A 
ATOM     28  C   UNL     1       7.615   7.263  17.720  0.00  0.00    +0.000 A 
ATOM     29  C   UNL     1       6.300   7.217  17.258  0.00  0.00    +0.000 A 
ENDBRANCH  23  24
ENDBRANCH  16  23
ENDBRANCH   1  16
TORSDOF 7
ENDMDL
MODEL 9
REMARK VINA RESULT:      -8.5      1.115      1.764
REMARK  Name = 
REMARK  8 active torsions:
REMARK  status: ('A' for Active; 'I' for Inactive)
REMARK    1  A    between atoms: C_1  and  C_2
REMARK    2  A    between atoms: C_5  and  C_6
REMARK    3  A    between atoms: C_9  and  C_10
REMARK    4  A    between atoms: C_10  and  N_11
REMARK    5  A    between atoms: N_11  and  C_12
REMARK    6  A    between atoms: C_12  and  C_13
REMARK    7  A    between atoms: C_12  and  C_20
REMARK    8  A    between atoms: C_13  and  C_14
REMARK                            x       y       z     vdW  Elec       q    Type
REMARK                         _______ _______ _______ _____ _____    ______ ____
ROOT
ATOM      1  N   UNL     1       2.337   7.567  19.542  0.00  0.00    +0.000 NA
ATOM      2  H   UNL     1       1.510   7.262  20.057  0.00  0.00    +0.000 HD
ENDROOT
BRANCH   1   3
ATOM      3  C   UNL     1       1.914   8.499  18.494  0.00  0.00    +0.000 C 
BRANCH   3   7
ATOM      4  C   UNL     1      -0.088  11.031  20.012  0.00  0.00    +0.000 A 
ATOM      5  N   UNL     1       0.524  11.773  19.074  0.00  0.00    +0.000 NA
ATOM      6  O   UNL     1       1.370  10.868  18.435  0.00  0.00    +0.000 OA
ATOM      7  C   UNL     1       1.180   9.667  19.047  0.00  0.00    +0.000 A 
ATOM      8  N   UNL     1       0.304   9.709  20.025  0.00  0.00    +0.000 NA
BRANCH   4  13
ATOM      9  C   UNL     1      -4.118  13.038  23.629  0.00  0.00    +0.000 C 
ATOM     10  C   UNL     1      -3.054  12.531  22.702  0.00  0.00    +0.000 A 
ATOM     11  C   UNL     1      -1.967  11.798  23.188  0.00  0.00    +0.000 A 
ATOM     12  C   UNL     1      -0.993  11.310  22.312  0.00  0.00    +0.000 A 
ATOM     13  C   UNL     1      -1.092  11.544  20.935  0.00  0.00    +0.000 A 
ATOM     14  C   UNL     1      -2.178  12.289  20.452  0.00  0.00    +0.000 A 
ATOM     15  C   UNL     1      -3.151  12.777  21.328  0.00  0.00    +0.000 A 
ENDBRANCH   4  13
ENDBRANCH   3   7
ENDBRANCH   1   3
BRANCH   1  16
ATOM     16  C   UNL     1       3.058   6.380  19.041  0.00  0.00    +0.000 C 
BRANCH  16  17
ATOM     17  C   UNL     1       2.241   5.106  19.258  0.00  0.00    +0.000 A 
ATOM     18  C   UNL     1       1.902   4.638  20.540  0.00  0.00    +0.000 A 
ATOM     19  C   UNL     1       1.214   3.436  20.710  0.00  0.00    +0.000 A 
ATOM     20  C   UNL     1       0.850   2.678  19.602  0.00  0.00    +0.000 A 
ATOM     21  C   UNL     1       1.174   3.121  18.323  0.00  0.00    +0.000 A 
ATOM     22  C   UNL     1       1.869   4.323  18.153  0.00  0.00    +0.000 A 
ENDBRANCH  16  17
BRANCH  16  23
ATOM     23  C   UNL     1       3.617   6.526  17.594  0.00  0.00    +0.000 C 
BRANCH  23  24
ATOM     24  C   UNL     1       4.935   5.826  17.337  0.00  0.00    +0.000 A 
ATOM     25  C   UNL     1       5.890   5.688  18.352  0.00  0.00    +0.000 A 
ATOM     26  C   UNL     1       7.109   5.055  18.095  0.00  0.00    +0.000 A 
ATOM     27  C   UNL     1       7.382   4.548  16.827  0.00  0.00    +0.000 A 
ATOM     28  C   UNL     1       6.432   4.662  15.814  0.00  0.00    +0.000 A 
ATOM     29  C   UNL     1       5.215   5.294  16.068  0.00  0.00    +0.000 A 
ENDBRANCH  23  24
ENDBRANCH  16  23
ENDBRANCH   1  16
TORSDOF 7
ENDMDL
