MODEL 1
REMARK VINA RESULT:      -9.4      0.000      0.000
REMARK  Name = 
REMARK  6 active torsions:
REMARK  status: ('A' for Active; 'I' for Inactive)
REMARK    1  A    between atoms: C_2  and  C_3
REMARK    2  A    between atoms: C_3  and  O_4
REMARK    3  A    between atoms: O_4  and  C_5
REMARK    4  A    between atoms: C_5  and  C_7
REMARK    5  A    between atoms: C_10  and  N_11
REMARK    6  A    between atoms: N_24  and  C_25
REMARK                            x       y       z     vdW  Elec       q    Type
REMARK                         _______ _______ _______ _____ _____    ______ ____
ROOT
ATOM      1  C   UNL     1       1.887   8.462  19.178  0.00  0.00    +0.000 A 
ATOM      2  C   UNL     1       2.045   7.417  20.091  0.00  0.00    +0.000 A 
ATOM      3  C   UNL     1       2.733   6.261  19.719  0.00  0.00    +0.000 A 
ATOM      4  C   UNL     1       3.167   6.099  18.390  0.00  0.00    +0.000 A 
ATOM      5  C   UNL     1       3.202   7.229  17.559  0.00  0.00    +0.000 A 
ATOM      6  C   UNL     1       2.550   8.404  17.945  0.00  0.00    +0.000 A 
ENDROOT
BRANCH   4   7
ATOM      7  N   UNL     1       3.152   4.769  17.775  0.00  0.00    +0.000 N 
ATOM      8  C   UNL     1       1.884   4.203  17.828  0.00  0.00    +0.000 C 
ATOM      9  O   UNL     1       0.919   4.366  17.104  0.00  0.00    +0.000 OA
ATOM     10  C   UNL     1       1.871   3.379  19.037  0.00  0.00    +0.000 A 
ATOM     11  C   UNL     1       0.860   3.249  19.970  0.00  0.00    +0.000 A 
ATOM     12  C   UNL     1       1.235   2.841  21.255  0.00  0.00    +0.000 A 
ATOM     13  C   UNL     1       2.582   2.547  21.559  0.00  0.00    +0.000 A 
ATOM     14  C   UNL     1       3.584   2.675  20.592  0.00  0.00    +0.000 A 
ATOM     15  C   UNL     1       3.193   3.120  19.346  0.00  0.00    +0.000 A 
ATOM     16  C   UNL     1       4.001   3.844  18.360  0.00  0.00    +0.000 C 
ATOM     17  O   UNL     1       5.200   3.683  18.207  0.00  0.00    +0.000 OA
ENDBRANCH   4   7
BRANCH   1  18
ATOM     18  C   UNL     1       0.852   9.494  19.467  0.00  0.00    +0.000 C 
ATOM     19  O   UNL     1       0.071   9.427  20.404  0.00  0.00    +0.000 OA
BRANCH  18  20
ATOM     20  O   UNL     1       0.795  10.391  18.457  0.00  0.00    +0.000 OA
BRANCH  20  21
ATOM     21  C   UNL     1       0.769  11.759  18.871  0.00  0.00    +0.000 C 
BRANCH  21  23
ATOM     22  O   UNL     1      -0.730  13.509  18.206  0.00  0.00    +0.000 OA
ATOM     23  C   UNL     1      -0.613  12.337  18.565  0.00  0.00    +0.000 C 
ATOM     24  N   UNL     1      -1.650  11.433  18.706  0.00  0.00    +0.000 N 
ATOM     25  H   UNL     1      -1.431  10.521  19.111  0.00  0.00    +0.000 HD
BRANCH  24  26
ATOM     26  C   UNL     1      -3.018  11.673  18.442  0.00  0.00    +0.000 A 
ATOM     27  C   UNL     1      -3.633  11.400  17.216  0.00  0.00    +0.000 A 
ATOM     28  C   UNL     1      -4.989  11.695  17.022  0.00  0.00    +0.000 A 
ATOM     29  C   UNL     1      -5.734  12.267  18.052  0.00  0.00    +0.000 A 
ATOM     30 CL   UNL     1      -7.388  12.658  17.792  0.00  0.00    +0.000 Cl
ATOM     31  C   UNL     1      -5.145  12.522  19.286  0.00  0.00    +0.000 A 
ATOM     32  C   UNL     1      -3.801  12.209  19.472  0.00  0.00    +0.000 A 
ATOM     33  F   UNL     1      -3.239  12.466  20.663  0.00  0.00    +0.000 F 
ENDBRANCH  24  26
ENDBRANCH  21  23
ENDBRANCH  20  21
ENDBRANCH  18  20
ENDBRANCH   1  18
TORSDOF 6
ENDMDL
MODEL 2
REMARK VINA RESULT:      -9.2      2.236      2.876
REMARK  Name = 
REMARK  6 active torsions:
REMARK  status: ('A' for Active; 'I' for Inactive)
REMARK    1  A    between atoms: C_2  and  C_3
REMARK    2  A    between atoms: C_3  and  O_4
REMARK    3  A    between atoms: O_4  and  C_5
REMARK    4  A    between atoms: C_5  and  C_7
REMARK    5  A    between atoms: C_10  and  N_11
REMARK    6  A    between atoms: N_24  and  C_25
REMARK                            x       y       z     vdW  Elec       q    Type
REMARK                         _______ _______ _______ _____ _____    ______ ____
ROOT
ATOM      1  C   UNL     1       1.760   8.563  19.265  0.00  0.00    +0.000 A 
ATOM      2  C   UNL     1       1.935   7.505  20.160  0.00  0.00    +0.000 A 
ATOM      3  C   UNL     1       2.640   6.365  19.767  0.00  0.00    +0.000 A 
ATOM      4  C   UNL     1       3.073   6.233  18.435  0.00  0.00    +0.000 A 
ATOM      5  C   UNL     1       3.089   7.377  17.623  0.00  0.00    +0.000 A 
ATOM      6  C   UNL     1       2.421   8.536  18.030  0.00  0.00    +0.000 A 
ENDROOT
BRANCH   4   7
ATOM      7  N   UNL     1       3.078   4.913  17.797  0.00  0.00    +0.000 N 
ATOM      8  C   UNL     1       1.820   4.323  17.853  0.00  0.00    +0.000 C 
ATOM      9  O   UNL     1       0.845   4.479  17.142  0.00  0.00    +0.000 OA
ATOM     10  C   UNL     1       1.835   3.478  19.048  0.00  0.00    +0.000 A 
ATOM     11  C   UNL     1       0.836   3.314  19.988  0.00  0.00    +0.000 A 
ATOM     12  C   UNL     1       1.232   2.891  21.262  0.00  0.00    +0.000 A 
ATOM     13  C   UNL     1       2.587   2.618  21.549  0.00  0.00    +0.000 A 
ATOM     14  C   UNL     1       3.577   2.781  20.574  0.00  0.00    +0.000 A 
ATOM     15  C   UNL     1       3.165   3.240  19.339  0.00  0.00    +0.000 A 
ATOM     16  C   UNL     1       3.950   3.995  18.358  0.00  0.00    +0.000 C 
ATOM     17  O   UNL     1       5.150   3.859  18.191  0.00  0.00    +0.000 OA
ENDBRANCH   4   7
BRANCH   1  18
ATOM     18  C   UNL     1       0.710   9.573  19.574  0.00  0.00    +0.000 C 
ATOM     19  O   UNL     1      -0.034  10.057  18.735  0.00  0.00    +0.000 OA
BRANCH  18  20
ATOM     20  O   UNL     1       0.828   9.991  20.855  0.00  0.00    +0.000 OA
BRANCH  20  21
ATOM     21  C   UNL     1       0.381  11.327  21.094  0.00  0.00    +0.000 C 
BRANCH  21  23
ATOM     22  O   UNL     1      -1.081  10.367  22.735  0.00  0.00    +0.000 OA
ATOM     23  C   UNL     1      -0.906  11.271  21.917  0.00  0.00    +0.000 C 
ATOM     24  N   UNL     1      -1.785  12.308  21.665  0.00  0.00    +0.000 N 
ATOM     25  H   UNL     1      -1.569  12.935  20.888  0.00  0.00    +0.000 HD
BRANCH  24  26
ATOM     26  C   UNL     1      -3.022  12.540  22.312  0.00  0.00    +0.000 A 
ATOM     27  C   UNL     1      -3.170  12.627  23.700  0.00  0.00    +0.000 A 
ATOM     28  C   UNL     1      -4.435  12.828  24.266  0.00  0.00    +0.000 A 
ATOM     29  C   UNL     1      -5.558  12.939  23.448  0.00  0.00    +0.000 A 
ATOM     30 CL   UNL     1      -7.112  13.150  24.154  0.00  0.00    +0.000 Cl
ATOM     31  C   UNL     1      -5.426  12.879  22.064  0.00  0.00    +0.000 A 
ATOM     32  C   UNL     1      -4.161  12.696  21.513  0.00  0.00    +0.000 A 
ATOM     33  F   UNL     1      -4.044  12.631  20.177  0.00  0.00    +0.000 F 
ENDBRANCH  24  26
ENDBRANCH  21  23
ENDBRANCH  20  21
ENDBRANCH  18  20
ENDBRANCH   1  18
TORSDOF 6
ENDMDL
MODEL 3
REMARK VINA RESULT:      -9.1      6.841      8.672
REMARK  Name = 
REMARK  6 active torsions:
REMARK  status: ('A' for Active; 'I' for Inactive)
REMARK    1  A    between atoms: C_2  and  C_3
REMARK    2  A    between atoms: C_3  and  O_4
REMARK    3  A    between atoms: O_4  and  C_5
REMARK    4  A    between atoms: C_5  and  C_7
REMARK    5  A    between atoms: C_10  and  N_11
REMARK    6  A    between atoms: N_24  and  C_25
REMARK                            x       y       z     vdW  Elec       q    Type
REMARK                         _______ _______ _______ _____ _____    ______ ____
ROOT
ATOM      1  C   UNL     1       6.129   5.524  17.981  0.00  0.00    +0.000 A 
ATOM      2  C   UNL     1       6.237   4.491  17.047  0.00  0.00    +0.000 A 
ATOM      3  C   UNL     1       5.087   3.883  16.540  0.00  0.00    +0.000 A 
ATOM      4  C   UNL     1       3.824   4.230  17.055  0.00  0.00    +0.000 A 
ATOM      5  C   UNL     1       3.714   5.405  17.814  0.00  0.00    +0.000 A 
ATOM      6  C   UNL     1       4.864   6.043  18.289  0.00  0.00    +0.000 A 
ENDROOT
BRANCH   4   7
ATOM      7  N   UNL     1       2.782   3.207  17.180  0.00  0.00    +0.000 N 
ATOM      8  C   UNL     1       1.594   3.754  17.652  0.00  0.00    +0.000 C 
ATOM      9  O   UNL     1       0.710   4.345  17.060  0.00  0.00    +0.000 OA
ATOM     10  C   UNL     1       1.620   3.559  19.102  0.00  0.00    +0.000 A 
ATOM     11  C   UNL     1       1.237   4.447  20.088  0.00  0.00    +0.000 A 
ATOM     12  C   UNL     1       1.807   4.268  21.354  0.00  0.00    +0.000 A 
ATOM     13  C   UNL     1       2.702   3.206  21.604  0.00  0.00    +0.000 A 
ATOM     14  C   UNL     1       3.063   2.313  20.590  0.00  0.00    +0.000 A 
ATOM     15  C   UNL     1       2.521   2.538  19.341  0.00  0.00    +0.000 A 
ATOM     16  C   UNL     1       3.084   2.165  18.040  0.00  0.00    +0.000 C 
ATOM     17  O   UNL     1       3.760   1.168  17.848  0.00  0.00    +0.000 OA
ENDBRANCH   4   7
BRANCH   1  18
ATOM     18  C   UNL     1       7.341   5.885  18.767  0.00  0.00    +0.000 C 
ATOM     19  O   UNL     1       7.475   5.644  19.957  0.00  0.00    +0.000 OA
BRANCH  18  20
ATOM     20  O   UNL     1       8.164   6.660  18.024  0.00  0.00    +0.000 OA
BRANCH  20  21
ATOM     21  C   UNL     1       7.616   7.923  17.641  0.00  0.00    +0.000 C 
BRANCH  21  23
ATOM     22  O   UNL     1       9.038   8.810  19.355  0.00  0.00    +0.000 OA
ATOM     23  C   UNL     1       8.429   9.032  18.308  0.00  0.00    +0.000 C 
ATOM     24  N   UNL     1       8.420  10.232  17.622  0.00  0.00    +0.000 N 
ATOM     25  H   UNL     1       7.791  10.316  16.821  0.00  0.00    +0.000 HD
BRANCH  24  26
ATOM     26  C   UNL     1       9.122  11.408  17.975  0.00  0.00    +0.000 A 
ATOM     27  C   UNL     1      10.353  11.411  18.640  0.00  0.00    +0.000 A 
ATOM     28  C   UNL     1      10.971  12.620  18.982  0.00  0.00    +0.000 A 
ATOM     29  C   UNL     1      10.361  13.832  18.663  0.00  0.00    +0.000 A 
ATOM     30 CL   UNL     1      11.111  15.311  19.119  0.00  0.00    +0.000 Cl
ATOM     31  C   UNL     1       9.149  13.849  17.980  0.00  0.00    +0.000 A 
ATOM     32  C   UNL     1       8.552  12.641  17.631  0.00  0.00    +0.000 A 
ATOM     33  F   UNL     1       7.379  12.666  16.980  0.00  0.00    +0.000 F 
ENDBRANCH  24  26
ENDBRANCH  21  23
ENDBRANCH  20  21
ENDBRANCH  18  20
ENDBRANCH   1  18
TORSDOF 6
ENDMDL
MODEL 4
REMARK VINA RESULT:      -9.1      7.170      9.174
REMARK  Name = 
REMARK  6 active torsions:
REMARK  status: ('A' for Active; 'I' for Inactive)
REMARK    1  A    between atoms: C_2  and  C_3
REMARK    2  A    between atoms: C_3  and  O_4
REMARK    3  A    between atoms: O_4  and  C_5
REMARK    4  A    between atoms: C_5  and  C_7
REMARK    5  A    between atoms: C_10  and  N_11
REMARK    6  A    between atoms: N_24  and  C_25
REMARK                            x       y       z     vdW  Elec       q    Type
REMARK                         _______ _______ _______ _____ _____    ______ ____
ROOT
ATOM      1  C   UNL     1       6.655   6.684  17.992  0.00  0.00    +0.000 A 
ATOM      2  C   UNL     1       5.326   6.604  17.567  0.00  0.00    +0.000 A 
ATOM      3  C   UNL     1       4.519   5.546  17.990  0.00  0.00    +0.000 A 
ATOM      4  C   UNL     1       5.074   4.500  18.750  0.00  0.00    +0.000 A 
ATOM      5  C   UNL     1       6.327   4.704  19.349  0.00  0.00    +0.000 A 
ATOM      6  C   UNL     1       7.123   5.785  18.960  0.00  0.00    +0.000 A 
ENDROOT
BRANCH   4   7
ATOM      7  N   UNL     1       4.595   3.128  18.561  0.00  0.00    +0.000 N 
ATOM      8  C   UNL     1       3.359   3.110  17.925  0.00  0.00    +0.000 C 
ATOM      9  O   UNL     1       3.080   3.194  16.744  0.00  0.00    +0.000 OA
ATOM     10  C   UNL     1       2.366   3.050  18.998  0.00  0.00    +0.000 A 
ATOM     11  C   UNL     1       1.171   3.736  19.093  0.00  0.00    +0.000 A 
ATOM     12  C   UNL     1       0.650   3.924  20.379  0.00  0.00    +0.000 A 
ATOM     13  C   UNL     1       1.310   3.402  21.513  0.00  0.00    +0.000 A 
ATOM     14  C   UNL     1       2.513   2.700  21.387  0.00  0.00    +0.000 A 
ATOM     15  C   UNL     1       3.027   2.567  20.113  0.00  0.00    +0.000 A 
ATOM     16  C   UNL     1       4.430   2.399  19.726  0.00  0.00    +0.000 C 
ATOM     17  O   UNL     1       5.258   1.805  20.396  0.00  0.00    +0.000 OA
ENDBRANCH   4   7
BRANCH   1  18
ATOM     18  C   UNL     1       7.575   7.585  17.243  0.00  0.00    +0.000 C 
ATOM     19  O   UNL     1       8.224   7.235  16.270  0.00  0.00    +0.000 OA
BRANCH  18  20
ATOM     20  O   UNL     1       7.713   8.759  17.900  0.00  0.00    +0.000 OA
BRANCH  20  21
ATOM     21  C   UNL     1       8.741   8.774  18.894  0.00  0.00    +0.000 C 
BRANCH  21  23
ATOM     22  O   UNL     1       9.166  10.757  20.173  0.00  0.00    +0.000 OA
ATOM     23  C   UNL     1       9.229  10.211  19.070  0.00  0.00    +0.000 C 
ATOM     24  N   UNL     1       9.743  10.782  17.920  0.00  0.00    +0.000 N 
ATOM     25  H   UNL     1       9.642  10.260  17.048  0.00  0.00    +0.000 HD
BRANCH  24  26
ATOM     26  C   UNL     1      10.311  12.071  17.801  0.00  0.00    +0.000 A 
ATOM     27  C   UNL     1      11.687  12.313  17.739  0.00  0.00    +0.000 A 
ATOM     28  C   UNL     1      12.173  13.624  17.651  0.00  0.00    +0.000 A 
ATOM     29  C   UNL     1      11.285  14.699  17.630  0.00  0.00    +0.000 A 
ATOM     30 CL   UNL     1      11.893  16.306  17.559  0.00  0.00    +0.000 Cl
ATOM     31  C   UNL     1       9.913  14.475  17.666  0.00  0.00    +0.000 A 
ATOM     32  C   UNL     1       9.442  13.168  17.736  0.00  0.00    +0.000 A 
ATOM     33  F   UNL     1       8.116  12.962  17.779  0.00  0.00    +0.000 F 
ENDBRANCH  24  26
ENDBRANCH  21  23
ENDBRANCH  20  21
ENDBRANCH  18  20
ENDBRANCH   1  18
TORSDOF 6
ENDMDL
MODEL 5
REMARK VINA RESULT:      -9.0      6.272      8.854
REMARK  Name = 
REMARK  6 active torsions:
REMARK  status: ('A' for Active; 'I' for Inactive)
REMARK    1  A    between atoms: C_2  and  C_3
REMARK    2  A    between atoms: C_3  and  O_4
REMARK    3  A    between atoms: O_4  and  C_5
REMARK    4  A    between atoms: C_5  and  C_7
REMARK    5  A    between atoms: C_10  and  N_11
REMARK    6  A    between atoms: N_24  and  C_25
REMARK                            x       y       z     vdW  Elec       q    Type
REMARK                         _______ _______ _______ _____ _____    ______ ____
ROOT
ATOM      1  C   UNL     1       6.488   5.628  18.160  0.00  0.00    +0.000 A 
ATOM      2  C   UNL     1       5.798   4.606  18.818  0.00  0.00    +0.000 A 
ATOM      3  C   UNL     1       4.434   4.419  18.582  0.00  0.00    +0.000 A 
ATOM      4  C   UNL     1       3.730   5.330  17.773  0.00  0.00    +0.000 A 
ATOM      5  C   UNL     1       4.466   6.200  16.954  0.00  0.00    +0.000 A 
ATOM      6  C   UNL     1       5.840   6.360  17.157  0.00  0.00    +0.000 A 
ENDROOT
BRANCH   4   7
ATOM      7  N   UNL     1       2.340   5.665  18.093  0.00  0.00    +0.000 N 
ATOM      8  C   UNL     1       2.218   6.108  19.405  0.00  0.00    +0.000 C 
ATOM      9  O   UNL     1       2.420   7.208  19.886  0.00  0.00    +0.000 OA
ATOM     10  C   UNL     1       1.858   4.926  20.187  0.00  0.00    +0.000 A 
ATOM     11  C   UNL     1       2.331   4.549  21.430  0.00  0.00    +0.000 A 
ATOM     12  C   UNL     1       2.257   3.188  21.747  0.00  0.00    +0.000 A 
ATOM     13  C   UNL     1       1.693   2.261  20.845  0.00  0.00    +0.000 A 
ATOM     14  C   UNL     1       1.210   2.672  19.598  0.00  0.00    +0.000 A 
ATOM     15  C   UNL     1       1.334   4.012  19.292  0.00  0.00    +0.000 A 
ATOM     16  C   UNL     1       1.440   4.620  17.963  0.00  0.00    +0.000 C 
ATOM     17  O   UNL     1       0.895   4.182  16.964  0.00  0.00    +0.000 OA
ENDBRANCH   4   7
BRANCH   1  18
ATOM     18  C   UNL     1       7.815   6.036  18.701  0.00  0.00    +0.000 C 
ATOM     19  O   UNL     1       8.397   5.438  19.592  0.00  0.00    +0.000 OA
BRANCH  18  20
ATOM     20  O   UNL     1       8.174   7.236  18.193  0.00  0.00    +0.000 OA
BRANCH  20  21
ATOM     21  C   UNL     1       8.694   8.162  19.150  0.00  0.00    +0.000 C 
BRANCH  21  23
ATOM     22  O   UNL     1       7.915   9.847  17.633  0.00  0.00    +0.000 OA
ATOM     23  C   UNL     1       8.716   9.555  18.522  0.00  0.00    +0.000 C 
ATOM     24  N   UNL     1       9.669  10.403  19.055  0.00  0.00    +0.000 N 
ATOM     25  H   UNL     1      10.340  10.005  19.715  0.00  0.00    +0.000 HD
BRANCH  24  26
ATOM     26  C   UNL     1       9.881  11.757  18.706  0.00  0.00    +0.000 A 
ATOM     27  C   UNL     1      10.576  12.167  17.564  0.00  0.00    +0.000 A 
ATOM     28  C   UNL     1      10.771  13.529  17.303  0.00  0.00    +0.000 A 
ATOM     29  C   UNL     1      10.275  14.487  18.186  0.00  0.00    +0.000 A 
ATOM     30 CL   UNL     1      10.550  16.156  17.876  0.00  0.00    +0.000 Cl
ATOM     31  C   UNL     1       9.560  14.098  19.315  0.00  0.00    +0.000 A 
ATOM     32  C   UNL     1       9.359  12.742  19.554  0.00  0.00    +0.000 A 
ATOM     33  F   UNL     1       8.676  12.376  20.649  0.00  0.00    +0.000 F 
ENDBRANCH  24  26
ENDBRANCH  21  23
ENDBRANCH  20  21
ENDBRANCH  18  20
ENDBRANCH   1  18
TORSDOF 6
ENDMDL
MODEL 6
REMARK VINA RESULT:      -8.9      1.936      2.307
REMARK  Name = 
REMARK  6 active torsions:
REMARK  status: ('A' for Active; 'I' for Inactive)
REMARK    1  A    between atoms: C_2  and  C_3
REMARK    2  A    between atoms: C_3  and  O_4
REMARK    3  A    between atoms: O_4  and  C_5
REMARK    4  A    between atoms: C_5  and  C_7
REMARK    5  A    between atoms: C_10  and  N_11
REMARK    6  A    between atoms: N_24  and  C_25
REMARK                            x       y       z     vdW  Elec       q    Type
REMARK                         _______ _______ _______ _____ _____    ______ ____
ROOT
ATOM      1  C   UNL     1       1.759   8.538  19.333  0.00  0.00    +0.000 A 
ATOM      2  C   UNL     1       1.997   7.473  20.206  0.00  0.00    +0.000 A 
ATOM      3  C   UNL     1       2.700   6.350  19.765  0.00  0.00    +0.000 A 
ATOM      4  C   UNL     1       3.068   6.240  18.411  0.00  0.00    +0.000 A 
ATOM      5  C   UNL     1       3.024   7.393  17.613  0.00  0.00    +0.000 A 
ATOM      6  C   UNL     1       2.358   8.535  18.067  0.00  0.00    +0.000 A 
ENDROOT
BRANCH   4   7
ATOM      7  N   UNL     1       3.062   4.927  17.759  0.00  0.00    +0.000 N 
ATOM      8  C   UNL     1       1.804   4.339  17.822  0.00  0.00    +0.000 C 
ATOM      9  O   UNL     1       0.822   4.506  17.123  0.00  0.00    +0.000 OA
ATOM     10  C   UNL     1       1.829   3.481  19.007  0.00  0.00    +0.000 A 
ATOM     11  C   UNL     1       0.840   3.309  19.956  0.00  0.00    +0.000 A 
ATOM     12  C   UNL     1       1.248   2.871  21.221  0.00  0.00    +0.000 A 
ATOM     13  C   UNL     1       2.606   2.591  21.490  0.00  0.00    +0.000 A 
ATOM     14  C   UNL     1       3.585   2.762  20.506  0.00  0.00    +0.000 A 
ATOM     15  C   UNL     1       3.162   3.236  19.281  0.00  0.00    +0.000 A 
ATOM     16  C   UNL     1       3.938   4.001  18.301  0.00  0.00    +0.000 C 
ATOM     17  O   UNL     1       5.136   3.863  18.119  0.00  0.00    +0.000 OA
ENDBRANCH   4   7
BRANCH   1  18
ATOM     18  C   UNL     1       0.709   9.526  19.706  0.00  0.00    +0.000 C 
ATOM     19  O   UNL     1       0.400   9.786  20.858  0.00  0.00    +0.000 OA
BRANCH  18  20
ATOM     20  O   UNL     1       0.048   9.941  18.601  0.00  0.00    +0.000 OA
BRANCH  20  21
ATOM     21  C   UNL     1      -0.215  11.345  18.551  0.00  0.00    +0.000 C 
BRANCH  21  23
ATOM     22  O   UNL     1      -2.607  11.187  18.594  0.00  0.00    +0.000 OA
ATOM     23  C   UNL     1      -1.594  11.606  19.156  0.00  0.00    +0.000 C 
ATOM     24  N   UNL     1      -1.568  12.303  20.349  0.00  0.00    +0.000 N 
ATOM     25  H   UNL     1      -0.671  12.684  20.655  0.00  0.00    +0.000 HD
BRANCH  24  26
ATOM     26  C   UNL     1      -2.682  12.638  21.154  0.00  0.00    +0.000 A 
ATOM     27  C   UNL     1      -3.784  13.367  20.694  0.00  0.00    +0.000 A 
ATOM     28  C   UNL     1      -4.836  13.685  21.562  0.00  0.00    +0.000 A 
ATOM     29  C   UNL     1      -4.789  13.280  22.895  0.00  0.00    +0.000 A 
ATOM     30 CL   UNL     1      -6.068  13.706  23.962  0.00  0.00    +0.000 Cl
ATOM     31  C   UNL     1      -3.713  12.533  23.363  0.00  0.00    +0.000 A 
ATOM     32  C   UNL     1      -2.681  12.209  22.487  0.00  0.00    +0.000 A 
ATOM     33  F   UNL     1      -1.643  11.496  22.950  0.00  0.00    +0.000 F 
ENDBRANCH  24  26
ENDBRANCH  21  23
ENDBRANCH  20  21
ENDBRANCH  18  20
ENDBRANCH   1  18
TORSDOF 6
ENDMDL
MODEL 7
REMARK VINA RESULT:      -8.9      7.024      8.798
REMARK  Name = 
REMARK  6 active torsions:
REMARK  status: ('A' for Active; 'I' for Inactive)
REMARK    1  A    between atoms: C_2  and  C_3
REMARK    2  A    between atoms: C_3  and  O_4
REMARK    3  A    between atoms: O_4  and  C_5
REMARK    4  A    between atoms: C_5  and  C_7
REMARK    5  A    between atoms: C_10  and  N_11
REMARK    6  A    between atoms: N_24  and  C_25
REMARK                            x       y       z     vdW  Elec       q    Type
REMARK                         _______ _______ _______ _____ _____    ______ ____
ROOT
ATOM      1  C   UNL     1       6.206   5.770  18.046  0.00  0.00    +0.000 A 
ATOM      2  C   UNL     1       6.073   5.224  16.767  0.00  0.00    +0.000 A 
ATOM      3  C   UNL     1       4.853   4.678  16.363  0.00  0.00    +0.000 A 
ATOM      4  C   UNL     1       3.792   4.573  17.282  0.00  0.00    +0.000 A 
ATOM      5  C   UNL     1       3.864   5.316  18.470  0.00  0.00    +0.000 A 
ATOM      6  C   UNL     1       5.072   5.902  18.859  0.00  0.00    +0.000 A 
ENDROOT
BRANCH   4   7
ATOM      7  N   UNL     1       2.887   3.422  17.221  0.00  0.00    +0.000 N 
ATOM      8  C   UNL     1       1.618   3.754  17.683  0.00  0.00    +0.000 C 
ATOM      9  O   UNL     1       0.692   4.302  17.114  0.00  0.00    +0.000 OA
ATOM     10  C   UNL     1       1.605   3.382  19.098  0.00  0.00    +0.000 A 
ATOM     11  C   UNL     1       1.067   4.085  20.159  0.00  0.00    +0.000 A 
ATOM     12  C   UNL     1       1.598   3.819  21.426  0.00  0.00    +0.000 A 
ATOM     13  C   UNL     1       2.612   2.852  21.601  0.00  0.00    +0.000 A 
ATOM     14  C   UNL     1       3.130   2.146  20.510  0.00  0.00    +0.000 A 
ATOM     15  C   UNL     1       2.619   2.458  19.266  0.00  0.00    +0.000 A 
ATOM     16  C   UNL     1       3.283   2.325  17.967  0.00  0.00    +0.000 C 
ATOM     17  O   UNL     1       4.090   1.451  17.697  0.00  0.00    +0.000 OA
ENDBRANCH   4   7
BRANCH   1  18
ATOM     18  C   UNL     1       7.582   5.993  18.572  0.00  0.00    +0.000 C 
ATOM     19  O   UNL     1       8.094   5.310  19.444  0.00  0.00    +0.000 OA
BRANCH  18  20
ATOM     20  O   UNL     1       8.087   7.146  18.076  0.00  0.00    +0.000 OA
BRANCH  20  21
ATOM     21  C   UNL     1       8.654   8.022  19.052  0.00  0.00    +0.000 C 
BRANCH  21  23
ATOM     22  O   UNL     1       7.847   9.742  17.590  0.00  0.00    +0.000 OA
ATOM     23  C   UNL     1       8.611   9.450  18.511  0.00  0.00    +0.000 C 
ATOM     24  N   UNL     1       9.461  10.328  19.158  0.00  0.00    +0.000 N 
ATOM     25  H   UNL     1      10.118   9.938  19.836  0.00  0.00    +0.000 HD
BRANCH  24  26
ATOM     26  C   UNL     1       9.592  11.714  18.906  0.00  0.00    +0.000 A 
ATOM     27  C   UNL     1       8.948  12.705  19.653  0.00  0.00    +0.000 A 
ATOM     28  C   UNL     1       9.105  14.057  19.321  0.00  0.00    +0.000 A 
ATOM     29  C   UNL     1       9.904  14.423  18.238  0.00  0.00    +0.000 A 
ATOM     30 CL   UNL     1      10.061  16.082  17.817  0.00  0.00    +0.000 Cl
ATOM     31  C   UNL     1      10.572  13.451  17.499  0.00  0.00    +0.000 A 
ATOM     32  C   UNL     1      10.421  12.113  17.849  0.00  0.00    +0.000 A 
ATOM     33  F   UNL     1      11.062  11.182  17.126  0.00  0.00    +0.000 F 
ENDBRANCH  24  26
ENDBRANCH  21  23
ENDBRANCH  20  21
ENDBRANCH  18  20
ENDBRANCH   1  18
TORSDOF 6
ENDMDL
MODEL 8
REMARK VINA RESULT:      -8.8      1.421      1.750
REMARK  Name = 
REMARK  6 active torsions:
REMARK  status: ('A' for Active; 'I' for Inactive)
REMARK    1  A    between atoms: C_2  and  C_3
REMARK    2  A    between atoms: C_3  and  O_4
REMARK    3  A    between atoms: O_4  and  C_5
REMARK    4  A    between atoms: C_5  and  C_7
REMARK    5  A    between atoms: C_10  and  N_11
REMARK    6  A    between atoms: N_24  and  C_25
REMARK                            x       y       z     vdW  Elec       q    Type
REMARK                         _______ _______ _______ _____ _____    ______ ____
ROOT
ATOM      1  C   UNL     1       2.542   7.976  18.383  0.00  0.00    +0.000 A 
ATOM      2  C   UNL     1       2.413   7.142  19.496  0.00  0.00    +0.000 A 
ATOM      3  C   UNL     1       3.132   5.947  19.563  0.00  0.00    +0.000 A 
ATOM      4  C   UNL     1       3.896   5.525  18.459  0.00  0.00    +0.000 A 
ATOM      5  C   UNL     1       4.193   6.463  17.458  0.00  0.00    +0.000 A 
ATOM      6  C   UNL     1       3.506   7.680  17.410  0.00  0.00    +0.000 A 
ENDROOT
BRANCH   4   7
ATOM      7  N   UNL     1       3.996   4.097  18.144  0.00  0.00    +0.000 N 
ATOM      8  C   UNL     1       2.776   3.590  17.714  0.00  0.00    +0.000 C 
ATOM      9  O   UNL     1       2.251   3.626  16.616  0.00  0.00    +0.000 OA
ATOM     10  C   UNL     1       2.138   3.035  18.908  0.00  0.00    +0.000 A 
ATOM     11  C   UNL     1       0.813   3.129  19.289  0.00  0.00    +0.000 A 
ATOM     12  C   UNL     1       0.537   2.985  20.653  0.00  0.00    +0.000 A 
ATOM     13  C   UNL     1       1.569   2.724  21.580  0.00  0.00    +0.000 A 
ATOM     14  C   UNL     1       2.901   2.621  21.165  0.00  0.00    +0.000 A 
ATOM     15  C   UNL     1       3.151   2.809  19.821  0.00  0.00    +0.000 A 
ATOM     16  C   UNL     1       4.388   3.291  19.199  0.00  0.00    +0.000 C 
ATOM     17  O   UNL     1       5.504   3.068  19.636  0.00  0.00    +0.000 OA
ENDBRANCH   4   7
BRANCH   1  18
ATOM     18  C   UNL     1       1.507   9.025  18.171  0.00  0.00    +0.000 C 
ATOM     19  O   UNL     1       0.692   9.000  17.262  0.00  0.00    +0.000 OA
BRANCH  18  20
ATOM     20  O   UNL     1       1.722  10.066  19.007  0.00  0.00    +0.000 OA
BRANCH  20  21
ATOM     21  C   UNL     1       1.182  11.313  18.564  0.00  0.00    +0.000 C 
BRANCH  21  23
ATOM     22  O   UNL     1      -0.633  11.335  20.131  0.00  0.00    +0.000 OA
ATOM     23  C   UNL     1      -0.296  11.370  18.946  0.00  0.00    +0.000 C 
ATOM     24  N   UNL     1      -1.157  11.484  17.870  0.00  0.00    +0.000 N 
ATOM     25  H   UNL     1      -0.758  11.397  16.933  0.00  0.00    +0.000 HD
BRANCH  24  26
ATOM     26  C   UNL     1      -2.565  11.609  17.926  0.00  0.00    +0.000 A 
ATOM     27  C   UNL     1      -3.266  11.998  19.072  0.00  0.00    +0.000 A 
ATOM     28  C   UNL     1      -4.665  12.069  19.057  0.00  0.00    +0.000 A 
ATOM     29  C   UNL     1      -5.368  11.748  17.897  0.00  0.00    +0.000 A 
ATOM     30 CL   UNL     1      -7.087  11.804  17.898  0.00  0.00    +0.000 Cl
ATOM     31  C   UNL     1      -4.686  11.383  16.741  0.00  0.00    +0.000 A 
ATOM     32  C   UNL     1      -3.295  11.332  16.764  0.00  0.00    +0.000 A 
ATOM     33  F   UNL     1      -2.645  10.971  15.646  0.00  0.00    +0.000 F 
ENDBRANCH  24  26
ENDBRANCH  21  23
ENDBRANCH  20  21
ENDBRANCH  18  20
ENDBRANCH   1  18
TORSDOF 6
ENDMDL
MODEL 9
REMARK VINA RESULT:      -8.8      2.582      2.956
REMARK  Name = 
REMARK  6 active torsions:
REMARK  status: ('A' for Active; 'I' for Inactive)
REMARK    1  A    between atoms: C_2  and  C_3
REMARK    2  A    between atoms: C_3  and  O_4
REMARK    3  A    between atoms: O_4  and  C_5
REMARK    4  A    between atoms: C_5  and  C_7
REMARK    5  A    between atoms: C_10  and  N_11
REMARK    6  A    between atoms: N_24  and  C_25
REMARK                            x       y       z     vdW  Elec       q    Type
REMARK                         _______ _______ _______ _____ _____    ______ ____
ROOT
ATOM      1  C   UNL     1       1.756   8.556  19.159  0.00  0.00    +0.000 A 
ATOM      2  C   UNL     1       1.898   7.508  20.072  0.00  0.00    +0.000 A 
ATOM      3  C   UNL     1       2.617   6.365  19.719  0.00  0.00    +0.000 A 
ATOM      4  C   UNL     1       3.101   6.218  18.406  0.00  0.00    +0.000 A 
ATOM      5  C   UNL     1       3.148   7.353  17.582  0.00  0.00    +0.000 A 
ATOM      6  C   UNL     1       2.464   8.516  17.950  0.00  0.00    +0.000 A 
ENDROOT
BRANCH   4   7
ATOM      7  N   UNL     1       3.130   4.891  17.784  0.00  0.00    +0.000 N 
ATOM      8  C   UNL     1       1.877   4.291  17.818  0.00  0.00    +0.000 C 
ATOM      9  O   UNL     1       0.917   4.432  17.083  0.00  0.00    +0.000 OA
ATOM     10  C   UNL     1       1.871   3.461  19.022  0.00  0.00    +0.000 A 
ATOM     11  C   UNL     1       0.852   3.299  19.942  0.00  0.00    +0.000 A 
ATOM     12  C   UNL     1       1.222   2.894  21.229  0.00  0.00    +0.000 A 
ATOM     13  C   UNL     1       2.573   2.635  21.550  0.00  0.00    +0.000 A 
ATOM     14  C   UNL     1       3.583   2.794  20.595  0.00  0.00    +0.000 A 
ATOM     15  C   UNL     1       3.196   3.236  19.347  0.00  0.00    +0.000 A 
ATOM     16  C   UNL     1       3.997   3.986  18.375  0.00  0.00    +0.000 C 
ATOM     17  O   UNL     1       5.201   3.858  18.236  0.00  0.00    +0.000 OA
ENDBRANCH   4   7
BRANCH   1  18
ATOM     18  C   UNL     1       0.695   9.569  19.416  0.00  0.00    +0.000 C 
ATOM     19  O   UNL     1       0.068  10.134  18.533  0.00  0.00    +0.000 OA
BRANCH  18  20
ATOM     20  O   UNL     1       0.664   9.887  20.730  0.00  0.00    +0.000 OA
BRANCH  20  21
ATOM     21  C   UNL     1       0.790  11.282  21.013  0.00  0.00    +0.000 C 
BRANCH  21  23
ATOM     22  O   UNL     1      -0.444  11.239  23.068  0.00  0.00    +0.000 OA
ATOM     23  C   UNL     1      -0.358  11.702  21.929  0.00  0.00    +0.000 C 
ATOM     24  N   UNL     1      -1.222  12.625  21.370  0.00  0.00    +0.000 N 
ATOM     25  H   UNL     1      -1.100  12.849  20.381  0.00  0.00    +0.000 HD
BRANCH  24  26
ATOM     26  C   UNL     1      -2.336  13.226  22.002  0.00  0.00    +0.000 A 
ATOM     27  C   UNL     1      -3.534  12.557  22.270  0.00  0.00    +0.000 A 
ATOM     28  C   UNL     1      -4.604  13.232  22.872  0.00  0.00    +0.000 A 
ATOM     29  C   UNL     1      -4.481  14.580  23.205  0.00  0.00    +0.000 A 
ATOM     30 CL   UNL     1      -5.812  15.409  23.911  0.00  0.00    +0.000 Cl
ATOM     31  C   UNL     1      -3.288  15.255  22.967  0.00  0.00    +0.000 A 
ATOM     32  C   UNL     1      -2.227  14.569  22.384  0.00  0.00    +0.000 A 
ATOM     33  F   UNL     1      -1.083  15.231  22.151  0.00  0.00    +0.000 F 
ENDBRANCH  24  26
ENDBRANCH  21  23
ENDBRANCH  20  21
ENDBRANCH  18  20
ENDBRANCH   1  18
TORSDOF 6
ENDMDL
