MODEL 1
REMARK VINA RESULT:      -8.1      0.000      0.000
REMARK  Name = 
REMARK  3 active torsions:
REMARK  status: ('A' for Active; 'I' for Inactive)
REMARK    1  A    between atoms: C_3  and  C_4
REMARK    2  A    between atoms: C_4  and  N_5
REMARK    3  A    between atoms: C_9  and  C_10
REMARK                            x       y       z     vdW  Elec       q    Type
REMARK                         _______ _______ _______ _____ _____    ______ ____
ROOT
ATOM      1  N   UNL     1       3.736   3.897  19.300  0.00  0.00    +0.000 NA
ATOM      2  C   UNL     1       3.070   2.890  20.132  0.00  0.00    +0.000 C 
ATOM      3  C   UNL     1       1.551   3.047  20.154  0.00  0.00    +0.000 C 
ATOM      4  C   UNL     1       1.171   4.444  20.617  0.00  0.00    +0.000 C 
ATOM      5  C   UNL     1       1.811   5.498  19.704  0.00  0.00    +0.000 C 
ATOM      6  C   UNL     1       3.337   5.278  19.609  0.00  0.00    +0.000 C 
ENDROOT
BRANCH   5   7
ATOM      7  C   UNL     1       1.526   6.878  20.224  0.00  0.00    +0.000 A 
ATOM      8  N   UNL     1       1.199   7.182  21.468  0.00  0.00    +0.000 NA
ATOM      9  N   UNL     1       1.020   8.541  21.556  0.00  0.00    +0.000 NA
ATOM     10  C   UNL     1       1.254   9.050  20.369  0.00  0.00    +0.000 A 
ATOM     11  C   UNL     1       1.222  10.385  19.877  0.00  0.00    +0.000 A 
ATOM     12  C   UNL     1       1.532  10.621  18.590  0.00  0.00    +0.000 A 
ATOM     13  C   UNL     1       1.902   9.541  17.683  0.00  0.00    +0.000 A 
ATOM     14  C   UNL     1       1.923   8.280  18.145  0.00  0.00    +0.000 A 
ATOM     15  N   UNL     1       1.594   8.039  19.481  0.00  0.00    +0.000 N 
ENDBRANCH   5   7
BRANCH   1  16
ATOM     16  C   UNL     1       5.210   3.725  19.293  0.00  0.00    +0.000 C 
BRANCH  16  19
ATOM     17  C   UNL     1       7.706   6.542  18.523  0.00  0.00    +0.000 A 
ATOM     18  C   UNL     1       6.931   5.594  19.192  0.00  0.00    +0.000 A 
ATOM     19  C   UNL     1       6.041   4.734  18.508  0.00  0.00    +0.000 A 
ATOM     20  C   UNL     1       5.961   4.880  17.096  0.00  0.00    +0.000 A 
ATOM     21  C   UNL     1       5.206   4.230  16.073  0.00  0.00    +0.000 A 
ATOM     22  C   UNL     1       5.566   4.770  14.861  0.00  0.00    +0.000 A 
ATOM     23  N   UNL     1       6.497   5.744  15.104  0.00  0.00    +0.000 N 
ATOM     24  C   UNL     1       6.757   5.832  16.454  0.00  0.00    +0.000 A 
ATOM     25  C   UNL     1       7.635   6.679  17.136  0.00  0.00    +0.000 A 
ATOM     26  H   UNL     1       6.941   6.315  14.397  0.00  0.00    +0.000 HD
ENDBRANCH  16  19
ENDBRANCH   1  16
TORSDOF 3
ENDMDL
MODEL 2
REMARK VINA RESULT:      -7.7      2.782      7.941
REMARK  Name = 
REMARK  3 active torsions:
REMARK  status: ('A' for Active; 'I' for Inactive)
REMARK    1  A    between atoms: C_3  and  C_4
REMARK    2  A    between atoms: C_4  and  N_5
REMARK    3  A    between atoms: C_9  and  C_10
REMARK                            x       y       z     vdW  Elec       q    Type
REMARK                         _______ _______ _______ _____ _____    ______ ____
ROOT
ATOM      1  N   UNL     1       1.444   9.560  19.273  0.00  0.00    +0.000 NA
ATOM      2  C   UNL     1       0.541   9.299  20.398  0.00  0.00    +0.000 C 
ATOM      3  C   UNL     1       1.105   8.287  21.391  0.00  0.00    +0.000 C 
ATOM      4  C   UNL     1       1.450   6.987  20.684  0.00  0.00    +0.000 C 
ATOM      5  C   UNL     1       2.451   7.249  19.550  0.00  0.00    +0.000 C 
ATOM      6  C   UNL     1       1.917   8.343  18.599  0.00  0.00    +0.000 C 
ENDROOT
BRANCH   5   7
ATOM      7  C   UNL     1       2.708   5.984  18.782  0.00  0.00    +0.000 A 
ATOM      8  N   UNL     1       2.000   4.872  18.866  0.00  0.00    +0.000 NA
ATOM      9  N   UNL     1       2.539   3.942  18.012  0.00  0.00    +0.000 NA
ATOM     10  C   UNL     1       3.560   4.502  17.407  0.00  0.00    +0.000 A 
ATOM     11  C   UNL     1       4.478   4.020  16.432  0.00  0.00    +0.000 A 
ATOM     12  C   UNL     1       5.437   4.840  15.966  0.00  0.00    +0.000 A 
ATOM     13  C   UNL     1       5.560   6.215  16.435  0.00  0.00    +0.000 A 
ATOM     14  C   UNL     1       4.699   6.668  17.362  0.00  0.00    +0.000 A 
ATOM     15  N   UNL     1       3.709   5.810  17.847  0.00  0.00    +0.000 N 
ENDBRANCH   5   7
BRANCH   1  16
ATOM     16  C   UNL     1       0.875  10.546  18.321  0.00  0.00    +0.000 C 
BRANCH  16  19
ATOM     17  C   UNL     1      -2.762   9.854  17.294  0.00  0.00    +0.000 A 
ATOM     18  C   UNL     1      -1.373   9.782  17.411  0.00  0.00    +0.000 A 
ATOM     19  C   UNL     1      -0.643  10.664  18.241  0.00  0.00    +0.000 A 
ATOM     20  C   UNL     1      -1.388  11.643  18.953  0.00  0.00    +0.000 A 
ATOM     21  C   UNL     1      -1.038  12.687  19.862  0.00  0.00    +0.000 A 
ATOM     22  C   UNL     1      -2.194  13.310  20.270  0.00  0.00    +0.000 A 
ATOM     23  N   UNL     1      -3.239  12.701  19.629  0.00  0.00    +0.000 N 
ATOM     24  C   UNL     1      -2.778  11.684  18.822  0.00  0.00    +0.000 A 
ATOM     25  C   UNL     1      -3.494  10.809  18.000  0.00  0.00    +0.000 A 
ATOM     26  H   UNL     1      -4.213  12.953  19.733  0.00  0.00    +0.000 HD
ENDBRANCH  16  19
ENDBRANCH   1  16
TORSDOF 3
ENDMDL
MODEL 3
REMARK VINA RESULT:      -7.7      1.915      7.069
REMARK  Name = 
REMARK  3 active torsions:
REMARK  status: ('A' for Active; 'I' for Inactive)
REMARK    1  A    between atoms: C_3  and  C_4
REMARK    2  A    between atoms: C_4  and  N_5
REMARK    3  A    between atoms: C_9  and  C_10
REMARK                            x       y       z     vdW  Elec       q    Type
REMARK                         _______ _______ _______ _____ _____    ______ ____
ROOT
ATOM      1  N   UNL     1       2.637   6.631  19.780  0.00  0.00    +0.000 NA
ATOM      2  C   UNL     1       1.800   5.429  19.863  0.00  0.00    +0.000 C 
ATOM      3  C   UNL     1       2.549   4.221  20.419  0.00  0.00    +0.000 C 
ATOM      4  C   UNL     1       3.789   3.939  19.587  0.00  0.00    +0.000 C 
ATOM      5  C   UNL     1       4.700   5.174  19.558  0.00  0.00    +0.000 C 
ATOM      6  C   UNL     1       3.913   6.416  19.084  0.00  0.00    +0.000 C 
ENDROOT
BRANCH   5   7
ATOM      7  C   UNL     1       5.871   4.933  18.648  0.00  0.00    +0.000 A 
ATOM      8  N   UNL     1       7.130   4.802  19.028  0.00  0.00    +0.000 NA
ATOM      9  N   UNL     1       7.905   4.592  17.915  0.00  0.00    +0.000 NA
ATOM     10  C   UNL     1       7.109   4.583  16.871  0.00  0.00    +0.000 A 
ATOM     11  C   UNL     1       7.355   4.408  15.480  0.00  0.00    +0.000 A 
ATOM     12  C   UNL     1       6.321   4.429  14.620  0.00  0.00    +0.000 A 
ATOM     13  C   UNL     1       4.951   4.624  15.078  0.00  0.00    +0.000 A 
ATOM     14  C   UNL     1       4.719   4.798  16.390  0.00  0.00    +0.000 A 
ATOM     15  N   UNL     1       5.797   4.782  17.278  0.00  0.00    +0.000 N 
ENDBRANCH   5   7
BRANCH   1  16
ATOM     16  C   UNL     1       1.888   7.792  19.238  0.00  0.00    +0.000 C 
BRANCH  16  19
ATOM     17  C   UNL     1       0.680   9.283  22.567  0.00  0.00    +0.000 A 
ATOM     18  C   UNL     1       1.323   8.486  21.618  0.00  0.00    +0.000 A 
ATOM     19  C   UNL     1       1.171   8.702  20.229  0.00  0.00    +0.000 A 
ATOM     20  C   UNL     1       0.320   9.770  19.833  0.00  0.00    +0.000 A 
ATOM     21  C   UNL     1      -0.088  10.296  18.570  0.00  0.00    +0.000 A 
ATOM     22  C   UNL     1      -0.909  11.375  18.796  0.00  0.00    +0.000 A 
ATOM     23  N   UNL     1      -1.039  11.517  20.151  0.00  0.00    +0.000 N 
ATOM     24  C   UNL     1      -0.302  10.556  20.807  0.00  0.00    +0.000 A 
ATOM     25  C   UNL     1      -0.147  10.337  22.178  0.00  0.00    +0.000 A 
ATOM     26  H   UNL     1      -1.590  12.229  20.612  0.00  0.00    +0.000 HD
ENDBRANCH  16  19
ENDBRANCH   1  16
TORSDOF 3
ENDMDL
MODEL 4
REMARK VINA RESULT:      -7.6      2.693      7.195
REMARK  Name = 
REMARK  3 active torsions:
REMARK  status: ('A' for Active; 'I' for Inactive)
REMARK    1  A    between atoms: C_3  and  C_4
REMARK    2  A    between atoms: C_4  and  N_5
REMARK    3  A    between atoms: C_9  and  C_10
REMARK                            x       y       z     vdW  Elec       q    Type
REMARK                         _______ _______ _______ _____ _____    ______ ____
ROOT
ATOM      1  N   UNL     1       4.954   6.300  17.875  0.00  0.00    +0.000 NA
ATOM      2  C   UNL     1       5.440   5.274  18.803  0.00  0.00    +0.000 C 
ATOM      3  C   UNL     1       6.958   5.117  18.775  0.00  0.00    +0.000 C 
ATOM      4  C   UNL     1       7.432   4.812  17.364  0.00  0.00    +0.000 C 
ATOM      5  C   UNL     1       6.984   5.922  16.403  0.00  0.00    +0.000 C 
ATOM      6  C   UNL     1       5.459   6.143  16.503  0.00  0.00    +0.000 C 
ENDROOT
BRANCH   5   7
ATOM      7  C   UNL     1       7.357   5.568  14.991  0.00  0.00    +0.000 A 
ATOM      8  N   UNL     1       8.438   5.979  14.352  0.00  0.00    +0.000 NA
ATOM      9  N   UNL     1       8.431   5.445  13.087  0.00  0.00    +0.000 NA
ATOM     10  C   UNL     1       7.354   4.703  12.975  0.00  0.00    +0.000 A 
ATOM     11  C   UNL     1       6.837   3.919  11.905  0.00  0.00    +0.000 A 
ATOM     12  C   UNL     1       5.695   3.232  12.082  0.00  0.00    +0.000 A 
ATOM     13  C   UNL     1       4.970   3.268  13.347  0.00  0.00    +0.000 A 
ATOM     14  C   UNL     1       5.453   4.015  14.354  0.00  0.00    +0.000 A 
ATOM     15  N   UNL     1       6.636   4.732  14.163  0.00  0.00    +0.000 N 
ENDBRANCH   5   7
BRANCH   1  16
ATOM     16  C   UNL     1       3.477   6.435  17.920  0.00  0.00    +0.000 C 
BRANCH  16  19
ATOM     17  C   UNL     1       1.407   4.985  20.813  0.00  0.00    +0.000 A 
ATOM     18  C   UNL     1       2.122   5.859  19.992  0.00  0.00    +0.000 A 
ATOM     19  C   UNL     1       2.697   5.440  18.771  0.00  0.00    +0.000 A 
ATOM     20  C   UNL     1       2.523   4.075  18.412  0.00  0.00    +0.000 A 
ATOM     21  C   UNL     1       2.938   3.282  17.300  0.00  0.00    +0.000 A 
ATOM     22  C   UNL     1       2.447   2.009  17.470  0.00  0.00    +0.000 A 
ATOM     23  N   UNL     1       1.765   1.985  18.656  0.00  0.00    +0.000 N 
ATOM     24  C   UNL     1       1.795   3.227  19.251  0.00  0.00    +0.000 A 
ATOM     25  C   UNL     1       1.228   3.649  20.457  0.00  0.00    +0.000 A 
ATOM     26  H   UNL     1       1.298   1.176  19.044  0.00  0.00    +0.000 HD
ENDBRANCH  16  19
ENDBRANCH   1  16
TORSDOF 3
ENDMDL
MODEL 5
REMARK VINA RESULT:      -7.6      0.673      1.829
REMARK  Name = 
REMARK  3 active torsions:
REMARK  status: ('A' for Active; 'I' for Inactive)
REMARK    1  A    between atoms: C_3  and  C_4
REMARK    2  A    between atoms: C_4  and  N_5
REMARK    3  A    between atoms: C_9  and  C_10
REMARK                            x       y       z     vdW  Elec       q    Type
REMARK                         _______ _______ _______ _____ _____    ______ ____
ROOT
ATOM      1  N   UNL     1       3.544   3.945  19.137  0.00  0.00    +0.000 NA
ATOM      2  C   UNL     1       2.999   2.963  20.080  0.00  0.00    +0.000 C 
ATOM      3  C   UNL     1       1.499   3.128  20.310  0.00  0.00    +0.000 C 
ATOM      4  C   UNL     1       1.189   4.538  20.785  0.00  0.00    +0.000 C 
ATOM      5  C   UNL     1       1.697   5.565  19.764  0.00  0.00    +0.000 C 
ATOM      6  C   UNL     1       3.194   5.335  19.463  0.00  0.00    +0.000 C 
ENDROOT
BRANCH   5   7
ATOM      7  C   UNL     1       1.488   6.960  20.282  0.00  0.00    +0.000 A 
ATOM      8  N   UNL     1       1.236   7.287  21.537  0.00  0.00    +0.000 NA
ATOM      9  N   UNL     1       1.111   8.652  21.619  0.00  0.00    +0.000 NA
ATOM     10  C   UNL     1       1.305   9.141  20.417  0.00  0.00    +0.000 A 
ATOM     11  C   UNL     1       1.298  10.472  19.912  0.00  0.00    +0.000 A 
ATOM     12  C   UNL     1       1.552  10.685  18.609  0.00  0.00    +0.000 A 
ATOM     13  C   UNL     1       1.836   9.583  17.696  0.00  0.00    +0.000 A 
ATOM     14  C   UNL     1       1.834   8.326  18.171  0.00  0.00    +0.000 A 
ATOM     15  N   UNL     1       1.563   8.111  19.523  0.00  0.00    +0.000 N 
ENDBRANCH   5   7
BRANCH   1  16
ATOM     16  C   UNL     1       5.002   3.765  18.929  0.00  0.00    +0.000 C 
BRANCH  16  19
ATOM     17  C   UNL     1       5.843   4.061  15.192  0.00  0.00    +0.000 A 
ATOM     18  C   UNL     1       5.309   3.633  16.409  0.00  0.00    +0.000 A 
ATOM     19  C   UNL     1       5.605   4.284  17.629  0.00  0.00    +0.000 A 
ATOM     20  C   UNL     1       6.484   5.400  17.566  0.00  0.00    +0.000 A 
ATOM     21  C   UNL     1       7.018   6.296  18.541  0.00  0.00    +0.000 A 
ATOM     22  C   UNL     1       7.803   7.220  17.894  0.00  0.00    +0.000 A 
ATOM     23  N   UNL     1       7.789   6.912  16.560  0.00  0.00    +0.000 N 
ATOM     24  C   UNL     1       6.995   5.810  16.332  0.00  0.00    +0.000 A 
ATOM     25  C   UNL     1       6.698   5.161  15.130  0.00  0.00    +0.000 A 
ATOM     26  H   UNL     1       8.283   7.420  15.839  0.00  0.00    +0.000 HD
ENDBRANCH  16  19
ENDBRANCH   1  16
TORSDOF 3
ENDMDL
MODEL 6
REMARK VINA RESULT:      -7.5      1.632      6.473
REMARK  Name = 
REMARK  3 active torsions:
REMARK  status: ('A' for Active; 'I' for Inactive)
REMARK    1  A    between atoms: C_3  and  C_4
REMARK    2  A    between atoms: C_4  and  N_5
REMARK    3  A    between atoms: C_9  and  C_10
REMARK                            x       y       z     vdW  Elec       q    Type
REMARK                         _______ _______ _______ _____ _____    ______ ____
ROOT
ATOM      1  N   UNL     1       2.508   4.924  20.172  0.00  0.00    +0.000 NA
ATOM      2  C   UNL     1       1.563   4.280  19.254  0.00  0.00    +0.000 C 
ATOM      3  C   UNL     1       2.112   2.994  18.642  0.00  0.00    +0.000 C 
ATOM      4  C   UNL     1       3.429   3.265  17.933  0.00  0.00    +0.000 C 
ATOM      5  C   UNL     1       4.442   3.875  18.912  0.00  0.00    +0.000 C 
ATOM      6  C   UNL     1       3.847   5.123  19.599  0.00  0.00    +0.000 C 
ENDROOT
BRANCH   5   7
ATOM      7  C   UNL     1       5.706   4.244  18.188  0.00  0.00    +0.000 A 
ATOM      8  N   UNL     1       6.880   4.469  18.750  0.00  0.00    +0.000 NA
ATOM      9  N   UNL     1       7.787   4.775  17.766  0.00  0.00    +0.000 NA
ATOM     10  C   UNL     1       7.159   4.718  16.615  0.00  0.00    +0.000 A 
ATOM     11  C   UNL     1       7.591   4.936  15.276  0.00  0.00    +0.000 A 
ATOM     12  C   UNL     1       6.714   4.787  14.267  0.00  0.00    +0.000 A 
ATOM     13  C   UNL     1       5.328   4.405  14.510  0.00  0.00    +0.000 A 
ATOM     14  C   UNL     1       4.918   4.208  15.775  0.00  0.00    +0.000 A 
ATOM     15  N   UNL     1       5.830   4.371  16.819  0.00  0.00    +0.000 N 
ENDBRANCH   5   7
BRANCH   1  16
ATOM     16  C   UNL     1       1.953   6.171  20.755  0.00  0.00    +0.000 C 
BRANCH  16  19
ATOM     17  C   UNL     1       2.389   8.466  17.704  0.00  0.00    +0.000 A 
ATOM     18  C   UNL     1       2.440   7.369  18.565  0.00  0.00    +0.000 A 
ATOM     19  C   UNL     1       1.856   7.397  19.853  0.00  0.00    +0.000 A 
ATOM     20  C   UNL     1       1.214   8.604  20.243  0.00  0.00    +0.000 A 
ATOM     21  C   UNL     1       0.530   9.026  21.422  0.00  0.00    +0.000 A 
ATOM     22  C   UNL     1       0.079  10.310  21.224  0.00  0.00    +0.000 A 
ATOM     23  N   UNL     1       0.480  10.699  19.975  0.00  0.00    +0.000 N 
ATOM     24  C   UNL     1       1.172   9.682  19.355  0.00  0.00    +0.000 A 
ATOM     25  C   UNL     1       1.752   9.648  18.083  0.00  0.00    +0.000 A 
ATOM     26  H   UNL     1       0.293  11.601  19.557  0.00  0.00    +0.000 HD
ENDBRANCH  16  19
ENDBRANCH   1  16
TORSDOF 3
ENDMDL
MODEL 7
REMARK VINA RESULT:      -7.5      2.380      5.032
REMARK  Name = 
REMARK  3 active torsions:
REMARK  status: ('A' for Active; 'I' for Inactive)
REMARK    1  A    between atoms: C_3  and  C_4
REMARK    2  A    between atoms: C_4  and  N_5
REMARK    3  A    between atoms: C_9  and  C_10
REMARK                            x       y       z     vdW  Elec       q    Type
REMARK                         _______ _______ _______ _____ _____    ______ ____
ROOT
ATOM      1  N   UNL     1       2.094   7.459  19.958  0.00  0.00    +0.000 NA
ATOM      2  C   UNL     1       2.237   7.168  18.527  0.00  0.00    +0.000 C 
ATOM      3  C   UNL     1       2.495   8.418  17.690  0.00  0.00    +0.000 C 
ATOM      4  C   UNL     1       1.391   9.439  17.909  0.00  0.00    +0.000 C 
ATOM      5  C   UNL     1       1.288   9.797  19.398  0.00  0.00    +0.000 C 
ATOM      6  C   UNL     1       1.120   8.520  20.251  0.00  0.00    +0.000 C 
ENDROOT
BRANCH   5   7
ATOM      7  C   UNL     1       0.127  10.722  19.629  0.00  0.00    +0.000 A 
ATOM      8  N   UNL     1      -0.505  11.417  18.700  0.00  0.00    +0.000 NA
ATOM      9  N   UNL     1      -1.507  12.141  19.297  0.00  0.00    +0.000 NA
ATOM     10  C   UNL     1      -1.485  11.867  20.580  0.00  0.00    +0.000 A 
ATOM     11  C   UNL     1      -2.282  12.318  21.670  0.00  0.00    +0.000 A 
ATOM     12  C   UNL     1      -2.040  11.845  22.905  0.00  0.00    +0.000 A 
ATOM     13  C   UNL     1      -0.979  10.878  23.157  0.00  0.00    +0.000 A 
ATOM     14  C   UNL     1      -0.220  10.458  22.131  0.00  0.00    +0.000 A 
ATOM     15  N   UNL     1      -0.472  10.957  20.851  0.00  0.00    +0.000 N 
ENDBRANCH   5   7
BRANCH   1  16
ATOM     16  C   UNL     1       1.844   6.230  20.752  0.00  0.00    +0.000 C 
BRANCH  16  19
ATOM     17  C   UNL     1       1.061   2.752  19.319  0.00  0.00    +0.000 A 
ATOM     18  C   UNL     1       0.939   3.999  19.933  0.00  0.00    +0.000 A 
ATOM     19  C   UNL     1       2.034   4.885  20.060  0.00  0.00    +0.000 A 
ATOM     20  C   UNL     1       3.280   4.446  19.536  0.00  0.00    +0.000 A 
ATOM     21  C   UNL     1       4.585   5.022  19.469  0.00  0.00    +0.000 A 
ATOM     22  C   UNL     1       5.412   4.143  18.810  0.00  0.00    +0.000 A 
ATOM     23  N   UNL     1       4.669   3.040  18.489  0.00  0.00    +0.000 N 
ATOM     24  C   UNL     1       3.370   3.196  18.918  0.00  0.00    +0.000 A 
ATOM     25  C   UNL     1       2.283   2.325  18.797  0.00  0.00    +0.000 A 
ATOM     26  H   UNL     1       5.016   2.225  18.001  0.00  0.00    +0.000 HD
ENDBRANCH  16  19
ENDBRANCH   1  16
TORSDOF 3
ENDMDL
MODEL 8
REMARK VINA RESULT:      -7.5      2.523      4.910
REMARK  Name = 
REMARK  3 active torsions:
REMARK  status: ('A' for Active; 'I' for Inactive)
REMARK    1  A    between atoms: C_3  and  C_4
REMARK    2  A    between atoms: C_4  and  N_5
REMARK    3  A    between atoms: C_9  and  C_10
REMARK                            x       y       z     vdW  Elec       q    Type
REMARK                         _______ _______ _______ _____ _____    ______ ____
ROOT
ATOM      1  N   UNL     1       2.084   7.542  19.960  0.00  0.00    +0.000 NA
ATOM      2  C   UNL     1       2.215   7.216  18.536  0.00  0.00    +0.000 C 
ATOM      3  C   UNL     1       2.440   8.447  17.663  0.00  0.00    +0.000 C 
ATOM      4  C   UNL     1       1.320   9.453  17.868  0.00  0.00    +0.000 C 
ATOM      5  C   UNL     1       1.227   9.849  19.349  0.00  0.00    +0.000 C 
ATOM      6  C   UNL     1       1.094   8.593  20.237  0.00  0.00    +0.000 C 
ENDROOT
BRANCH   5   7
ATOM      7  C   UNL     1       0.053  10.759  19.570  0.00  0.00    +0.000 A 
ATOM      8  N   UNL     1      -0.005  11.747  20.444  0.00  0.00    +0.000 NA
ATOM      9  N   UNL     1      -1.236  12.348  20.350  0.00  0.00    +0.000 NA
ATOM     10  C   UNL     1      -1.909  11.728  19.410  0.00  0.00    +0.000 A 
ATOM     11  C   UNL     1      -3.219  11.917  18.886  0.00  0.00    +0.000 A 
ATOM     12  C   UNL     1      -3.651  11.127  17.887  0.00  0.00    +0.000 A 
ATOM     13  C   UNL     1      -2.809  10.078  17.324  0.00  0.00    +0.000 A 
ATOM     14  C   UNL     1      -1.575   9.893  17.824  0.00  0.00    +0.000 A 
ATOM     15  N   UNL     1      -1.134  10.712  18.866  0.00  0.00    +0.000 N 
ENDBRANCH   5   7
BRANCH   1  16
ATOM     16  C   UNL     1       1.866   6.330  20.790  0.00  0.00    +0.000 C 
BRANCH  16  19
ATOM     17  C   UNL     1       1.061   2.824  19.441  0.00  0.00    +0.000 A 
ATOM     18  C   UNL     1       0.948   4.084  20.031  0.00  0.00    +0.000 A 
ATOM     19  C   UNL     1       2.046   4.971  20.124  0.00  0.00    +0.000 A 
ATOM     20  C   UNL     1       3.285   4.519  19.593  0.00  0.00    +0.000 A 
ATOM     21  C   UNL     1       4.589   5.092  19.497  0.00  0.00    +0.000 A 
ATOM     22  C   UNL     1       5.407   4.198  18.846  0.00  0.00    +0.000 A 
ATOM     23  N   UNL     1       4.658   3.089  18.559  0.00  0.00    +0.000 N 
ATOM     24  C   UNL     1       3.365   3.256  19.001  0.00  0.00    +0.000 A 
ATOM     25  C   UNL     1       2.275   2.385  18.912  0.00  0.00    +0.000 A 
ATOM     26  H   UNL     1       4.998   2.264  18.083  0.00  0.00    +0.000 HD
ENDBRANCH  16  19
ENDBRANCH   1  16
TORSDOF 3
ENDMDL
MODEL 9
REMARK VINA RESULT:      -7.4      2.983      8.206
REMARK  Name = 
REMARK  3 active torsions:
REMARK  status: ('A' for Active; 'I' for Inactive)
REMARK    1  A    between atoms: C_3  and  C_4
REMARK    2  A    between atoms: C_4  and  N_5
REMARK    3  A    between atoms: C_9  and  C_10
REMARK                            x       y       z     vdW  Elec       q    Type
REMARK                         _______ _______ _______ _____ _____    ______ ____
ROOT
ATOM      1  N   UNL     1       1.209   9.803  19.496  0.00  0.00    +0.000 NA
ATOM      2  C   UNL     1       0.289   9.516  20.602  0.00  0.00    +0.000 C 
ATOM      3  C   UNL     1       0.847   8.495  21.590  0.00  0.00    +0.000 C 
ATOM      4  C   UNL     1       1.218   7.210  20.870  0.00  0.00    +0.000 C 
ATOM      5  C   UNL     1       2.236   7.499  19.758  0.00  0.00    +0.000 C 
ATOM      6  C   UNL     1       1.706   8.600  18.813  0.00  0.00    +0.000 C 
ENDROOT
BRANCH   5   7
ATOM      7  C   UNL     1       2.520   6.248  18.976  0.00  0.00    +0.000 A 
ATOM      8  N   UNL     1       3.256   6.172  17.882  0.00  0.00    +0.000 NA
ATOM      9  N   UNL     1       3.285   4.865  17.461  0.00  0.00    +0.000 NA
ATOM     10  C   UNL     1       2.578   4.158  18.311  0.00  0.00    +0.000 A 
ATOM     11  C   UNL     1       2.266   2.771  18.378  0.00  0.00    +0.000 A 
ATOM     12  C   UNL     1       1.517   2.311  19.395  0.00  0.00    +0.000 A 
ATOM     13  C   UNL     1       1.016   3.199  20.437  0.00  0.00    +0.000 A 
ATOM     14  C   UNL     1       1.303   4.510  20.371  0.00  0.00    +0.000 A 
ATOM     15  N   UNL     1       2.075   4.984  19.308  0.00  0.00    +0.000 N 
ENDBRANCH   5   7
BRANCH   1  16
ATOM     16  C   UNL     1       0.646  10.797  18.549  0.00  0.00    +0.000 C 
BRANCH  16  19
ATOM     17  C   UNL     1      -2.813   9.860  17.163  0.00  0.00    +0.000 A 
ATOM     18  C   UNL     1      -1.439   9.894  17.408  0.00  0.00    +0.000 A 
ATOM     19  C   UNL     1      -0.863  10.797  18.331  0.00  0.00    +0.000 A 
ATOM     20  C   UNL     1      -1.748  11.683  19.003  0.00  0.00    +0.000 A 
ATOM     21  C   UNL     1      -1.570  12.714  19.975  0.00  0.00    +0.000 A 
ATOM     22  C   UNL     1      -2.806  13.225  20.294  0.00  0.00    +0.000 A 
ATOM     23  N   UNL     1      -3.734  12.562  19.537  0.00  0.00    +0.000 N 
ATOM     24  C   UNL     1      -3.120  11.619  18.743  0.00  0.00    +0.000 A 
ATOM     25  C   UNL     1      -3.683  10.724  17.829  0.00  0.00    +0.000 A 
ATOM     26  H   UNL     1      -4.731  12.731  19.558  0.00  0.00    +0.000 HD
ENDBRANCH  16  19
ENDBRANCH   1  16
TORSDOF 3
ENDMDL
