MODEL 1
REMARK VINA RESULT:      -9.4      0.000      0.000
REMARK  Name = 
REMARK  4 active torsions:
REMARK  status: ('A' for Active; 'I' for Inactive)
REMARK    1  A    between atoms: C_2  and  C_3
REMARK    2  A    between atoms: N_13  and  C_14
REMARK    3  A    between atoms: N_13  and  C_22
REMARK    4  A    between atoms: C_14  and  C_15
REMARK                            x       y       z     vdW  Elec       q    Type
REMARK                         _______ _______ _______ _____ _____    ______ ____
ROOT
ATOM      1  O   UNL     1       3.677   7.260  17.290  0.00  0.00    +0.000 OA
ATOM      2  C   UNL     1       2.845   6.837  18.095  0.00  0.00    +0.000 C 
ATOM      3  N   UNL     1       2.629   5.461  18.312  0.00  0.00    +0.000 N 
ENDROOT
BRANCH   2   4
ATOM      4  C   UNL     1       2.100   7.883  18.844  0.00  0.00    +0.000 A 
ATOM      5  C   UNL     1       1.542   8.960  18.094  0.00  0.00    +0.000 A 
ATOM      6  C   UNL     1       0.800   9.978  18.708  0.00  0.00    +0.000 A 
ATOM      7  C   UNL     1       0.645   9.879  20.069  0.00  0.00    +0.000 A 
ATOM      8  N   UNL     1      -0.001  10.734  20.959  0.00  0.00    +0.000 N 
ATOM      9  C   UNL     1       0.105  10.201  22.248  0.00  0.00    +0.000 A 
ATOM     10  O   UNL     1      -0.328  10.691  23.274  0.00  0.00    +0.000 OA
ATOM     11  N   UNL     1       0.817   8.999  22.133  0.00  0.00    +0.000 N 
ATOM     12  C   UNL     1       1.151   8.804  20.798  0.00  0.00    +0.000 A 
ATOM     13  C   UNL     1       1.848   7.773  20.216  0.00  0.00    +0.000 A 
ATOM     14  H   UNL     1      -0.469  11.598  20.743  0.00  0.00    +0.000 HD
ATOM     15  H   UNL     1       1.043   8.407  22.916  0.00  0.00    +0.000 HD
ENDBRANCH   2   4
BRANCH   3  16
ATOM     16  C   UNL     1       1.930   4.897  19.492  0.00  0.00    +0.000 C 
ATOM     17  C   UNL     1       2.888   4.540  20.632  0.00  0.00    +0.000 C 
ATOM     18  C   UNL     1       2.141   3.531  21.501  0.00  0.00    +0.000 C 
ATOM     19  C   UNL     1       0.935   3.056  20.695  0.00  0.00    +0.000 C 
ATOM     20  C   UNL     1       1.141   3.598  19.287  0.00  0.00    +0.000 C 
ENDBRANCH   3  16
BRANCH   3  21
ATOM     21  C   UNL     1       3.486   4.565  17.519  0.00  0.00    +0.000 C 
BRANCH  21  22
ATOM     22  C   UNL     1       4.973   4.801  17.671  0.00  0.00    +0.000 A 
ATOM     23  C   UNL     1       5.830   4.513  16.592  0.00  0.00    +0.000 A 
ATOM     24  C   UNL     1       7.219   4.583  16.735  0.00  0.00    +0.000 A 
ATOM     25  C   UNL     1       7.771   4.941  17.961  0.00  0.00    +0.000 A 
ATOM     26  C   UNL     1       6.931   5.240  19.027  0.00  0.00    +0.000 A 
ATOM     27  F   UNL     1       7.466   5.579  20.208  0.00  0.00    +0.000 F 
ATOM     28  C   UNL     1       5.546   5.172  18.897  0.00  0.00    +0.000 A 
ENDBRANCH  21  22
ENDBRANCH   3  21
TORSDOF 4
ENDMDL
MODEL 2
REMARK VINA RESULT:      -9.3      1.953      2.402
REMARK  Name = 
REMARK  4 active torsions:
REMARK  status: ('A' for Active; 'I' for Inactive)
REMARK    1  A    between atoms: C_2  and  C_3
REMARK    2  A    between atoms: N_13  and  C_14
REMARK    3  A    between atoms: N_13  and  C_22
REMARK    4  A    between atoms: C_14  and  C_15
REMARK                            x       y       z     vdW  Elec       q    Type
REMARK                         _______ _______ _______ _____ _____    ______ ____
ROOT
ATOM      1  O   UNL     1       5.098   6.615  18.499  0.00  0.00    +0.000 OA
ATOM      2  C   UNL     1       3.924   6.240  18.505  0.00  0.00    +0.000 C 
ATOM      3  N   UNL     1       3.556   4.892  18.317  0.00  0.00    +0.000 N 
ENDROOT
BRANCH   2   4
ATOM      4  C   UNL     1       2.920   7.308  18.752  0.00  0.00    +0.000 A 
ATOM      5  C   UNL     1       2.534   8.120  17.646  0.00  0.00    +0.000 A 
ATOM      6  C   UNL     1       1.574   9.132  17.775  0.00  0.00    +0.000 A 
ATOM      7  C   UNL     1       1.031   9.298  19.026  0.00  0.00    +0.000 A 
ATOM      8  N   UNL     1       0.093  10.223  19.477  0.00  0.00    +0.000 N 
ATOM      9  C   UNL     1      -0.148   9.989  20.836  0.00  0.00    +0.000 A 
ATOM     10  O   UNL     1      -0.898  10.618  21.558  0.00  0.00    +0.000 OA
ATOM     11  N   UNL     1       0.648   8.897  21.207  0.00  0.00    +0.000 N 
ATOM     12  C   UNL     1       1.374   8.477  20.099  0.00  0.00    +0.000 A 
ATOM     13  C   UNL     1       2.283   7.452  19.990  0.00  0.00    +0.000 A 
ATOM     14  H   UNL     1      -0.350  10.952  18.944  0.00  0.00    +0.000 HD
ATOM     15  H   UNL     1       0.674   8.517  22.139  0.00  0.00    +0.000 HD
ENDBRANCH   2   4
BRANCH   3  16
ATOM     16  C   UNL     1       2.232   4.327  18.669  0.00  0.00    +0.000 C 
ATOM     17  C   UNL     1       2.118   3.967  20.153  0.00  0.00    +0.000 C 
ATOM     18  C   UNL     1       0.976   2.956  20.248  0.00  0.00    +0.000 C 
ATOM     19  C   UNL     1       0.680   2.486  18.828  0.00  0.00    +0.000 C 
ATOM     20  C   UNL     1       1.812   3.029  17.967  0.00  0.00    +0.000 C 
ENDBRANCH   3  16
BRANCH   3  21
ATOM     21  C   UNL     1       4.681   3.961  18.132  0.00  0.00    +0.000 C 
BRANCH  21  22
ATOM     22  C   UNL     1       5.423   4.106  16.820  0.00  0.00    +0.000 A 
ATOM     23  C   UNL     1       6.757   4.554  16.830  0.00  0.00    +0.000 A 
ATOM     24  C   UNL     1       7.432   4.836  15.639  0.00  0.00    +0.000 A 
ATOM     25  C   UNL     1       6.781   4.674  14.419  0.00  0.00    +0.000 A 
ATOM     26  C   UNL     1       5.468   4.218  14.402  0.00  0.00    +0.000 A 
ATOM     27  F   UNL     1       4.842   4.068  13.227  0.00  0.00    +0.000 F 
ATOM     28  C   UNL     1       4.785   3.936  15.583  0.00  0.00    +0.000 A 
ENDBRANCH  21  22
ENDBRANCH   3  21
TORSDOF 4
ENDMDL
MODEL 3
REMARK VINA RESULT:      -9.2      2.412      4.005
REMARK  Name = 
REMARK  4 active torsions:
REMARK  status: ('A' for Active; 'I' for Inactive)
REMARK    1  A    between atoms: C_2  and  C_3
REMARK    2  A    between atoms: N_13  and  C_14
REMARK    3  A    between atoms: N_13  and  C_22
REMARK    4  A    between atoms: C_14  and  C_15
REMARK                            x       y       z     vdW  Elec       q    Type
REMARK                         _______ _______ _______ _____ _____    ______ ____
ROOT
ATOM      1  O   UNL     1       2.741   4.547  17.457  0.00  0.00    +0.000 OA
ATOM      2  C   UNL     1       3.496   5.351  18.007  0.00  0.00    +0.000 C 
ATOM      3  N   UNL     1       4.886   5.138  18.114  0.00  0.00    +0.000 N 
ENDROOT
BRANCH   2   4
ATOM      4  C   UNL     1       2.840   6.579  18.529  0.00  0.00    +0.000 A 
ATOM      5  C   UNL     1       2.504   7.597  17.590  0.00  0.00    +0.000 A 
ATOM      6  C   UNL     1       1.860   8.777  17.983  0.00  0.00    +0.000 A 
ATOM      7  C   UNL     1       1.573   8.895  19.321  0.00  0.00    +0.000 A 
ATOM      8  N   UNL     1       0.977   9.944  20.018  0.00  0.00    +0.000 N 
ATOM      9  C   UNL     1       0.895   9.593  21.371  0.00  0.00    +0.000 A 
ATOM     10  O   UNL     1       0.446  10.275  22.271  0.00  0.00    +0.000 OA
ATOM     11  N   UNL     1       1.441   8.307  21.489  0.00  0.00    +0.000 N 
ATOM     12  C   UNL     1       1.861   7.882  20.235  0.00  0.00    +0.000 A 
ATOM     13  C   UNL     1       2.457   6.699  19.870  0.00  0.00    +0.000 A 
ATOM     14  H   UNL     1       0.653  10.819  19.643  0.00  0.00    +0.000 HD
ATOM     15  H   UNL     1       1.514   7.811  22.363  0.00  0.00    +0.000 HD
ENDBRANCH   2   4
BRANCH   3  16
ATOM     16  C   UNL     1       5.875   6.198  18.423  0.00  0.00    +0.000 C 
ATOM     17  C   UNL     1       6.168   7.103  17.223  0.00  0.00    +0.000 C 
ATOM     18  C   UNL     1       7.519   7.754  17.513  0.00  0.00    +0.000 C 
ATOM     19  C   UNL     1       8.145   6.982  18.670  0.00  0.00    +0.000 C 
ATOM     20  C   UNL     1       7.274   5.747  18.862  0.00  0.00    +0.000 C 
ENDBRANCH   3  16
BRANCH   3  21
ATOM     21  C   UNL     1       5.373   3.892  17.501  0.00  0.00    +0.000 C 
BRANCH  21  22
ATOM     22  C   UNL     1       5.836   4.022  16.065  0.00  0.00    +0.000 A 
ATOM     23  C   UNL     1       7.126   4.517  15.801  0.00  0.00    +0.000 A 
ATOM     24  C   UNL     1       7.542   4.785  14.493  0.00  0.00    +0.000 A 
ATOM     25  C   UNL     1       6.671   4.564  13.431  0.00  0.00    +0.000 A 
ATOM     26  C   UNL     1       5.399   4.062  13.684  0.00  0.00    +0.000 A 
ATOM     27  F   UNL     1       4.561   3.855  12.660  0.00  0.00    +0.000 F 
ATOM     28  C   UNL     1       4.974   3.793  14.983  0.00  0.00    +0.000 A 
ENDBRANCH  21  22
ENDBRANCH   3  21
TORSDOF 4
ENDMDL
MODEL 4
REMARK VINA RESULT:      -9.2      2.318      4.036
REMARK  Name = 
REMARK  4 active torsions:
REMARK  status: ('A' for Active; 'I' for Inactive)
REMARK    1  A    between atoms: C_2  and  C_3
REMARK    2  A    between atoms: N_13  and  C_14
REMARK    3  A    between atoms: N_13  and  C_22
REMARK    4  A    between atoms: C_14  and  C_15
REMARK                            x       y       z     vdW  Elec       q    Type
REMARK                         _______ _______ _______ _____ _____    ______ ____
ROOT
ATOM      1  O   UNL     1       2.952   4.602  17.171  0.00  0.00    +0.000 OA
ATOM      2  C   UNL     1       3.676   5.386  17.786  0.00  0.00    +0.000 C 
ATOM      3  N   UNL     1       5.071   5.214  17.886  0.00  0.00    +0.000 N 
ENDROOT
BRANCH   2   4
ATOM      4  C   UNL     1       2.976   6.547  18.396  0.00  0.00    +0.000 A 
ATOM      5  C   UNL     1       2.565   7.601  17.529  0.00  0.00    +0.000 A 
ATOM      6  C   UNL     1       1.875   8.722  18.007  0.00  0.00    +0.000 A 
ATOM      7  C   UNL     1       1.620   8.747  19.356  0.00  0.00    +0.000 A 
ATOM      8  N   UNL     1       0.992   9.722  20.128  0.00  0.00    +0.000 N 
ATOM      9  C   UNL     1       0.965   9.289  21.459  0.00  0.00    +0.000 A 
ATOM     10  O   UNL     1       0.507   9.894  22.410  0.00  0.00    +0.000 OA
ATOM     11  N   UNL     1       1.575   8.028  21.488  0.00  0.00    +0.000 N 
ATOM     12  C   UNL     1       1.981   7.699  20.200  0.00  0.00    +0.000 A 
ATOM     13  C   UNL     1       2.623   6.570  19.751  0.00  0.00    +0.000 A 
ATOM     14  H   UNL     1       0.616  10.601  19.815  0.00  0.00    +0.000 HD
ATOM     15  H   UNL     1       1.696   7.485  22.328  0.00  0.00    +0.000 HD
ENDBRANCH   2   4
BRANCH   3  16
ATOM     16  C   UNL     1       6.023   6.280  18.282  0.00  0.00    +0.000 C 
ATOM     17  C   UNL     1       6.291   7.282  17.156  0.00  0.00    +0.000 C 
ATOM     18  C   UNL     1       7.617   7.955  17.506  0.00  0.00    +0.000 C 
ATOM     19  C   UNL     1       8.262   7.118  18.607  0.00  0.00    +0.000 C 
ATOM     20  C   UNL     1       7.433   5.845  18.699  0.00  0.00    +0.000 C 
ENDBRANCH   3  16
BRANCH   3  21
ATOM     21  C   UNL     1       5.604   4.036  17.182  0.00  0.00    +0.000 C 
BRANCH  21  22
ATOM     22  C   UNL     1       5.893   4.245  15.711  0.00  0.00    +0.000 A 
ATOM     23  C   UNL     1       5.039   3.668  14.753  0.00  0.00    +0.000 A 
ATOM     24  C   UNL     1       5.345   3.716  13.390  0.00  0.00    +0.000 A 
ATOM     25  C   UNL     1       6.514   4.342  12.966  0.00  0.00    +0.000 A 
ATOM     26  C   UNL     1       7.356   4.926  13.905  0.00  0.00    +0.000 A 
ATOM     27  F   UNL     1       8.483   5.523  13.495  0.00  0.00    +0.000 F 
ATOM     28  C   UNL     1       7.061   4.882  15.266  0.00  0.00    +0.000 A 
ENDBRANCH  21  22
ENDBRANCH   3  21
TORSDOF 4
ENDMDL
MODEL 5
REMARK VINA RESULT:      -9.2      2.632      4.453
REMARK  Name = 
REMARK  4 active torsions:
REMARK  status: ('A' for Active; 'I' for Inactive)
REMARK    1  A    between atoms: C_2  and  C_3
REMARK    2  A    between atoms: N_13  and  C_14
REMARK    3  A    between atoms: N_13  and  C_22
REMARK    4  A    between atoms: C_14  and  C_15
REMARK                            x       y       z     vdW  Elec       q    Type
REMARK                         _______ _______ _______ _____ _____    ______ ____
ROOT
ATOM      1  O   UNL     1       3.150   4.520  17.043  0.00  0.00    +0.000 OA
ATOM      2  C   UNL     1       3.821   5.335  17.678  0.00  0.00    +0.000 C 
ATOM      3  N   UNL     1       5.220   5.224  17.818  0.00  0.00    +0.000 N 
ENDROOT
BRANCH   2   4
ATOM      4  C   UNL     1       3.054   6.465  18.266  0.00  0.00    +0.000 A 
ATOM      5  C   UNL     1       2.647   6.348  19.627  0.00  0.00    +0.000 A 
ATOM      6  C   UNL     1       1.944   7.371  20.276  0.00  0.00    +0.000 A 
ATOM      7  C   UNL     1       1.670   8.488  19.526  0.00  0.00    +0.000 A 
ATOM      8  N   UNL     1       0.972   9.644  19.869  0.00  0.00    +0.000 N 
ATOM      9  C   UNL     1       0.962  10.504  18.764  0.00  0.00    +0.000 A 
ATOM     10  O   UNL     1       0.429  11.595  18.699  0.00  0.00    +0.000 OA
ATOM     11  N   UNL     1       1.675   9.861  17.743  0.00  0.00    +0.000 N 
ATOM     12  C   UNL     1       2.104   8.624  18.209  0.00  0.00    +0.000 A 
ATOM     13  C   UNL     1       2.829   7.652  17.561  0.00  0.00    +0.000 A 
ATOM     14  H   UNL     1       0.533   9.854  20.749  0.00  0.00    +0.000 HD
ATOM     15  H   UNL     1       1.819  10.257  16.828  0.00  0.00    +0.000 HD
ENDBRANCH   2   4
BRANCH   3  16
ATOM     16  C   UNL     1       6.111   6.330  18.241  0.00  0.00    +0.000 C 
ATOM     17  C   UNL     1       6.360   7.349  17.125  0.00  0.00    +0.000 C 
ATOM     18  C   UNL     1       7.646   8.080  17.509  0.00  0.00    +0.000 C 
ATOM     19  C   UNL     1       8.302   7.269  18.622  0.00  0.00    +0.000 C 
ATOM     20  C   UNL     1       7.530   5.958  18.689  0.00  0.00    +0.000 C 
ENDBRANCH   3  16
BRANCH   3  21
ATOM     21  C   UNL     1       5.823   4.070  17.132  0.00  0.00    +0.000 C 
BRANCH  21  22
ATOM     22  C   UNL     1       6.067   4.262  15.650  0.00  0.00    +0.000 A 
ATOM     23  C   UNL     1       5.215   3.630  14.726  0.00  0.00    +0.000 A 
ATOM     24  C   UNL     1       5.486   3.665  13.354  0.00  0.00    +0.000 A 
ATOM     25  C   UNL     1       6.616   4.331  12.889  0.00  0.00    +0.000 A 
ATOM     26  C   UNL     1       7.455   4.968  13.796  0.00  0.00    +0.000 A 
ATOM     27  F   UNL     1       8.544   5.604  13.346  0.00  0.00    +0.000 F 
ATOM     28  C   UNL     1       7.195   4.939  15.164  0.00  0.00    +0.000 A 
ENDBRANCH  21  22
ENDBRANCH   3  21
TORSDOF 4
ENDMDL
MODEL 6
REMARK VINA RESULT:      -9.2      1.092      1.352
REMARK  Name = 
REMARK  4 active torsions:
REMARK  status: ('A' for Active; 'I' for Inactive)
REMARK    1  A    between atoms: C_2  and  C_3
REMARK    2  A    between atoms: N_13  and  C_14
REMARK    3  A    between atoms: N_13  and  C_22
REMARK    4  A    between atoms: C_14  and  C_15
REMARK                            x       y       z     vdW  Elec       q    Type
REMARK                         _______ _______ _______ _____ _____    ______ ____
ROOT
ATOM      1  O   UNL     1       3.727   7.916  17.511  0.00  0.00    +0.000 OA
ATOM      2  C   UNL     1       2.840   7.349  18.151  0.00  0.00    +0.000 C 
ATOM      3  N   UNL     1       2.706   5.946  18.184  0.00  0.00    +0.000 N 
ENDROOT
BRANCH   2   4
ATOM      4  C   UNL     1       1.932   8.249  18.910  0.00  0.00    +0.000 A 
ATOM      5  C   UNL     1       1.128   9.158  18.162  0.00  0.00    +0.000 A 
ATOM      6  C   UNL     1       0.223  10.026  18.786  0.00  0.00    +0.000 A 
ATOM      7  C   UNL     1       0.157   9.951  20.156  0.00  0.00    +0.000 A 
ATOM      8  N   UNL     1      -0.607  10.691  21.055  0.00  0.00    +0.000 N 
ATOM      9  C   UNL     1      -0.330  10.243  22.352  0.00  0.00    +0.000 A 
ATOM     10  O   UNL     1      -0.804  10.674  23.386  0.00  0.00    +0.000 OA
ATOM     11  N   UNL     1       0.608   9.209  22.232  0.00  0.00    +0.000 N 
ATOM     12  C   UNL     1       0.910   9.034  20.887  0.00  0.00    +0.000 A 
ATOM     13  C   UNL     1       1.776   8.145  20.296  0.00  0.00    +0.000 A 
ATOM     14  H   UNL     1      -1.254  11.432  20.842  0.00  0.00    +0.000 HD
ATOM     15  H   UNL     1       0.990   8.707  23.017  0.00  0.00    +0.000 HD
ENDBRANCH   2   4
BRANCH   3  16
ATOM     16  C   UNL     1       1.917   5.202  19.195  0.00  0.00    +0.000 C 
ATOM     17  C   UNL     1       2.715   4.904  20.467  0.00  0.00    +0.000 C 
ATOM     18  C   UNL     1       1.999   3.736  21.143  0.00  0.00    +0.000 C 
ATOM     19  C   UNL     1       1.032   3.154  20.117  0.00  0.00    +0.000 C 
ATOM     20  C   UNL     1       1.382   3.821  18.794  0.00  0.00    +0.000 C 
ENDBRANCH   3  16
BRANCH   3  21
ATOM     21  C   UNL     1       3.719   5.207  17.414  0.00  0.00    +0.000 C 
BRANCH  21  22
ATOM     22  C   UNL     1       5.153   5.485  17.808  0.00  0.00    +0.000 A 
ATOM     23  C   UNL     1       5.623   5.037  19.056  0.00  0.00    +0.000 A 
ATOM     24  C   UNL     1       6.893   5.392  19.519  0.00  0.00    +0.000 A 
ATOM     25  C   UNL     1       7.712   6.204  18.740  0.00  0.00    +0.000 A 
ATOM     26  C   UNL     1       7.259   6.640  17.500  0.00  0.00    +0.000 A 
ATOM     27  F   UNL     1       8.047   7.425  16.753  0.00  0.00    +0.000 F 
ATOM     28  C   UNL     1       5.995   6.293  17.029  0.00  0.00    +0.000 A 
ENDBRANCH  21  22
ENDBRANCH   3  21
TORSDOF 4
ENDMDL
MODEL 7
REMARK VINA RESULT:      -9.2      2.219      2.890
REMARK  Name = 
REMARK  4 active torsions:
REMARK  status: ('A' for Active; 'I' for Inactive)
REMARK    1  A    between atoms: C_2  and  C_3
REMARK    2  A    between atoms: N_13  and  C_14
REMARK    3  A    between atoms: N_13  and  C_22
REMARK    4  A    between atoms: C_14  and  C_15
REMARK                            x       y       z     vdW  Elec       q    Type
REMARK                         _______ _______ _______ _____ _____    ______ ____
ROOT
ATOM      1  O   UNL     1       4.989   6.571  18.924  0.00  0.00    +0.000 OA
ATOM      2  C   UNL     1       3.829   6.162  18.854  0.00  0.00    +0.000 C 
ATOM      3  N   UNL     1       3.513   4.817  18.575  0.00  0.00    +0.000 N 
ENDROOT
BRANCH   2   4
ATOM      4  C   UNL     1       2.781   7.185  19.111  0.00  0.00    +0.000 A 
ATOM      5  C   UNL     1       2.221   7.242  20.420  0.00  0.00    +0.000 A 
ATOM      6  C   UNL     1       1.249   8.189  20.765  0.00  0.00    +0.000 A 
ATOM      7  C   UNL     1       0.866   9.055  19.770  0.00  0.00    +0.000 A 
ATOM      8  N   UNL     1      -0.086  10.072  19.788  0.00  0.00    +0.000 N 
ATOM      9  C   UNL     1      -0.113  10.682  18.529  0.00  0.00    +0.000 A 
ATOM     10  O   UNL     1      -0.836  11.596  18.180  0.00  0.00    +0.000 OA
ATOM     11  N   UNL     1       0.846  10.030  17.742  0.00  0.00    +0.000 N 
ATOM     12  C   UNL     1       1.442   9.030  18.501  0.00  0.00    +0.000 A 
ATOM     13  C   UNL     1       2.426   8.137  18.149  0.00  0.00    +0.000 A 
ATOM     14  H   UNL     1      -0.674  10.343  20.558  0.00  0.00    +0.000 HD
ATOM     15  H   UNL     1       1.034  10.266  16.781  0.00  0.00    +0.000 HD
ENDBRANCH   2   4
BRANCH   3  16
ATOM     16  C   UNL     1       2.192   4.194  18.832  0.00  0.00    +0.000 C 
ATOM     17  C   UNL     1       2.036   3.712  20.277  0.00  0.00    +0.000 C 
ATOM     18  C   UNL     1       0.918   2.671  20.249  0.00  0.00    +0.000 C 
ATOM     19  C   UNL     1       0.684   2.311  18.786  0.00  0.00    +0.000 C 
ATOM     20  C   UNL     1       1.831   2.948  18.013  0.00  0.00    +0.000 C 
ENDBRANCH   3  16
BRANCH   3  21
ATOM     21  C   UNL     1       4.674   3.930  18.394  0.00  0.00    +0.000 C 
BRANCH  21  22
ATOM     22  C   UNL     1       5.421   4.112  17.090  0.00  0.00    +0.000 A 
ATOM     23  C   UNL     1       6.753   4.564  17.117  0.00  0.00    +0.000 A 
ATOM     24  C   UNL     1       7.433   4.879  15.937  0.00  0.00    +0.000 A 
ATOM     25  C   UNL     1       6.787   4.749  14.711  0.00  0.00    +0.000 A 
ATOM     26  C   UNL     1       5.476   4.291  14.675  0.00  0.00    +0.000 A 
ATOM     27  F   UNL     1       4.855   4.171  13.495  0.00  0.00    +0.000 F 
ATOM     28  C   UNL     1       4.788   3.975  15.846  0.00  0.00    +0.000 A 
ENDBRANCH  21  22
ENDBRANCH   3  21
TORSDOF 4
ENDMDL
MODEL 8
REMARK VINA RESULT:      -9.1      1.002      1.375
REMARK  Name = 
REMARK  4 active torsions:
REMARK  status: ('A' for Active; 'I' for Inactive)
REMARK    1  A    between atoms: C_2  and  C_3
REMARK    2  A    between atoms: N_13  and  C_14
REMARK    3  A    between atoms: N_13  and  C_22
REMARK    4  A    between atoms: C_14  and  C_15
REMARK                            x       y       z     vdW  Elec       q    Type
REMARK                         _______ _______ _______ _____ _____    ______ ____
ROOT
ATOM      1  O   UNL     1       3.705   6.839  17.164  0.00  0.00    +0.000 OA
ATOM      2  C   UNL     1       2.869   6.494  18.000  0.00  0.00    +0.000 C 
ATOM      3  N   UNL     1       2.582   5.142  18.276  0.00  0.00    +0.000 N 
ENDROOT
BRANCH   2   4
ATOM      4  C   UNL     1       2.199   7.608  18.722  0.00  0.00    +0.000 A 
ATOM      5  C   UNL     1       1.737   8.713  17.947  0.00  0.00    +0.000 A 
ATOM      6  C   UNL     1       1.070   9.796  18.534  0.00  0.00    +0.000 A 
ATOM      7  C   UNL     1       0.889   9.732  19.893  0.00  0.00    +0.000 A 
ATOM      8  N   UNL     1       0.301  10.651  20.760  0.00  0.00    +0.000 N 
ATOM      9  C   UNL     1       0.349  10.134  22.060  0.00  0.00    +0.000 A 
ATOM     10  O   UNL     1      -0.058  10.673  23.071  0.00  0.00    +0.000 OA
ATOM     11  N   UNL     1       0.965   8.878  21.974  0.00  0.00    +0.000 N 
ATOM     12  C   UNL     1       1.300   8.635  20.647  0.00  0.00    +0.000 A 
ATOM     13  C   UNL     1       1.921   7.542  20.092  0.00  0.00    +0.000 A 
ATOM     14  H   UNL     1      -0.095  11.545  20.524  0.00  0.00    +0.000 HD
ATOM     15  H   UNL     1       1.134   8.284  22.769  0.00  0.00    +0.000 HD
ENDBRANCH   2   4
BRANCH   3  16
ATOM     16  C   UNL     1       1.879   4.663  19.491  0.00  0.00    +0.000 C 
ATOM     17  C   UNL     1       2.828   4.424  20.668  0.00  0.00    +0.000 C 
ATOM     18  C   UNL     1       2.091   3.475  21.610  0.00  0.00    +0.000 C 
ATOM     19  C   UNL     1       0.906   2.909  20.833  0.00  0.00    +0.000 C 
ATOM     20  C   UNL     1       1.120   3.335  19.386  0.00  0.00    +0.000 C 
ENDBRANCH   3  16
BRANCH   3  21
ATOM     21  C   UNL     1       3.371   4.169  17.503  0.00  0.00    +0.000 C 
BRANCH  21  22
ATOM     22  C   UNL     1       4.872   4.346  17.593  0.00  0.00    +0.000 A 
ATOM     23  C   UNL     1       5.450   4.700  18.826  0.00  0.00    +0.000 A 
ATOM     24  C   UNL     1       6.810   5.010  18.924  0.00  0.00    +0.000 A 
ATOM     25  C   UNL     1       7.611   4.972  17.786  0.00  0.00    +0.000 A 
ATOM     26  C   UNL     1       7.049   4.611  16.567  0.00  0.00    +0.000 A 
ATOM     27  F   UNL     1       7.821   4.580  15.473  0.00  0.00    +0.000 F 
ATOM     28  C   UNL     1       5.695   4.301  16.459  0.00  0.00    +0.000 A 
ENDBRANCH  21  22
ENDBRANCH   3  21
TORSDOF 4
ENDMDL
MODEL 9
REMARK VINA RESULT:      -9.1      2.707      4.464
REMARK  Name = 
REMARK  4 active torsions:
REMARK  status: ('A' for Active; 'I' for Inactive)
REMARK    1  A    between atoms: C_2  and  C_3
REMARK    2  A    between atoms: N_13  and  C_14
REMARK    3  A    between atoms: N_13  and  C_22
REMARK    4  A    between atoms: C_14  and  C_15
REMARK                            x       y       z     vdW  Elec       q    Type
REMARK                         _______ _______ _______ _____ _____    ______ ____
ROOT
ATOM      1  O   UNL     1       2.999   4.419  17.275  0.00  0.00    +0.000 OA
ATOM      2  C   UNL     1       3.695   5.249  17.863  0.00  0.00    +0.000 C 
ATOM      3  N   UNL     1       5.090   5.107  18.004  0.00  0.00    +0.000 N 
ENDROOT
BRANCH   2   4
ATOM      4  C   UNL     1       2.961   6.429  18.392  0.00  0.00    +0.000 A 
ATOM      5  C   UNL     1       2.529   6.383  19.750  0.00  0.00    +0.000 A 
ATOM      6  C   UNL     1       1.856   7.458  20.345  0.00  0.00    +0.000 A 
ATOM      7  C   UNL     1       1.634   8.552  19.545  0.00  0.00    +0.000 A 
ATOM      8  N   UNL     1       0.974   9.746  19.828  0.00  0.00    +0.000 N 
ATOM      9  C   UNL     1       1.012  10.559  18.689  0.00  0.00    +0.000 A 
ATOM     10  O   UNL     1       0.521  11.665  18.571  0.00  0.00    +0.000 OA
ATOM     11  N   UNL     1       1.716   9.848  17.708  0.00  0.00    +0.000 N 
ATOM     12  C   UNL     1       2.093   8.617  18.231  0.00  0.00    +0.000 A 
ATOM     13  C   UNL     1       2.790   7.594  17.635  0.00  0.00    +0.000 A 
ATOM     14  H   UNL     1       0.530  10.008  20.692  0.00  0.00    +0.000 HD
ATOM     15  H   UNL     1       1.888  10.200  16.780  0.00  0.00    +0.000 HD
ENDBRANCH   2   4
BRANCH   3  16
ATOM     16  C   UNL     1       6.013   6.210  18.363  0.00  0.00    +0.000 C 
ATOM     17  C   UNL     1       6.300   7.148  17.188  0.00  0.00    +0.000 C 
ATOM     18  C   UNL     1       7.605   7.862  17.535  0.00  0.00    +0.000 C 
ATOM     19  C   UNL     1       8.230   7.103  18.702  0.00  0.00    +0.000 C 
ATOM     20  C   UNL     1       7.417   5.823  18.845  0.00  0.00    +0.000 C 
ENDBRANCH   3  16
BRANCH   3  21
ATOM     21  C   UNL     1       5.659   3.902  17.379  0.00  0.00    +0.000 C 
BRANCH  21  22
ATOM     22  C   UNL     1       6.034   4.053  15.921  0.00  0.00    +0.000 A 
ATOM     23  C   UNL     1       7.271   4.635  15.585  0.00  0.00    +0.000 A 
ATOM     24  C   UNL     1       7.597   4.922  14.256  0.00  0.00    +0.000 A 
ATOM     25  C   UNL     1       6.687   4.632  13.243  0.00  0.00    +0.000 A 
ATOM     26  C   UNL     1       5.470   4.045  13.566  0.00  0.00    +0.000 A 
ATOM     27  F   UNL     1       4.594   3.772  12.589  0.00  0.00    +0.000 F 
ATOM     28  C   UNL     1       5.134   3.756  14.887  0.00  0.00    +0.000 A 
ENDBRANCH  21  22
ENDBRANCH   3  21
TORSDOF 4
ENDMDL
