MODEL 1
REMARK VINA RESULT:      -9.1      0.000      0.000
REMARK  Name = 
REMARK  5 active torsions:
REMARK  status: ('A' for Active; 'I' for Inactive)
REMARK    1  A    between atoms: C_1  and  C_2
REMARK    2  A    between atoms: C_4  and  C_5
REMARK    3  A    between atoms: C_10  and  C_11
REMARK    4  A    between atoms: N_13  and  C_14
REMARK    5  A    between atoms: C_14  and  C_15
REMARK                            x       y       z     vdW  Elec       q    Type
REMARK                         _______ _______ _______ _____ _____    ______ ____
ROOT
ATOM      1  C   UNL     1      -0.036   9.552  23.462  0.00  0.00    +0.000 C 
ATOM      2  C   UNL     1      -0.069   9.654  21.965  0.00  0.00    +0.000 A 
ATOM      3  C   UNL     1      -0.895  10.569  21.344  0.00  0.00    +0.000 A 
ATOM      4  C   UNL     1      -0.781  10.663  19.979  0.00  0.00    +0.000 A 
ATOM      5  C   UNL     1      -1.673  11.565  19.176  0.00  0.00    +0.000 C 
ATOM      6  N   UNL     1       0.122   9.948  19.289  0.00  0.00    +0.000 NA
ATOM      7  C   UNL     1       0.907   9.083  19.962  0.00  0.00    +0.000 A 
ATOM      8  N   UNL     1       1.887   8.380  19.241  0.00  0.00    +0.000 N 
ATOM      9  N   UNL     1       2.570   7.232  19.739  0.00  0.00    +0.000 N 
ATOM     10  C   UNL     1       3.368   6.823  18.674  0.00  0.00    +0.000 A 
ATOM     11  C   UNL     1       3.359   7.673  17.639  0.00  0.00    +0.000 A 
ATOM     12  C   UNL     1       2.383   8.719  17.992  0.00  0.00    +0.000 A 
ATOM     13  O   UNL     1       2.143   9.656  17.253  0.00  0.00    +0.000 OA
ATOM     14  N   UNL     1       0.796   8.864  21.286  0.00  0.00    +0.000 NA
ATOM     15  H   UNL     1       1.925   6.510  20.060  0.00  0.00    +0.000 HD
ENDROOT
BRANCH  10  16
ATOM     16  C   UNL     1       4.086   5.524  18.530  0.00  0.00    +0.000 C 
ATOM     17  O   UNL     1       5.081   5.270  19.206  0.00  0.00    +0.000 OA
ATOM     18  N   UNL     1       3.583   4.662  17.589  0.00  0.00    +0.000 N 
ATOM     19  H   UNL     1       2.668   4.844  17.198  0.00  0.00    +0.000 HD
BRANCH  18  20
ATOM     20  C   UNL     1       4.253   3.400  17.292  0.00  0.00    +0.000 C 
BRANCH  20  21
ATOM     21  C   UNL     1       3.543   2.297  18.067  0.00  0.00    +0.000 C 
ATOM     22  C   UNL     1       4.280   1.812  19.368  0.00  0.00    +0.000 C 
ATOM     23  C   UNL     1       3.117   2.372  20.130  0.00  0.00    +0.000 A 
ATOM     24  C   UNL     1       2.611   2.560  21.395  0.00  0.00    +0.000 A 
ATOM     25  C   UNL     1       1.366   3.180  21.500  0.00  0.00    +0.000 A 
ATOM     26  C   UNL     1       0.665   3.577  20.345  0.00  0.00    +0.000 A 
ATOM     27  C   UNL     1       1.208   3.369  19.071  0.00  0.00    +0.000 A 
ATOM     28  C   UNL     1       2.450   2.778  19.000  0.00  0.00    +0.000 A 
ENDBRANCH  20  21
ENDBRANCH  18  20
ENDBRANCH  10  16
TORSDOF 3
ENDMDL
MODEL 2
REMARK VINA RESULT:      -9.0      2.020      3.621
REMARK  Name = 
REMARK  5 active torsions:
REMARK  status: ('A' for Active; 'I' for Inactive)
REMARK    1  A    between atoms: C_1  and  C_2
REMARK    2  A    between atoms: C_4  and  C_5
REMARK    3  A    between atoms: C_10  and  C_11
REMARK    4  A    between atoms: N_13  and  C_14
REMARK    5  A    between atoms: C_14  and  C_15
REMARK                            x       y       z     vdW  Elec       q    Type
REMARK                         _______ _______ _______ _____ _____    ______ ____
ROOT
ATOM      1  C   UNL     1      -0.756  10.267  23.317  0.00  0.00    +0.000 C 
ATOM      2  C   UNL     1      -0.605  10.408  21.831  0.00  0.00    +0.000 A 
ATOM      3  C   UNL     1      -1.195  11.463  21.165  0.00  0.00    +0.000 A 
ATOM      4  C   UNL     1      -0.917  11.568  19.825  0.00  0.00    +0.000 A 
ATOM      5  C   UNL     1      -1.555  12.624  18.970  0.00  0.00    +0.000 C 
ATOM      6  N   UNL     1      -0.072  10.729  19.205  0.00  0.00    +0.000 NA
ATOM      7  C   UNL     1       0.481   9.729  19.921  0.00  0.00    +0.000 A 
ATOM      8  N   UNL     1       1.407   8.889  19.279  0.00  0.00    +0.000 N 
ATOM      9  N   UNL     1       1.833   7.631  19.798  0.00  0.00    +0.000 N 
ATOM     10  C   UNL     1       2.667   7.119  18.807  0.00  0.00    +0.000 A 
ATOM     11  C   UNL     1       2.911   7.983  17.814  0.00  0.00    +0.000 A 
ATOM     12  C   UNL     1       2.087   9.169  18.104  0.00  0.00    +0.000 A 
ATOM     13  O   UNL     1       2.087  10.150  17.384  0.00  0.00    +0.000 OA
ATOM     14  N   UNL     1       0.189   9.500  21.215  0.00  0.00    +0.000 NA
ATOM     15  H   UNL     1       1.047   7.020  20.019  0.00  0.00    +0.000 HD
ENDROOT
BRANCH  10  16
ATOM     16  C   UNL     1       3.174   5.722  18.686  0.00  0.00    +0.000 C 
ATOM     17  O   UNL     1       3.287   5.001  19.675  0.00  0.00    +0.000 OA
ATOM     18  N   UNL     1       3.524   5.319  17.423  0.00  0.00    +0.000 N 
ATOM     19  H   UNL     1       3.241   5.884  16.632  0.00  0.00    +0.000 HD
BRANCH  18  20
ATOM     20  C   UNL     1       4.119   4.007  17.192  0.00  0.00    +0.000 C 
BRANCH  20  21
ATOM     21  C   UNL     1       5.530   4.218  16.657  0.00  0.00    +0.000 C 
ATOM     22  C   UNL     1       5.712   5.468  15.721  0.00  0.00    +0.000 C 
ATOM     23  C   UNL     1       6.598   6.030  16.790  0.00  0.00    +0.000 A 
ATOM     24  C   UNL     1       7.367   7.118  17.130  0.00  0.00    +0.000 A 
ATOM     25  C   UNL     1       8.037   7.071  18.353  0.00  0.00    +0.000 A 
ATOM     26  C   UNL     1       7.929   5.941  19.185  0.00  0.00    +0.000 A 
ATOM     27  C   UNL     1       7.139   4.847  18.808  0.00  0.00    +0.000 A 
ATOM     28  C   UNL     1       6.470   4.933  17.607  0.00  0.00    +0.000 A 
ENDBRANCH  20  21
ENDBRANCH  18  20
ENDBRANCH  10  16
TORSDOF 3
ENDMDL
MODEL 3
REMARK VINA RESULT:      -8.4      2.268      8.143
REMARK  Name = 
REMARK  5 active torsions:
REMARK  status: ('A' for Active; 'I' for Inactive)
REMARK    1  A    between atoms: C_1  and  C_2
REMARK    2  A    between atoms: C_4  and  C_5
REMARK    3  A    between atoms: C_10  and  C_11
REMARK    4  A    between atoms: N_13  and  C_14
REMARK    5  A    between atoms: C_14  and  C_15
REMARK                            x       y       z     vdW  Elec       q    Type
REMARK                         _______ _______ _______ _____ _____    ______ ____
ROOT
ATOM      1  C   UNL     1       5.628   5.671  15.580  0.00  0.00    +0.000 C 
ATOM      2  C   UNL     1       4.662   5.067  16.556  0.00  0.00    +0.000 A 
ATOM      3  C   UNL     1       4.583   3.696  16.704  0.00  0.00    +0.000 A 
ATOM      4  C   UNL     1       3.747   3.239  17.693  0.00  0.00    +0.000 A 
ATOM      5  C   UNL     1       3.514   1.772  17.908  0.00  0.00    +0.000 C 
ATOM      6  N   UNL     1       3.087   4.074  18.510  0.00  0.00    +0.000 NA
ATOM      7  C   UNL     1       3.222   5.402  18.318  0.00  0.00    +0.000 A 
ATOM      8  N   UNL     1       2.572   6.270  19.212  0.00  0.00    +0.000 N 
ATOM      9  N   UNL     1       2.369   7.660  18.965  0.00  0.00    +0.000 N 
ATOM     10  C   UNL     1       1.621   8.093  20.057  0.00  0.00    +0.000 A 
ATOM     11  C   UNL     1       1.471   7.162  21.008  0.00  0.00    +0.000 A 
ATOM     12  C   UNL     1       2.097   5.940  20.471  0.00  0.00    +0.000 A 
ATOM     13  O   UNL     1       2.135   4.901  21.104  0.00  0.00    +0.000 OA
ATOM     14  N   UNL     1       3.947   5.931  17.314  0.00  0.00    +0.000 NA
ATOM     15  H   UNL     1       1.911   7.828  18.070  0.00  0.00    +0.000 HD
ENDROOT
BRANCH  10  16
ATOM     16  C   UNL     1       0.891   9.385  20.196  0.00  0.00    +0.000 C 
ATOM     17  O   UNL     1       0.534   9.798  21.297  0.00  0.00    +0.000 OA
ATOM     18  N   UNL     1       0.627  10.052  19.026  0.00  0.00    +0.000 N 
ATOM     19  H   UNL     1       1.098   9.761  18.179  0.00  0.00    +0.000 HD
BRANCH  18  20
ATOM     20  C   UNL     1      -0.161  11.280  19.024  0.00  0.00    +0.000 C 
BRANCH  20  21
ATOM     21  C   UNL     1      -1.633  10.895  19.102  0.00  0.00    +0.000 C 
ATOM     22  C   UNL     1      -2.644  12.096  19.028  0.00  0.00    +0.000 C 
ATOM     23  C   UNL     1      -3.103  11.516  17.725  0.00  0.00    +0.000 A 
ATOM     24  C   UNL     1      -3.976  11.702  16.679  0.00  0.00    +0.000 A 
ATOM     25  C   UNL     1      -3.969  10.744  15.663  0.00  0.00    +0.000 A 
ATOM     26  C   UNL     1      -3.108   9.633  15.734  0.00  0.00    +0.000 A 
ATOM     27  C   UNL     1      -2.232   9.473  16.815  0.00  0.00    +0.000 A 
ATOM     28  C   UNL     1      -2.243  10.447  17.789  0.00  0.00    +0.000 A 
ENDBRANCH  20  21
ENDBRANCH  18  20
ENDBRANCH  10  16
TORSDOF 3
ENDMDL
MODEL 4
REMARK VINA RESULT:      -8.4      2.033      8.095
REMARK  Name = 
REMARK  5 active torsions:
REMARK  status: ('A' for Active; 'I' for Inactive)
REMARK    1  A    between atoms: C_1  and  C_2
REMARK    2  A    between atoms: C_4  and  C_5
REMARK    3  A    between atoms: C_10  and  C_11
REMARK    4  A    between atoms: N_13  and  C_14
REMARK    5  A    between atoms: C_14  and  C_15
REMARK                            x       y       z     vdW  Elec       q    Type
REMARK                         _______ _______ _______ _____ _____    ______ ____
ROOT
ATOM      1  C   UNL     1       3.909   2.826  19.553  0.00  0.00    +0.000 C 
ATOM      2  C   UNL     1       3.995   4.156  18.864  0.00  0.00    +0.000 A 
ATOM      3  C   UNL     1       4.661   4.278  17.661  0.00  0.00    +0.000 A 
ATOM      4  C   UNL     1       4.598   5.508  17.054  0.00  0.00    +0.000 A 
ATOM      5  C   UNL     1       5.341   5.795  15.781  0.00  0.00    +0.000 C 
ATOM      6  N   UNL     1       3.883   6.520  17.569  0.00  0.00    +0.000 NA
ATOM      7  C   UNL     1       3.245   6.326  18.740  0.00  0.00    +0.000 A 
ATOM      8  N   UNL     1       2.452   7.372  19.244  0.00  0.00    +0.000 N 
ATOM      9  N   UNL     1       1.977   7.433  20.587  0.00  0.00    +0.000 N 
ATOM     10  C   UNL     1       1.324   8.662  20.660  0.00  0.00    +0.000 A 
ATOM     11  C   UNL     1       1.222   9.286  19.480  0.00  0.00    +0.000 A 
ATOM     12  C   UNL     1       1.963   8.448  18.521  0.00  0.00    +0.000 A 
ATOM     13  O   UNL     1       2.056   8.740  17.343  0.00  0.00    +0.000 OA
ATOM     14  N   UNL     1       3.331   5.182  19.445  0.00  0.00    +0.000 NA
ATOM     15  H   UNL     1       2.731   7.336  21.267  0.00  0.00    +0.000 HD
ENDROOT
BRANCH  10  16
ATOM     16  C   UNL     1       0.874   9.373  21.891  0.00  0.00    +0.000 C 
ATOM     17  O   UNL     1       1.600   9.449  22.881  0.00  0.00    +0.000 OA
ATOM     18  N   UNL     1      -0.392   9.899  21.850  0.00  0.00    +0.000 N 
ATOM     19  H   UNL     1      -0.866   9.965  20.959  0.00  0.00    +0.000 HD
BRANCH  18  20
ATOM     20  C   UNL     1      -0.978  10.537  23.024  0.00  0.00    +0.000 C 
BRANCH  20  21
ATOM     21  C   UNL     1      -1.688  11.805  22.566  0.00  0.00    +0.000 C 
ATOM     22  C   UNL     1      -0.945  13.148  22.904  0.00  0.00    +0.000 C 
ATOM     23  C   UNL     1      -0.788  13.331  21.425  0.00  0.00    +0.000 A 
ATOM     24  C   UNL     1      -0.271  14.167  20.463  0.00  0.00    +0.000 A 
ATOM     25  C   UNL     1      -0.459  13.800  19.130  0.00  0.00    +0.000 A 
ATOM     26  C   UNL     1      -1.166  12.627  18.803  0.00  0.00    +0.000 A 
ATOM     27  C   UNL     1      -1.682  11.799  19.808  0.00  0.00    +0.000 A 
ATOM     28  C   UNL     1      -1.458  12.173  21.114  0.00  0.00    +0.000 A 
ENDBRANCH  20  21
ENDBRANCH  18  20
ENDBRANCH  10  16
TORSDOF 3
ENDMDL
MODEL 5
REMARK VINA RESULT:      -8.2      8.525     10.385
REMARK  Name = 
REMARK  5 active torsions:
REMARK  status: ('A' for Active; 'I' for Inactive)
REMARK    1  A    between atoms: C_1  and  C_2
REMARK    2  A    between atoms: C_4  and  C_5
REMARK    3  A    between atoms: C_10  and  C_11
REMARK    4  A    between atoms: N_13  and  C_14
REMARK    5  A    between atoms: C_14  and  C_15
REMARK                            x       y       z     vdW  Elec       q    Type
REMARK                         _______ _______ _______ _____ _____    ______ ____
ROOT
ATOM      1  C   UNL     1       2.673  12.816  18.217  0.00  0.00    +0.000 C 
ATOM      2  C   UNL     1       3.055  14.267  18.264  0.00  0.00    +0.000 A 
ATOM      3  C   UNL     1       2.092  15.238  18.448  0.00  0.00    +0.000 A 
ATOM      4  C   UNL     1       2.545  16.527  18.581  0.00  0.00    +0.000 A 
ATOM      5  C   UNL     1       1.598  17.684  18.711  0.00  0.00    +0.000 C 
ATOM      6  N   UNL     1       3.854  16.823  18.591  0.00  0.00    +0.000 NA
ATOM      7  C   UNL     1       4.741  15.822  18.421  0.00  0.00    +0.000 A 
ATOM      8  N   UNL     1       6.110  16.133  18.489  0.00  0.00    +0.000 N 
ATOM      9  N   UNL     1       7.146  15.265  18.034  0.00  0.00    +0.000 N 
ATOM     10  C   UNL     1       8.313  16.005  18.212  0.00  0.00    +0.000 A 
ATOM     11  C   UNL     1       8.120  17.162  18.857  0.00  0.00    +0.000 A 
ATOM     12  C   UNL     1       6.663  17.270  19.055  0.00  0.00    +0.000 A 
ATOM     13  O   UNL     1       6.157  18.219  19.624  0.00  0.00    +0.000 OA
ATOM     14  N   UNL     1       4.377  14.546  18.192  0.00  0.00    +0.000 NA
ATOM     15  H   UNL     1       7.001  14.966  17.069  0.00  0.00    +0.000 HD
ENDROOT
BRANCH  10  16
ATOM     16  C   UNL     1       9.664  15.707  17.656  0.00  0.00    +0.000 C 
ATOM     17  O   UNL     1      10.467  16.608  17.424  0.00  0.00    +0.000 OA
ATOM     18  N   UNL     1       9.929  14.385  17.402  0.00  0.00    +0.000 N 
ATOM     19  H   UNL     1       9.310  13.680  17.779  0.00  0.00    +0.000 HD
BRANCH  18  20
ATOM     20  C   UNL     1      11.181  13.979  16.773  0.00  0.00    +0.000 C 
BRANCH  20  21
ATOM     21  C   UNL     1      11.813  12.895  17.637  0.00  0.00    +0.000 C 
ATOM     22  C   UNL     1      12.199  13.341  19.094  0.00  0.00    +0.000 C 
ATOM     23  C   UNL     1      11.155  12.378  19.572  0.00  0.00    +0.000 A 
ATOM     24  C   UNL     1      10.546  11.878  20.698  0.00  0.00    +0.000 A 
ATOM     25  C   UNL     1       9.566  10.902  20.515  0.00  0.00    +0.000 A 
ATOM     26  C   UNL     1       9.239  10.451  19.222  0.00  0.00    +0.000 A 
ATOM     27  C   UNL     1       9.880  10.981  18.095  0.00  0.00    +0.000 A 
ATOM     28  C   UNL     1      10.825  11.960  18.306  0.00  0.00    +0.000 A 
ENDBRANCH  20  21
ENDBRANCH  18  20
ENDBRANCH  10  16
TORSDOF 3
ENDMDL
MODEL 6
REMARK VINA RESULT:      -8.2      3.146      8.937
REMARK  Name = 
REMARK  5 active torsions:
REMARK  status: ('A' for Active; 'I' for Inactive)
REMARK    1  A    between atoms: C_1  and  C_2
REMARK    2  A    between atoms: C_4  and  C_5
REMARK    3  A    between atoms: C_10  and  C_11
REMARK    4  A    between atoms: N_13  and  C_14
REMARK    5  A    between atoms: C_14  and  C_15
REMARK                            x       y       z     vdW  Elec       q    Type
REMARK                         _______ _______ _______ _____ _____    ______ ____
ROOT
ATOM      1  C   UNL     1       3.263   3.014  19.647  0.00  0.00    +0.000 C 
ATOM      2  C   UNL     1       3.480   4.353  19.006  0.00  0.00    +0.000 A 
ATOM      3  C   UNL     1       4.220   4.461  17.845  0.00  0.00    +0.000 A 
ATOM      4  C   UNL     1       4.279   5.708  17.275  0.00  0.00    +0.000 A 
ATOM      5  C   UNL     1       5.110   5.976  16.054  0.00  0.00    +0.000 C 
ATOM      6  N   UNL     1       3.608   6.755  17.782  0.00  0.00    +0.000 NA
ATOM      7  C   UNL     1       2.893   6.574  18.911  0.00  0.00    +0.000 A 
ATOM      8  N   UNL     1       2.149   7.660  19.403  0.00  0.00    +0.000 N 
ATOM      9  N   UNL     1       1.604   7.718  20.720  0.00  0.00    +0.000 N 
ATOM     10  C   UNL     1       1.036   8.988  20.797  0.00  0.00    +0.000 A 
ATOM     11  C   UNL     1       1.045   9.650  19.633  0.00  0.00    +0.000 A 
ATOM     12  C   UNL     1       1.778   8.788  18.689  0.00  0.00    +0.000 A 
ATOM     13  O   UNL     1       1.957   9.106  17.529  0.00  0.00    +0.000 OA
ATOM     14  N   UNL     1       2.858   5.408  19.582  0.00  0.00    +0.000 NA
ATOM     15  H   UNL     1       2.310   7.548  21.436  0.00  0.00    +0.000 HD
ENDROOT
BRANCH  10  16
ATOM     16  C   UNL     1       0.569   9.695  22.023  0.00  0.00    +0.000 C 
ATOM     17  O   UNL     1       1.104   9.498  23.112  0.00  0.00    +0.000 OA
ATOM     18  N   UNL     1      -0.498  10.542  21.857  0.00  0.00    +0.000 N 
ATOM     19  H   UNL     1      -0.776  10.801  20.919  0.00  0.00    +0.000 HD
BRANCH  18  20
ATOM     20  C   UNL     1      -1.103  11.219  22.999  0.00  0.00    +0.000 C 
BRANCH  20  21
ATOM     21  C   UNL     1      -1.890  12.414  22.474  0.00  0.00    +0.000 C 
ATOM     22  C   UNL     1      -3.416  12.428  22.852  0.00  0.00    +0.000 C 
ATOM     23  C   UNL     1      -3.113  13.651  23.663  0.00  0.00    +0.000 A 
ATOM     24  C   UNL     1      -3.674  14.594  24.493  0.00  0.00    +0.000 A 
ATOM     25  C   UNL     1      -2.834  15.597  24.981  0.00  0.00    +0.000 A 
ATOM     26  C   UNL     1      -1.475  15.632  24.614  0.00  0.00    +0.000 A 
ATOM     27  C   UNL     1      -0.937  14.657  23.765  0.00  0.00    +0.000 A 
ATOM     28  C   UNL     1      -1.784  13.666  23.321  0.00  0.00    +0.000 A 
ENDBRANCH  20  21
ENDBRANCH  18  20
ENDBRANCH  10  16
TORSDOF 3
ENDMDL
MODEL 7
REMARK VINA RESULT:      -8.2      2.880      5.015
REMARK  Name = 
REMARK  5 active torsions:
REMARK  status: ('A' for Active; 'I' for Inactive)
REMARK    1  A    between atoms: C_1  and  C_2
REMARK    2  A    between atoms: C_4  and  C_5
REMARK    3  A    between atoms: C_10  and  C_11
REMARK    4  A    between atoms: N_13  and  C_14
REMARK    5  A    between atoms: C_14  and  C_15
REMARK                            x       y       z     vdW  Elec       q    Type
REMARK                         _______ _______ _______ _____ _____    ______ ____
ROOT
ATOM      1  C   UNL     1      -0.949  11.440  18.492  0.00  0.00    +0.000 C 
ATOM      2  C   UNL     1      -0.251  10.481  19.411  0.00  0.00    +0.000 A 
ATOM      3  C   UNL     1      -0.668  10.337  20.719  0.00  0.00    +0.000 A 
ATOM      4  C   UNL     1      -0.037   9.363  21.454  0.00  0.00    +0.000 A 
ATOM      5  C   UNL     1      -0.345   9.155  22.909  0.00  0.00    +0.000 C 
ATOM      6  N   UNL     1       0.892   8.557  20.918  0.00  0.00    +0.000 NA
ATOM      7  C   UNL     1       1.241   8.745  19.630  0.00  0.00    +0.000 A 
ATOM      8  N   UNL     1       2.173   7.860  19.061  0.00  0.00    +0.000 N 
ATOM      9  N   UNL     1       2.859   8.108  17.835  0.00  0.00    +0.000 N 
ATOM     10  C   UNL     1       3.730   7.029  17.709  0.00  0.00    +0.000 A 
ATOM     11  C   UNL     1       3.549   6.082  18.639  0.00  0.00    +0.000 A 
ATOM     12  C   UNL     1       2.517   6.610  19.549  0.00  0.00    +0.000 A 
ATOM     13  O   UNL     1       2.118   5.979  20.510  0.00  0.00    +0.000 OA
ATOM     14  N   UNL     1       0.739   9.734  18.867  0.00  0.00    +0.000 NA
ATOM     15  H   UNL     1       3.333   9.011  17.836  0.00  0.00    +0.000 HD
ENDROOT
BRANCH  10  16
ATOM     16  C   UNL     1       4.879   6.901  16.767  0.00  0.00    +0.000 C 
ATOM     17  O   UNL     1       4.797   7.304  15.609  0.00  0.00    +0.000 OA
ATOM     18  N   UNL     1       5.999   6.288  17.268  0.00  0.00    +0.000 N 
ATOM     19  H   UNL     1       6.074   6.145  18.267  0.00  0.00    +0.000 HD
BRANCH  18  20
ATOM     20  C   UNL     1       7.153   6.023  16.416  0.00  0.00    +0.000 C 
BRANCH  20  21
ATOM     21  C   UNL     1       7.058   4.582  15.930  0.00  0.00    +0.000 C 
ATOM     22  C   UNL     1       5.614   3.962  15.953  0.00  0.00    +0.000 C 
ATOM     23  C   UNL     1       5.708   3.907  14.459  0.00  0.00    +0.000 A 
ATOM     24  C   UNL     1       5.023   3.550  13.321  0.00  0.00    +0.000 A 
ATOM     25  C   UNL     1       5.678   3.724  12.100  0.00  0.00    +0.000 A 
ATOM     26  C   UNL     1       6.991   4.231  12.059  0.00  0.00    +0.000 A 
ATOM     27  C   UNL     1       7.661   4.582  13.238  0.00  0.00    +0.000 A 
ATOM     28  C   UNL     1       6.980   4.423  14.425  0.00  0.00    +0.000 A 
ENDBRANCH  20  21
ENDBRANCH  18  20
ENDBRANCH  10  16
TORSDOF 3
ENDMDL
MODEL 8
REMARK VINA RESULT:      -8.2      2.882      8.623
REMARK  Name = 
REMARK  5 active torsions:
REMARK  status: ('A' for Active; 'I' for Inactive)
REMARK    1  A    between atoms: C_1  and  C_2
REMARK    2  A    between atoms: C_4  and  C_5
REMARK    3  A    between atoms: C_10  and  C_11
REMARK    4  A    between atoms: N_13  and  C_14
REMARK    5  A    between atoms: C_14  and  C_15
REMARK                            x       y       z     vdW  Elec       q    Type
REMARK                         _______ _______ _______ _____ _____    ______ ____
ROOT
ATOM      1  C   UNL     1       3.451   3.308  19.993  0.00  0.00    +0.000 C 
ATOM      2  C   UNL     1       3.566   4.630  19.290  0.00  0.00    +0.000 A 
ATOM      3  C   UNL     1       4.271   4.734  18.109  0.00  0.00    +0.000 A 
ATOM      4  C   UNL     1       4.235   5.957  17.485  0.00  0.00    +0.000 A 
ATOM      5  C   UNL     1       5.020   6.225  16.234  0.00  0.00    +0.000 C 
ATOM      6  N   UNL     1       3.508   6.979  17.964  0.00  0.00    +0.000 NA
ATOM      7  C   UNL     1       2.831   6.801  19.117  0.00  0.00    +0.000 A 
ATOM      8  N   UNL     1       2.028   7.857  19.581  0.00  0.00    +0.000 N 
ATOM      9  N   UNL     1       1.509   7.937  20.907  0.00  0.00    +0.000 N 
ATOM     10  C   UNL     1       0.861   9.169  20.945  0.00  0.00    +0.000 A 
ATOM     11  C   UNL     1       0.801   9.779  19.755  0.00  0.00    +0.000 A 
ATOM     12  C   UNL     1       1.568   8.926  18.830  0.00  0.00    +0.000 A 
ATOM     13  O   UNL     1       1.701   9.204  17.653  0.00  0.00    +0.000 OA
ATOM     14  N   UNL     1       2.889   5.666  19.837  0.00  0.00    +0.000 NA
ATOM     15  H   UNL     1       2.241   7.845  21.613  0.00  0.00    +0.000 HD
ENDROOT
BRANCH  10  16
ATOM     16  C   UNL     1       0.375   9.897  22.152  0.00  0.00    +0.000 C 
ATOM     17  O   UNL     1       0.689   9.532  23.282  0.00  0.00    +0.000 OA
ATOM     18  N   UNL     1      -0.454  10.964  21.914  0.00  0.00    +0.000 N 
ATOM     19  H   UNL     1      -0.529  11.326  20.972  0.00  0.00    +0.000 HD
BRANCH  18  20
ATOM     20  C   UNL     1      -1.067  11.698  23.016  0.00  0.00    +0.000 C 
BRANCH  20  21
ATOM     21  C   UNL     1      -1.856  12.861  22.427  0.00  0.00    +0.000 C 
ATOM     22  C   UNL     1      -2.420  12.621  20.980  0.00  0.00    +0.000 C 
ATOM     23  C   UNL     1      -3.785  12.693  21.595  0.00  0.00    +0.000 A 
ATOM     24  C   UNL     1      -5.129  12.612  21.315  0.00  0.00    +0.000 A 
ATOM     25  C   UNL     1      -6.015  12.792  22.378  0.00  0.00    +0.000 A 
ATOM     26  C   UNL     1      -5.532  13.058  23.673  0.00  0.00    +0.000 A 
ATOM     27  C   UNL     1      -4.156  13.135  23.924  0.00  0.00    +0.000 A 
ATOM     28  C   UNL     1      -3.307  12.929  22.860  0.00  0.00    +0.000 A 
ENDBRANCH  20  21
ENDBRANCH  18  20
ENDBRANCH  10  16
TORSDOF 3
ENDMDL
MODEL 9
REMARK VINA RESULT:      -8.2      2.667      8.519
REMARK  Name = 
REMARK  5 active torsions:
REMARK  status: ('A' for Active; 'I' for Inactive)
REMARK    1  A    between atoms: C_1  and  C_2
REMARK    2  A    between atoms: C_4  and  C_5
REMARK    3  A    between atoms: C_10  and  C_11
REMARK    4  A    between atoms: N_13  and  C_14
REMARK    5  A    between atoms: C_14  and  C_15
REMARK                            x       y       z     vdW  Elec       q    Type
REMARK                         _______ _______ _______ _____ _____    ______ ____
ROOT
ATOM      1  C   UNL     1       4.140   2.839  19.788  0.00  0.00    +0.000 C 
ATOM      2  C   UNL     1       4.150   4.153  19.063  0.00  0.00    +0.000 A 
ATOM      3  C   UNL     1       4.794   4.275  17.848  0.00  0.00    +0.000 A 
ATOM      4  C   UNL     1       4.663   5.484  17.209  0.00  0.00    +0.000 A 
ATOM      5  C   UNL     1       5.373   5.772  15.919  0.00  0.00    +0.000 C 
ATOM      6  N   UNL     1       3.905   6.473  17.707  0.00  0.00    +0.000 NA
ATOM      7  C   UNL     1       3.293   6.279  18.893  0.00  0.00    +0.000 A 
ATOM      8  N   UNL     1       2.457   7.299  19.380  0.00  0.00    +0.000 N 
ATOM      9  N   UNL     1       1.996   7.373  20.728  0.00  0.00    +0.000 N 
ATOM     10  C   UNL     1       1.285   8.570  20.778  0.00  0.00    +0.000 A 
ATOM     11  C   UNL     1       1.137   9.156  19.584  0.00  0.00    +0.000 A 
ATOM     12  C   UNL     1       1.905   8.329  18.636  0.00  0.00    +0.000 A 
ATOM     13  O   UNL     1       1.968   8.594  17.450  0.00  0.00    +0.000 OA
ATOM     14  N   UNL     1       3.444   5.161  19.626  0.00  0.00    +0.000 NA
ATOM     15  H   UNL     1       2.764   7.332  21.399  0.00  0.00    +0.000 HD
ENDROOT
BRANCH  10  16
ATOM     16  C   UNL     1       0.817   9.291  21.997  0.00  0.00    +0.000 C 
ATOM     17  O   UNL     1       1.500   9.320  23.018  0.00  0.00    +0.000 OA
ATOM     18  N   UNL     1      -0.417   9.883  21.905  0.00  0.00    +0.000 N 
ATOM     19  H   UNL     1      -0.846   9.982  20.994  0.00  0.00    +0.000 HD
BRANCH  18  20
ATOM     20  C   UNL     1      -1.022  10.539  23.060  0.00  0.00    +0.000 C 
BRANCH  20  21
ATOM     21  C   UNL     1      -1.738  11.791  22.568  0.00  0.00    +0.000 C 
ATOM     22  C   UNL     1      -2.331  12.710  23.698  0.00  0.00    +0.000 C 
ATOM     23  C   UNL     1      -1.337  13.742  23.258  0.00  0.00    +0.000 A 
ATOM     24  C   UNL     1      -0.875  15.011  23.516  0.00  0.00    +0.000 A 
ATOM     25  C   UNL     1       0.146  15.498  22.698  0.00  0.00    +0.000 A 
ATOM     26  C   UNL     1       0.657  14.711  21.649  0.00  0.00    +0.000 A 
ATOM     27  C   UNL     1       0.163  13.423  21.412  0.00  0.00    +0.000 A 
ATOM     28  C   UNL     1      -0.827  12.960  22.251  0.00  0.00    +0.000 A 
ENDBRANCH  20  21
ENDBRANCH  18  20
ENDBRANCH  10  16
TORSDOF 3
ENDMDL
