MODEL 1
REMARK VINA RESULT:      -9.5      0.000      0.000
REMARK  Name = 
REMARK  4 active torsions:
REMARK  status: ('A' for Active; 'I' for Inactive)
REMARK    1  A    between atoms: C_2  and  C_13
REMARK    2  A    between atoms: N_3  and  C_4
REMARK    3  A    between atoms: C_4  and  C_5
REMARK    4  A    between atoms: C_17  and  N_18
REMARK                            x       y       z     vdW  Elec       q    Type
REMARK                         _______ _______ _______ _____ _____    ______ ____
ROOT
ATOM      1  C   UNL     1       6.739   6.237  17.492  0.00  0.00    +0.000 A 
ATOM      2  C   UNL     1       7.062   5.882  16.179  0.00  0.00    +0.000 A 
ATOM      3  C   UNL     1       6.083   5.378  15.325  0.00  0.00    +0.000 A 
ATOM      4  C   UNL     1       4.788   5.161  15.797  0.00  0.00    +0.000 A 
ATOM      5  C   UNL     1       4.474   5.391  17.140  0.00  0.00    +0.000 A 
ATOM      6  C   UNL     1       5.450   5.988  17.963  0.00  0.00    +0.000 A 
ENDROOT
BRANCH   5   7
ATOM      7  N   UNL     1       3.160   5.196  17.641  0.00  0.00    +0.000 N 
ATOM      8  C   UNL     1       2.654   5.914  18.698  0.00  0.00    +0.000 C 
ATOM      9  O   UNL     1       2.748   7.085  19.005  0.00  0.00    +0.000 OA
ATOM     10  C   UNL     1       1.994   4.920  19.531  0.00  0.00    +0.000 A 
ATOM     11  C   UNL     1       1.997   4.903  20.907  0.00  0.00    +0.000 A 
ATOM     12  C   UNL     1       1.877   3.653  21.517  0.00  0.00    +0.000 A 
ATOM     13  C   UNL     1       1.706   2.478  20.755  0.00  0.00    +0.000 A 
ATOM     14  C   UNL     1       1.666   2.522  19.371  0.00  0.00    +0.000 A 
ATOM     15  C   UNL     1       1.852   3.765  18.786  0.00  0.00    +0.000 A 
ATOM     16  C   UNL     1       2.481   4.007  17.500  0.00  0.00    +0.000 C 
ATOM     17  O   UNL     1       2.461   3.203  16.586  0.00  0.00    +0.000 OA
ENDBRANCH   5   7
BRANCH   1  19
ATOM     18  O   UNL     1       8.321   6.368  19.219  0.00  0.00    +0.000 OA
ATOM     19  C   UNL     1       7.764   6.957  18.298  0.00  0.00    +0.000 C 
ATOM     20  N   UNL     1       8.053   8.270  17.978  0.00  0.00    +0.000 N 
ATOM     21  H   UNL     1       7.404   8.799  17.411  0.00  0.00    +0.000 HD
BRANCH  20  22
ATOM     22  C   UNL     1       8.941   9.010  18.849  0.00  0.00    +0.000 C 
BRANCH  22  23
ATOM     23  C   UNL     1       8.991  10.470  18.511  0.00  0.00    +0.000 A 
ATOM     24  C   UNL     1       7.974  11.073  17.757  0.00  0.00    +0.000 A 
ATOM     25  C   UNL     1       8.078  12.415  17.397  0.00  0.00    +0.000 A 
ATOM     26  F   UNL     1       7.104  12.981  16.673  0.00  0.00    +0.000 F 
ATOM     27  C   UNL     1       9.183  13.175  17.767  0.00  0.00    +0.000 A 
ATOM     28  C   UNL     1      10.203  12.583  18.510  0.00  0.00    +0.000 A 
ATOM     29  C   UNL     1      10.100  11.241  18.872  0.00  0.00    +0.000 A 
ATOM     30  F   UNL     1      11.103  10.686  19.567  0.00  0.00    +0.000 F 
ENDBRANCH  22  23
ENDBRANCH  20  22
ENDBRANCH   1  19
TORSDOF 4
ENDMDL
MODEL 2
REMARK VINA RESULT:      -9.4      4.650      7.569
REMARK  Name = 
REMARK  4 active torsions:
REMARK  status: ('A' for Active; 'I' for Inactive)
REMARK    1  A    between atoms: C_2  and  C_13
REMARK    2  A    between atoms: N_3  and  C_4
REMARK    3  A    between atoms: C_4  and  C_5
REMARK    4  A    between atoms: C_17  and  N_18
REMARK                            x       y       z     vdW  Elec       q    Type
REMARK                         _______ _______ _______ _____ _____    ______ ____
ROOT
ATOM      1  C   UNL     1       2.158   6.983  19.516  0.00  0.00    +0.000 A 
ATOM      2  C   UNL     1       1.485   6.402  20.595  0.00  0.00    +0.000 A 
ATOM      3  C   UNL     1       1.890   5.165  21.094  0.00  0.00    +0.000 A 
ATOM      4  C   UNL     1       2.927   4.468  20.475  0.00  0.00    +0.000 A 
ATOM      5  C   UNL     1       3.532   4.972  19.320  0.00  0.00    +0.000 A 
ATOM      6  C   UNL     1       3.175   6.265  18.887  0.00  0.00    +0.000 A 
ENDROOT
BRANCH   5   7
ATOM      7  N   UNL     1       4.603   4.292  18.682  0.00  0.00    +0.000 N 
ATOM      8  C   UNL     1       5.905   4.727  18.750  0.00  0.00    +0.000 C 
ATOM      9  O   UNL     1       6.560   5.196  19.659  0.00  0.00    +0.000 OA
ATOM     10  C   UNL     1       6.400   4.610  17.386  0.00  0.00    +0.000 A 
ATOM     11  C   UNL     1       7.240   5.504  16.764  0.00  0.00    +0.000 A 
ATOM     12  C   UNL     1       7.134   5.598  15.375  0.00  0.00    +0.000 A 
ATOM     13  C   UNL     1       6.246   4.776  14.650  0.00  0.00    +0.000 A 
ATOM     14  C   UNL     1       5.436   3.853  15.293  0.00  0.00    +0.000 A 
ATOM     15  C   UNL     1       5.513   3.823  16.676  0.00  0.00    +0.000 A 
ATOM     16  C   UNL     1       4.421   3.495  17.575  0.00  0.00    +0.000 C 
ATOM     17  O   UNL     1       3.508   2.749  17.271  0.00  0.00    +0.000 OA
ENDBRANCH   5   7
BRANCH   1  19
ATOM     18  O   UNL     1       2.336   8.884  18.154  0.00  0.00    +0.000 OA
ATOM     19  C   UNL     1       1.822   8.388  19.152  0.00  0.00    +0.000 C 
ATOM     20  N   UNL     1       0.940   9.085  19.955  0.00  0.00    +0.000 N 
ATOM     21  H   UNL     1       0.752   8.755  20.893  0.00  0.00    +0.000 HD
BRANCH  20  22
ATOM     22  C   UNL     1       0.727  10.490  19.682  0.00  0.00    +0.000 C 
BRANCH  22  23
ATOM     23  C   UNL     1      -0.616  10.759  19.072  0.00  0.00    +0.000 A 
ATOM     24  C   UNL     1      -0.992  10.163  17.859  0.00  0.00    +0.000 A 
ATOM     25  C   UNL     1      -2.217  10.482  17.278  0.00  0.00    +0.000 A 
ATOM     26  F   UNL     1      -2.566   9.912  16.117  0.00  0.00    +0.000 F 
ATOM     27  C   UNL     1      -3.081  11.394  17.877  0.00  0.00    +0.000 A 
ATOM     28  C   UNL     1      -2.714  11.997  19.078  0.00  0.00    +0.000 A 
ATOM     29  C   UNL     1      -1.489  11.678  19.661  0.00  0.00    +0.000 A 
ATOM     30  F   UNL     1      -1.146  12.287  20.805  0.00  0.00    +0.000 F 
ENDBRANCH  22  23
ENDBRANCH  20  22
ENDBRANCH   1  19
TORSDOF 4
ENDMDL
MODEL 3
REMARK VINA RESULT:      -9.3      4.665      7.598
REMARK  Name = 
REMARK  4 active torsions:
REMARK  status: ('A' for Active; 'I' for Inactive)
REMARK    1  A    between atoms: C_2  and  C_13
REMARK    2  A    between atoms: N_3  and  C_4
REMARK    3  A    between atoms: C_4  and  C_5
REMARK    4  A    between atoms: C_17  and  N_18
REMARK                            x       y       z     vdW  Elec       q    Type
REMARK                         _______ _______ _______ _____ _____    ______ ____
ROOT
ATOM      1  C   UNL     1       2.154   7.246  19.196  0.00  0.00    +0.000 A 
ATOM      2  C   UNL     1       1.501   6.817  20.356  0.00  0.00    +0.000 A 
ATOM      3  C   UNL     1       1.889   5.637  20.988  0.00  0.00    +0.000 A 
ATOM      4  C   UNL     1       2.888   4.841  20.428  0.00  0.00    +0.000 A 
ATOM      5  C   UNL     1       3.468   5.186  19.204  0.00  0.00    +0.000 A 
ATOM      6  C   UNL     1       3.131   6.427  18.629  0.00  0.00    +0.000 A 
ENDROOT
BRANCH   5   7
ATOM      7  N   UNL     1       4.500   4.403  18.622  0.00  0.00    +0.000 N 
ATOM      8  C   UNL     1       5.830   4.737  18.717  0.00  0.00    +0.000 C 
ATOM      9  O   UNL     1       6.493   5.183  19.631  0.00  0.00    +0.000 OA
ATOM     10  C   UNL     1       6.353   4.536  17.374  0.00  0.00    +0.000 A 
ATOM     11  C   UNL     1       7.279   5.340  16.751  0.00  0.00    +0.000 A 
ATOM     12  C   UNL     1       7.221   5.395  15.357  0.00  0.00    +0.000 A 
ATOM     13  C   UNL     1       6.292   4.621  14.630  0.00  0.00    +0.000 A 
ATOM     14  C   UNL     1       5.394   3.786  15.276  0.00  0.00    +0.000 A 
ATOM     15  C   UNL     1       5.427   3.797  16.661  0.00  0.00    +0.000 A 
ATOM     16  C   UNL     1       4.288   3.585  17.536  0.00  0.00    +0.000 C 
ATOM     17  O   UNL     1       3.328   2.903  17.226  0.00  0.00    +0.000 OA
ENDBRANCH   5   7
BRANCH   1  19
ATOM     18  O   UNL     1       2.247   8.925  17.562  0.00  0.00    +0.000 OA
ATOM     19  C   UNL     1       1.843   8.606  18.676  0.00  0.00    +0.000 C 
ATOM     20  N   UNL     1       1.108   9.465  19.470  0.00  0.00    +0.000 N 
ATOM     21  H   UNL     1       1.027   9.281  20.462  0.00  0.00    +0.000 HD
BRANCH  20  22
ATOM     22  C   UNL     1       0.931  10.831  19.025  0.00  0.00    +0.000 C 
BRANCH  22  23
ATOM     23  C   UNL     1      -0.514  11.223  18.938  0.00  0.00    +0.000 A 
ATOM     24  C   UNL     1      -1.060  12.173  19.814  0.00  0.00    +0.000 A 
ATOM     25  C   UNL     1      -2.419  12.470  19.758  0.00  0.00    +0.000 A 
ATOM     26  F   UNL     1      -2.932  13.375  20.602  0.00  0.00    +0.000 F 
ATOM     27  C   UNL     1      -3.258  11.831  18.850  0.00  0.00    +0.000 A 
ATOM     28  C   UNL     1      -2.728  10.880  17.981  0.00  0.00    +0.000 A 
ATOM     29  C   UNL     1      -1.367  10.583  18.034  0.00  0.00    +0.000 A 
ATOM     30  F   UNL     1      -0.882   9.648  17.205  0.00  0.00    +0.000 F 
ENDBRANCH  22  23
ENDBRANCH  20  22
ENDBRANCH   1  19
TORSDOF 4
ENDMDL
MODEL 4
REMARK VINA RESULT:      -9.1      7.489     10.480
REMARK  Name = 
REMARK  4 active torsions:
REMARK  status: ('A' for Active; 'I' for Inactive)
REMARK    1  A    between atoms: C_2  and  C_13
REMARK    2  A    between atoms: N_3  and  C_4
REMARK    3  A    between atoms: C_4  and  C_5
REMARK    4  A    between atoms: C_17  and  N_18
REMARK                            x       y       z     vdW  Elec       q    Type
REMARK                         _______ _______ _______ _____ _____    ______ ____
ROOT
ATOM      1  C   UNL     1       0.714   9.414  21.136  0.00  0.00    +0.000 A 
ATOM      2  C   UNL     1       0.444   8.889  22.403  0.00  0.00    +0.000 A 
ATOM      3  C   UNL     1      -0.399   9.568  23.282  0.00  0.00    +0.000 A 
ATOM      4  C   UNL     1      -0.924  10.810  22.927  0.00  0.00    +0.000 A 
ATOM      5  C   UNL     1      -0.567  11.413  21.717  0.00  0.00    +0.000 A 
ATOM      6  C   UNL     1       0.208  10.671  20.803  0.00  0.00    +0.000 A 
ENDROOT
BRANCH   5   7
ATOM      7  N   UNL     1      -1.101  12.667  21.323  0.00  0.00    +0.000 N 
ATOM      8  C   UNL     1      -0.950  13.809  22.073  0.00  0.00    +0.000 C 
ATOM      9  O   UNL     1      -0.009  14.250  22.702  0.00  0.00    +0.000 OA
ATOM     10  C   UNL     1      -2.268  14.425  22.071  0.00  0.00    +0.000 A 
ATOM     11  C   UNL     1      -2.853  15.061  23.142  0.00  0.00    +0.000 A 
ATOM     12  C   UNL     1      -4.248  15.046  23.190  0.00  0.00    +0.000 A 
ATOM     13  C   UNL     1      -5.013  14.454  22.163  0.00  0.00    +0.000 A 
ATOM     14  C   UNL     1      -4.404  13.853  21.073  0.00  0.00    +0.000 A 
ATOM     15  C   UNL     1      -3.018  13.823  21.078  0.00  0.00    +0.000 A 
ATOM     16  C   UNL     1      -2.194  12.781  20.493  0.00  0.00    +0.000 C 
ATOM     17  O   UNL     1      -2.543  12.113  19.538  0.00  0.00    +0.000 OA
ENDBRANCH   5   7
BRANCH   1  19
ATOM     18  O   UNL     1       1.599   8.959  19.012  0.00  0.00    +0.000 OA
ATOM     19  C   UNL     1       1.450   8.560  20.163  0.00  0.00    +0.000 C 
ATOM     20  N   UNL     1       1.941   7.342  20.593  0.00  0.00    +0.000 N 
ATOM     21  H   UNL     1       1.577   6.930  21.442  0.00  0.00    +0.000 HD
BRANCH  20  22
ATOM     22  C   UNL     1       2.528   6.453  19.613  0.00  0.00    +0.000 C 
BRANCH  22  23
ATOM     23  C   UNL     1       1.978   5.061  19.700  0.00  0.00    +0.000 A 
ATOM     24  C   UNL     1       1.802   4.428  20.939  0.00  0.00    +0.000 A 
ATOM     25  C   UNL     1       1.354   3.110  20.989  0.00  0.00    +0.000 A 
ATOM     26  F   UNL     1       1.194   2.512  22.176  0.00  0.00    +0.000 F 
ATOM     27  C   UNL     1       1.081   2.399  19.824  0.00  0.00    +0.000 A 
ATOM     28  C   UNL     1       1.259   3.016  18.588  0.00  0.00    +0.000 A 
ATOM     29  C   UNL     1       1.706   4.335  18.536  0.00  0.00    +0.000 A 
ATOM     30  F   UNL     1       1.893   4.902  17.336  0.00  0.00    +0.000 F 
ENDBRANCH  22  23
ENDBRANCH  20  22
ENDBRANCH   1  19
TORSDOF 4
ENDMDL
MODEL 5
REMARK VINA RESULT:      -9.0      6.544      9.208
REMARK  Name = 
REMARK  4 active torsions:
REMARK  status: ('A' for Active; 'I' for Inactive)
REMARK    1  A    between atoms: C_2  and  C_13
REMARK    2  A    between atoms: N_3  and  C_4
REMARK    3  A    between atoms: C_4  and  C_5
REMARK    4  A    between atoms: C_17  and  N_18
REMARK                            x       y       z     vdW  Elec       q    Type
REMARK                         _______ _______ _______ _____ _____    ______ ____
ROOT
ATOM      1  C   UNL     1       1.223   9.033  19.190  0.00  0.00    +0.000 A 
ATOM      2  C   UNL     1       1.228   8.757  20.560  0.00  0.00    +0.000 A 
ATOM      3  C   UNL     1       0.245   9.295  21.390  0.00  0.00    +0.000 A 
ATOM      4  C   UNL     1      -0.710  10.167  20.869  0.00  0.00    +0.000 A 
ATOM      5  C   UNL     1      -0.658  10.556  19.526  0.00  0.00    +0.000 A 
ATOM      6  C   UNL     1       0.282   9.930  18.683  0.00  0.00    +0.000 A 
ENDROOT
BRANCH   5   7
ATOM      7  N   UNL     1      -1.629  11.427  18.965  0.00  0.00    +0.000 N 
ATOM      8  C   UNL     1      -2.189  12.467  19.668  0.00  0.00    +0.000 C 
ATOM      9  O   UNL     1      -1.716  13.269  20.448  0.00  0.00    +0.000 OA
ATOM     10  C   UNL     1      -3.610  12.387  19.367  0.00  0.00    +0.000 A 
ATOM     11  C   UNL     1      -4.629  12.620  20.262  0.00  0.00    +0.000 A 
ATOM     12  C   UNL     1      -5.829  11.946  20.030  0.00  0.00    +0.000 A 
ATOM     13  C   UNL     1      -5.998  11.114  18.903  0.00  0.00    +0.000 A 
ATOM     14  C   UNL     1      -4.971  10.924  17.992  0.00  0.00    +0.000 A 
ATOM     15  C   UNL     1      -3.769  11.552  18.278  0.00  0.00    +0.000 A 
ATOM     16  C   UNL     1      -2.452  11.051  17.928  0.00  0.00    +0.000 C 
ATOM     17  O   UNL     1      -2.243  10.344  16.960  0.00  0.00    +0.000 OA
ENDBRANCH   5   7
BRANCH   1  19
ATOM     18  O   UNL     1       2.535   8.783  17.262  0.00  0.00    +0.000 OA
ATOM     19  C   UNL     1       2.165   8.278  18.317  0.00  0.00    +0.000 C 
ATOM     20  N   UNL     1       2.589   7.029  18.729  0.00  0.00    +0.000 N 
ATOM     21  H   UNL     1       2.070   6.537  19.444  0.00  0.00    +0.000 HD
BRANCH  20  22
ATOM     22  C   UNL     1       3.387   6.239  17.816  0.00  0.00    +0.000 C 
BRANCH  22  23
ATOM     23  C   UNL     1       3.047   4.780  17.872  0.00  0.00    +0.000 A 
ATOM     24  C   UNL     1       1.773   4.348  18.272  0.00  0.00    +0.000 A 
ATOM     25  C   UNL     1       1.503   2.987  18.382  0.00  0.00    +0.000 A 
ATOM     26  F   UNL     1       0.285   2.584  18.770  0.00  0.00    +0.000 F 
ATOM     27  C   UNL     1       2.481   2.035  18.110  0.00  0.00    +0.000 A 
ATOM     28  C   UNL     1       3.752   2.453  17.720  0.00  0.00    +0.000 A 
ATOM     29  C   UNL     1       4.023   3.815  17.607  0.00  0.00    +0.000 A 
ATOM     30  F   UNL     1       5.259   4.196  17.252  0.00  0.00    +0.000 F 
ENDBRANCH  22  23
ENDBRANCH  20  22
ENDBRANCH   1  19
TORSDOF 4
ENDMDL
MODEL 6
REMARK VINA RESULT:      -9.0      4.696      7.268
REMARK  Name = 
REMARK  4 active torsions:
REMARK  status: ('A' for Active; 'I' for Inactive)
REMARK    1  A    between atoms: C_2  and  C_13
REMARK    2  A    between atoms: N_3  and  C_4
REMARK    3  A    between atoms: C_4  and  C_5
REMARK    4  A    between atoms: C_17  and  N_18
REMARK                            x       y       z     vdW  Elec       q    Type
REMARK                         _______ _______ _______ _____ _____    ______ ____
ROOT
ATOM      1  C   UNL     1       2.150   7.382  19.046  0.00  0.00    +0.000 A 
ATOM      2  C   UNL     1       1.559   7.023  20.261  0.00  0.00    +0.000 A 
ATOM      3  C   UNL     1       1.921   5.837  20.897  0.00  0.00    +0.000 A 
ATOM      4  C   UNL     1       2.826   4.966  20.290  0.00  0.00    +0.000 A 
ATOM      5  C   UNL     1       3.334   5.244  19.018  0.00  0.00    +0.000 A 
ATOM      6  C   UNL     1       3.032   6.490  18.433  0.00  0.00    +0.000 A 
ENDROOT
BRANCH   5   7
ATOM      7  N   UNL     1       4.271   4.385  18.386  0.00  0.00    +0.000 N 
ATOM      8  C   UNL     1       5.629   4.516  18.550  0.00  0.00    +0.000 C 
ATOM      9  O   UNL     1       6.310   4.771  19.524  0.00  0.00    +0.000 OA
ATOM     10  C   UNL     1       6.174   4.376  17.209  0.00  0.00    +0.000 A 
ATOM     11  C   UNL     1       7.228   5.099  16.697  0.00  0.00    +0.000 A 
ATOM     12  C   UNL     1       7.235   5.299  15.315  0.00  0.00    +0.000 A 
ATOM     13  C   UNL     1       6.239   4.740  14.488  0.00  0.00    +0.000 A 
ATOM     14  C   UNL     1       5.208   3.982  15.019  0.00  0.00    +0.000 A 
ATOM     15  C   UNL     1       5.186   3.851  16.399  0.00  0.00    +0.000 A 
ATOM     16  C   UNL     1       3.993   3.717  17.215  0.00  0.00    +0.000 C 
ATOM     17  O   UNL     1       2.962   3.212  16.810  0.00  0.00    +0.000 OA
ENDBRANCH   5   7
BRANCH   1  19
ATOM     18  O   UNL     1       2.335   9.053  17.410  0.00  0.00    +0.000 OA
ATOM     19  C   UNL     1       1.885   8.746  18.510  0.00  0.00    +0.000 C 
ATOM     20  N   UNL     1       1.138   9.621  19.275  0.00  0.00    +0.000 N 
ATOM     21  H   UNL     1       1.019   9.443  20.263  0.00  0.00    +0.000 HD
BRANCH  20  22
ATOM     22  C   UNL     1       1.004  10.989  18.819  0.00  0.00    +0.000 C 
BRANCH  22  23
ATOM     23  C   UNL     1       0.186  11.827  19.755  0.00  0.00    +0.000 A 
ATOM     24  C   UNL     1       0.040  11.474  21.104  0.00  0.00    +0.000 A 
ATOM     25  C   UNL     1      -0.781  12.230  21.937  0.00  0.00    +0.000 A 
ATOM     26  F   UNL     1      -0.918  11.882  23.223  0.00  0.00    +0.000 F 
ATOM     27  C   UNL     1      -1.473  13.336  21.452  0.00  0.00    +0.000 A 
ATOM     28  C   UNL     1      -1.341  13.692  20.111  0.00  0.00    +0.000 A 
ATOM     29  C   UNL     1      -0.519  12.937  19.277  0.00  0.00    +0.000 A 
ATOM     30  F   UNL     1      -0.425  13.283  17.986  0.00  0.00    +0.000 F 
ENDBRANCH  22  23
ENDBRANCH  20  22
ENDBRANCH   1  19
TORSDOF 4
ENDMDL
MODEL 7
REMARK VINA RESULT:      -9.0      6.784      9.632
REMARK  Name = 
REMARK  4 active torsions:
REMARK  status: ('A' for Active; 'I' for Inactive)
REMARK    1  A    between atoms: C_2  and  C_13
REMARK    2  A    between atoms: N_3  and  C_4
REMARK    3  A    between atoms: C_4  and  C_5
REMARK    4  A    between atoms: C_17  and  N_18
REMARK                            x       y       z     vdW  Elec       q    Type
REMARK                         _______ _______ _______ _____ _____    ______ ____
ROOT
ATOM      1  C   UNL     1       0.745   9.490  18.770  0.00  0.00    +0.000 A 
ATOM      2  C   UNL     1      -0.260   9.753  17.834  0.00  0.00    +0.000 A 
ATOM      3  C   UNL     1      -1.241  10.707  18.102  0.00  0.00    +0.000 A 
ATOM      4  C   UNL     1      -1.265  11.356  19.336  0.00  0.00    +0.000 A 
ATOM      5  C   UNL     1      -0.345  11.019  20.334  0.00  0.00    +0.000 A 
ATOM      6  C   UNL     1       0.694  10.123  20.012  0.00  0.00    +0.000 A 
ENDROOT
BRANCH   5   7
ATOM      7  N   UNL     1      -0.335  11.678  21.592  0.00  0.00    +0.000 N 
ATOM      8  C   UNL     1      -0.989  11.184  22.695  0.00  0.00    +0.000 C 
ATOM      9  O   UNL     1      -1.113  10.056  23.130  0.00  0.00    +0.000 OA
ATOM     10  C   UNL     1      -1.658  12.340  23.270  0.00  0.00    +0.000 A 
ATOM     11  C   UNL     1      -2.916  12.337  23.830  0.00  0.00    +0.000 A 
ATOM     12  C   UNL     1      -3.629  13.536  23.770  0.00  0.00    +0.000 A 
ATOM     13  C   UNL     1      -3.061  14.700  23.212  0.00  0.00    +0.000 A 
ATOM     14  C   UNL     1      -1.778  14.692  22.689  0.00  0.00    +0.000 A 
ATOM     15  C   UNL     1      -1.114  13.476  22.701  0.00  0.00    +0.000 A 
ATOM     16  C   UNL     1      -0.142  13.034  21.717  0.00  0.00    +0.000 C 
ATOM     17  O   UNL     1       0.567  13.801  21.091  0.00  0.00    +0.000 OA
ENDBRANCH   5   7
BRANCH   1  19
ATOM     18  O   UNL     1       2.502   8.892  17.336  0.00  0.00    +0.000 OA
ATOM     19  C   UNL     1       1.879   8.618  18.357  0.00  0.00    +0.000 C 
ATOM     20  N   UNL     1       2.190   7.525  19.143  0.00  0.00    +0.000 N 
ATOM     21  H   UNL     1       1.510   7.176  19.805  0.00  0.00    +0.000 HD
BRANCH  20  22
ATOM     22  C   UNL     1       3.196   6.599  18.665  0.00  0.00    +0.000 C 
BRANCH  22  23
ATOM     23  C   UNL     1       2.677   5.197  18.551  0.00  0.00    +0.000 A 
ATOM     24  C   UNL     1       1.778   4.679  19.495  0.00  0.00    +0.000 A 
ATOM     25  C   UNL     1       1.364   3.353  19.406  0.00  0.00    +0.000 A 
ATOM     26  F   UNL     1       0.508   2.865  20.314  0.00  0.00    +0.000 F 
ATOM     27  C   UNL     1       1.834   2.519  18.396  0.00  0.00    +0.000 A 
ATOM     28  C   UNL     1       2.734   3.021  17.457  0.00  0.00    +0.000 A 
ATOM     29  C   UNL     1       3.148   4.349  17.544  0.00  0.00    +0.000 A 
ATOM     30  F   UNL     1       4.031   4.805  16.645  0.00  0.00    +0.000 F 
ENDBRANCH  22  23
ENDBRANCH  20  22
ENDBRANCH   1  19
TORSDOF 4
ENDMDL
MODEL 8
REMARK VINA RESULT:      -8.9      7.016      9.975
REMARK  Name = 
REMARK  4 active torsions:
REMARK  status: ('A' for Active; 'I' for Inactive)
REMARK    1  A    between atoms: C_2  and  C_13
REMARK    2  A    between atoms: N_3  and  C_4
REMARK    3  A    between atoms: C_4  and  C_5
REMARK    4  A    between atoms: C_17  and  N_18
REMARK                            x       y       z     vdW  Elec       q    Type
REMARK                         _______ _______ _______ _____ _____    ______ ____
ROOT
ATOM      1  C   UNL     1       0.772   9.404  20.663  0.00  0.00    +0.000 A 
ATOM      2  C   UNL     1       0.787   9.313  22.058  0.00  0.00    +0.000 A 
ATOM      3  C   UNL     1      -0.118  10.046  22.822  0.00  0.00    +0.000 A 
ATOM      4  C   UNL     1      -1.002  10.929  22.202  0.00  0.00    +0.000 A 
ATOM      5  C   UNL     1      -0.951  11.130  20.819  0.00  0.00    +0.000 A 
ATOM      6  C   UNL     1      -0.095  10.312  20.054  0.00  0.00    +0.000 A 
ENDROOT
BRANCH   5   7
ATOM      7  N   UNL     1      -1.851  12.008  20.160  0.00  0.00    +0.000 N 
ATOM      8  C   UNL     1      -2.630  12.918  20.834  0.00  0.00    +0.000 C 
ATOM      9  O   UNL     1      -2.400  13.641  21.783  0.00  0.00    +0.000 OA
ATOM     10  C   UNL     1      -3.945  12.795  20.223  0.00  0.00    +0.000 A 
ATOM     11  C   UNL     1      -5.145  12.854  20.894  0.00  0.00    +0.000 A 
ATOM     12  C   UNL     1      -6.210  12.147  20.332  0.00  0.00    +0.000 A 
ATOM     13  C   UNL     1      -6.069  11.455  19.111  0.00  0.00    +0.000 A 
ATOM     14  C   UNL     1      -4.861  11.442  18.431  0.00  0.00    +0.000 A 
ATOM     15  C   UNL     1      -3.802  12.096  19.039  0.00  0.00    +0.000 A 
ATOM     16  C   UNL     1      -2.404  11.720  18.933  0.00  0.00    +0.000 C 
ATOM     17  O   UNL     1      -1.939  11.154  17.961  0.00  0.00    +0.000 OA
ENDBRANCH   5   7
BRANCH   1  19
ATOM     18  O   UNL     1       1.830   8.679  18.699  0.00  0.00    +0.000 OA
ATOM     19  C   UNL     1       1.615   8.454  19.886  0.00  0.00    +0.000 C 
ATOM     20  N   UNL     1       2.129   7.346  20.534  0.00  0.00    +0.000 N 
ATOM     21  H   UNL     1       1.722   7.048  21.411  0.00  0.00    +0.000 HD
BRANCH  20  22
ATOM     22  C   UNL     1       2.826   6.352  19.746  0.00  0.00    +0.000 C 
BRANCH  22  23
ATOM     23  C   UNL     1       2.143   5.017  19.773  0.00  0.00    +0.000 A 
ATOM     24  C   UNL     1       1.970   4.317  20.976  0.00  0.00    +0.000 A 
ATOM     25  C   UNL     1       1.394   3.049  20.966  0.00  0.00    +0.000 A 
ATOM     26  F   UNL     1       1.237   2.386  22.120  0.00  0.00    +0.000 F 
ATOM     27  C   UNL     1       0.991   2.451  19.776  0.00  0.00    +0.000 A 
ATOM     28  C   UNL     1       1.166   3.135  18.574  0.00  0.00    +0.000 A 
ATOM     29  C   UNL     1       1.740   4.405  18.582  0.00  0.00    +0.000 A 
ATOM     30  F   UNL     1       1.919   5.035  17.413  0.00  0.00    +0.000 F 
ENDBRANCH  22  23
ENDBRANCH  20  22
ENDBRANCH   1  19
TORSDOF 4
ENDMDL
MODEL 9
REMARK VINA RESULT:      -8.9      5.889      7.794
REMARK  Name = 
REMARK  4 active torsions:
REMARK  status: ('A' for Active; 'I' for Inactive)
REMARK    1  A    between atoms: C_2  and  C_13
REMARK    2  A    between atoms: N_3  and  C_4
REMARK    3  A    between atoms: C_4  and  C_5
REMARK    4  A    between atoms: C_17  and  N_18
REMARK                            x       y       z     vdW  Elec       q    Type
REMARK                         _______ _______ _______ _____ _____    ______ ____
ROOT
ATOM      1  C   UNL     1       1.502   8.716  19.035  0.00  0.00    +0.000 A 
ATOM      2  C   UNL     1       1.398   8.368  20.385  0.00  0.00    +0.000 A 
ATOM      3  C   UNL     1       0.361   8.877  21.166  0.00  0.00    +0.000 A 
ATOM      4  C   UNL     1      -0.541   9.790  20.621  0.00  0.00    +0.000 A 
ATOM      5  C   UNL     1      -0.382  10.248  19.309  0.00  0.00    +0.000 A 
ATOM      6  C   UNL     1       0.613   9.653  18.507  0.00  0.00    +0.000 A 
ENDROOT
BRANCH   5   7
ATOM      7  N   UNL     1      -1.296  11.163  18.724  0.00  0.00    +0.000 N 
ATOM      8  C   UNL     1      -1.773  12.267  19.389  0.00  0.00    +0.000 C 
ATOM      9  O   UNL     1      -1.235  13.064  20.132  0.00  0.00    +0.000 OA
ATOM     10  C   UNL     1      -3.200  12.276  19.106  0.00  0.00    +0.000 A 
ATOM     11  C   UNL     1      -4.189  12.614  20.002  0.00  0.00    +0.000 A 
ATOM     12  C   UNL     1      -5.436  12.017  19.809  0.00  0.00    +0.000 A 
ATOM     13  C   UNL     1      -5.677  11.156  18.719  0.00  0.00    +0.000 A 
ATOM     14  C   UNL     1      -4.678  10.859  17.805  0.00  0.00    +0.000 A 
ATOM     15  C   UNL     1      -3.432  11.411  18.053  0.00  0.00    +0.000 A 
ATOM     16  C   UNL     1      -2.157  10.806  17.711  0.00  0.00    +0.000 C 
ATOM     17  O   UNL     1      -2.011  10.048  16.769  0.00  0.00    +0.000 OA
ENDBRANCH   5   7
BRANCH   1  19
ATOM     18  O   UNL     1       2.921   8.529  17.177  0.00  0.00    +0.000 OA
ATOM     19  C   UNL     1       2.498   7.993  18.197  0.00  0.00    +0.000 C 
ATOM     20  N   UNL     1       2.913   6.738  18.600  0.00  0.00    +0.000 N 
ATOM     21  H   UNL     1       2.361   6.222  19.272  0.00  0.00    +0.000 HD
BRANCH  20  22
ATOM     22  C   UNL     1       3.769   5.980  17.712  0.00  0.00    +0.000 C 
BRANCH  22  23
ATOM     23  C   UNL     1       5.221   6.120  18.057  0.00  0.00    +0.000 A 
ATOM     24  C   UNL     1       6.041   7.035  17.380  0.00  0.00    +0.000 A 
ATOM     25  C   UNL     1       7.402   7.098  17.672  0.00  0.00    +0.000 A 
ATOM     26  F   UNL     1       8.178   7.970  17.016  0.00  0.00    +0.000 F 
ATOM     27  C   UNL     1       7.972   6.259  18.625  0.00  0.00    +0.000 A 
ATOM     28  C   UNL     1       7.168   5.342  19.298  0.00  0.00    +0.000 A 
ATOM     29  C   UNL     1       5.806   5.278  19.008  0.00  0.00    +0.000 A 
ATOM     30  F   UNL     1       5.055   4.373  19.652  0.00  0.00    +0.000 F 
ENDBRANCH  22  23
ENDBRANCH  20  22
ENDBRANCH   1  19
TORSDOF 4
ENDMDL
