MODEL 1
REMARK VINA RESULT:      -8.5      0.000      0.000
REMARK  Name = 
REMARK  9 active torsions:
REMARK  status: ('A' for Active; 'I' for Inactive)
REMARK    1  A    between atoms: C_2  and  O_3
REMARK    2  A    between atoms: C_2  and  C_4
REMARK    3  A    between atoms: C_4  and  C_5
REMARK    4  A    between atoms: C_5  and  C_6
REMARK    5  A    between atoms: C_6  and  C_7
REMARK    6  A    between atoms: C_6  and  N_14
REMARK    7  A    between atoms: C_7  and  C_8
REMARK    8  A    between atoms: N_17  and  C_18
REMARK    9  A    between atoms: C_23  and  C_24
REMARK                            x       y       z     vdW  Elec       q    Type
REMARK                         _______ _______ _______ _____ _____    ______ ____
ROOT
ATOM      1  N   UNL     1       3.178   6.417  19.223  0.00  0.00    +0.000 N 
ATOM      2  C   UNL     1       2.229   7.431  19.319  0.00  0.00    +0.000 C 
ATOM      3  O   UNL     1       1.728   7.946  18.320  0.00  0.00    +0.000 OA
ATOM      4  N   UNL     1       1.952   7.822  20.609  0.00  0.00    +0.000 N 
ATOM      5  H   UNL     1       3.341   5.851  20.024  0.00  0.00    +0.000 HD
ATOM      6  H   UNL     1       2.736   7.721  21.242  0.00  0.00    +0.000 HD
ENDROOT
BRANCH   4   7
ATOM      7  C   UNL     1       1.077   8.919  20.899  0.00  0.00    +0.000 A 
ATOM      8  C   UNL     1       1.138  10.007  20.016  0.00  0.00    +0.000 A 
ATOM      9  C   UNL     1       0.469  11.202  20.277  0.00  0.00    +0.000 A 
ATOM     10  C   UNL     1      -0.289  11.288  21.443  0.00  0.00    +0.000 A 
ATOM     11  N   UNL     1      -0.971  12.359  21.912  0.00  0.00    +0.000 NA
ATOM     12  C   UNL     1      -1.677  11.881  22.911  0.00  0.00    +0.000 A 
ATOM     13  O   UNL     1      -1.380  10.560  23.227  0.00  0.00    +0.000 OA
ATOM     14  C   UNL     1      -0.453  10.182  22.261  0.00  0.00    +0.000 A 
ATOM     15  C   UNL     1       0.225   8.963  22.035  0.00  0.00    +0.000 A 
BRANCH  12  16
ATOM     16  C   UNL     1      -2.724  12.827  23.488  0.00  0.00    +0.000 C 
ATOM     17  C   UNL     1      -3.876  12.368  24.331  0.00  0.00    +0.000 C 
ATOM     18  C   UNL     1      -4.133  12.836  22.936  0.00  0.00    +0.000 C 
ENDBRANCH  12  16
ENDBRANCH   4   7
BRANCH   1  19
ATOM     19  C   UNL     1       3.526   5.842  17.891  0.00  0.00    +0.000 C 
BRANCH  19  20
ATOM     20  C   UNL     1       4.950   6.275  17.446  0.00  0.00    +0.000 C 
BRANCH  20  21
ATOM     21  C   UNL     1       6.105   5.444  18.049  0.00  0.00    +0.000 C 
BRANCH  21  23
ATOM     22  O   UNL     1       7.616   6.176  16.290  0.00  0.00    +0.000 OA
ATOM     23  C   UNL     1       7.284   5.329  17.105  0.00  0.00    +0.000 C 
BRANCH  23  24
ATOM     24  O   UNL     1       7.971   4.167  17.243  0.00  0.00    +0.000 OA
ATOM     25  H   UNL     1       7.414   3.374  17.381  0.00  0.00    +0.000 HD
ENDBRANCH  23  24
ENDBRANCH  21  23
ENDBRANCH  20  21
ENDBRANCH  19  20
BRANCH  19  26
ATOM     26  C   UNL     1       3.275   4.307  17.819  0.00  0.00    +0.000 C 
BRANCH  26  27
ATOM     27  C   UNL     1       2.650   3.689  19.053  0.00  0.00    +0.000 A 
ATOM     28  C   UNL     1       1.258   3.689  19.215  0.00  0.00    +0.000 A 
ATOM     29  C   UNL     1       0.681   3.226  20.401  0.00  0.00    +0.000 A 
ATOM     30  C   UNL     1       1.484   2.721  21.422  0.00  0.00    +0.000 A 
ATOM     31  C   UNL     1       2.862   2.651  21.246  0.00  0.00    +0.000 A 
ATOM     32  C   UNL     1       3.439   3.129  20.068  0.00  0.00    +0.000 A 
ENDBRANCH  26  27
ENDBRANCH  19  26
ENDBRANCH   1  19
TORSDOF 9
ENDMDL
MODEL 2
REMARK VINA RESULT:      -8.5      1.637      2.277
REMARK  Name = 
REMARK  9 active torsions:
REMARK  status: ('A' for Active; 'I' for Inactive)
REMARK    1  A    between atoms: C_2  and  O_3
REMARK    2  A    between atoms: C_2  and  C_4
REMARK    3  A    between atoms: C_4  and  C_5
REMARK    4  A    between atoms: C_5  and  C_6
REMARK    5  A    between atoms: C_6  and  C_7
REMARK    6  A    between atoms: C_6  and  N_14
REMARK    7  A    between atoms: C_7  and  C_8
REMARK    8  A    between atoms: N_17  and  C_18
REMARK    9  A    between atoms: C_23  and  C_24
REMARK                            x       y       z     vdW  Elec       q    Type
REMARK                         _______ _______ _______ _____ _____    ______ ____
ROOT
ATOM      1  N   UNL     1       4.158   4.709  18.048  0.00  0.00    +0.000 N 
ATOM      2  C   UNL     1       3.087   5.586  18.193  0.00  0.00    +0.000 C 
ATOM      3  O   UNL     1       2.065   5.479  17.516  0.00  0.00    +0.000 OA
ATOM      4  N   UNL     1       3.301   6.589  19.112  0.00  0.00    +0.000 N 
ATOM      5  H   UNL     1       4.824   4.656  18.785  0.00  0.00    +0.000 HD
ATOM      6  H   UNL     1       4.272   6.864  19.194  0.00  0.00    +0.000 HD
ENDROOT
BRANCH   4   7
ATOM      7  C   UNL     1       2.353   7.641  19.323  0.00  0.00    +0.000 A 
ATOM      8  C   UNL     1       2.102   8.476  18.224  0.00  0.00    +0.000 A 
ATOM      9  C   UNL     1       1.336   9.634  18.341  0.00  0.00    +0.000 A 
ATOM     10  C   UNL     1       0.799   9.941  19.590  0.00  0.00    +0.000 A 
ATOM     11  N   UNL     1       0.074  11.030  19.936  0.00  0.00    +0.000 NA
ATOM     12  C   UNL     1      -0.366  10.756  21.143  0.00  0.00    +0.000 A 
ATOM     13  O   UNL     1       0.161   9.587  21.680  0.00  0.00    +0.000 OA
ATOM     14  C   UNL     1       0.939   9.063  20.653  0.00  0.00    +0.000 A 
ATOM     15  C   UNL     1       1.724   7.891  20.572  0.00  0.00    +0.000 A 
BRANCH  12  16
ATOM     16  C   UNL     1      -1.409  11.719  21.696  0.00  0.00    +0.000 C 
ATOM     17  C   UNL     1      -1.099  12.780  22.709  0.00  0.00    +0.000 C 
ATOM     18  C   UNL     1      -1.894  11.585  23.124  0.00  0.00    +0.000 C 
ENDBRANCH  12  16
ENDBRANCH   4   7
BRANCH   1  19
ATOM     19  C   UNL     1       4.043   3.531  17.140  0.00  0.00    +0.000 C 
BRANCH  19  20
ATOM     20  C   UNL     1       5.291   3.402  16.224  0.00  0.00    +0.000 C 
BRANCH  20  21
ATOM     21  C   UNL     1       5.393   4.462  15.104  0.00  0.00    +0.000 C 
BRANCH  21  23
ATOM     22  O   UNL     1       6.075   6.510  16.223  0.00  0.00    +0.000 OA
ATOM     23  C   UNL     1       6.338   5.589  15.466  0.00  0.00    +0.000 C 
BRANCH  23  24
ATOM     24  O   UNL     1       7.549   5.488  14.862  0.00  0.00    +0.000 OA
ATOM     25  H   UNL     1       7.595   4.830  14.138  0.00  0.00    +0.000 HD
ENDBRANCH  23  24
ENDBRANCH  21  23
ENDBRANCH  20  21
ENDBRANCH  19  20
BRANCH  19  26
ATOM     26  C   UNL     1       3.672   2.224  17.900  0.00  0.00    +0.000 C 
BRANCH  26  27
ATOM     27  C   UNL     1       2.822   2.409  19.141  0.00  0.00    +0.000 A 
ATOM     28  C   UNL     1       1.431   2.534  19.033  0.00  0.00    +0.000 A 
ATOM     29  C   UNL     1       0.654   2.820  20.158  0.00  0.00    +0.000 A 
ATOM     30  C   UNL     1       1.251   2.946  21.411  0.00  0.00    +0.000 A 
ATOM     31  C   UNL     1       2.623   2.755  21.543  0.00  0.00    +0.000 A 
ATOM     32  C   UNL     1       3.401   2.486  20.416  0.00  0.00    +0.000 A 
ENDBRANCH  26  27
ENDBRANCH  19  26
ENDBRANCH   1  19
TORSDOF 9
ENDMDL
MODEL 3
REMARK VINA RESULT:      -8.5      2.020      2.640
REMARK  Name = 
REMARK  9 active torsions:
REMARK  status: ('A' for Active; 'I' for Inactive)
REMARK    1  A    between atoms: C_2  and  O_3
REMARK    2  A    between atoms: C_2  and  C_4
REMARK    3  A    between atoms: C_4  and  C_5
REMARK    4  A    between atoms: C_5  and  C_6
REMARK    5  A    between atoms: C_6  and  C_7
REMARK    6  A    between atoms: C_6  and  N_14
REMARK    7  A    between atoms: C_7  and  C_8
REMARK    8  A    between atoms: N_17  and  C_18
REMARK    9  A    between atoms: C_23  and  C_24
REMARK                            x       y       z     vdW  Elec       q    Type
REMARK                         _______ _______ _______ _____ _____    ______ ____
ROOT
ATOM      1  N   UNL     1       3.973   4.983  17.999  0.00  0.00    +0.000 N 
ATOM      2  C   UNL     1       2.899   5.830  18.263  0.00  0.00    +0.000 C 
ATOM      3  O   UNL     1       1.828   5.722  17.668  0.00  0.00    +0.000 OA
ATOM      4  N   UNL     1       3.168   6.805  19.197  0.00  0.00    +0.000 N 
ATOM      5  H   UNL     1       4.698   4.921  18.676  0.00  0.00    +0.000 HD
ATOM      6  H   UNL     1       4.137   7.100  19.208  0.00  0.00    +0.000 HD
ENDROOT
BRANCH   4   7
ATOM      7  C   UNL     1       2.220   7.828  19.522  0.00  0.00    +0.000 A 
ATOM      8  C   UNL     1       1.686   7.786  20.818  0.00  0.00    +0.000 A 
ATOM      9  C   UNL     1       0.634   8.613  21.206  0.00  0.00    +0.000 A 
ATOM     10  C   UNL     1       0.126   9.511  20.270  0.00  0.00    +0.000 A 
ATOM     11  N   UNL     1      -0.915  10.363  20.417  0.00  0.00    +0.000 NA
ATOM     12  C   UNL     1      -0.863  11.125  19.348  0.00  0.00    +0.000 A 
ATOM     13  O   UNL     1       0.084  10.720  18.415  0.00  0.00    +0.000 OA
ATOM     14  C   UNL     1       0.723   9.646  19.026  0.00  0.00    +0.000 A 
ATOM     15  C   UNL     1       1.778   8.811  18.596  0.00  0.00    +0.000 A 
BRANCH  12  16
ATOM     16  C   UNL     1      -1.789  12.336  19.359  0.00  0.00    +0.000 C 
ATOM     17  C   UNL     1      -2.773  12.613  20.456  0.00  0.00    +0.000 C 
ATOM     18  C   UNL     1      -3.274  12.165  19.122  0.00  0.00    +0.000 C 
ENDBRANCH  12  16
ENDBRANCH   4   7
BRANCH   1  19
ATOM     19  C   UNL     1       3.806   3.835  17.062  0.00  0.00    +0.000 C 
BRANCH  19  20
ATOM     20  C   UNL     1       4.932   3.815  15.990  0.00  0.00    +0.000 C 
BRANCH  20  21
ATOM     21  C   UNL     1       5.665   5.160  15.787  0.00  0.00    +0.000 C 
BRANCH  21  23
ATOM     22  O   UNL     1       7.869   4.500  16.574  0.00  0.00    +0.000 OA
ATOM     23  C   UNL     1       7.168   4.987  15.701  0.00  0.00    +0.000 C 
BRANCH  23  24
ATOM     24  O   UNL     1       7.693   5.429  14.531  0.00  0.00    +0.000 OA
ATOM     25  H   UNL     1       7.421   4.919  13.740  0.00  0.00    +0.000 HD
ENDBRANCH  23  24
ENDBRANCH  21  23
ENDBRANCH  20  21
ENDBRANCH  19  20
BRANCH  19  26
ATOM     26  C   UNL     1       3.610   2.481  17.804  0.00  0.00    +0.000 C 
BRANCH  26  27
ATOM     27  C   UNL     1       2.792   2.547  19.078  0.00  0.00    +0.000 A 
ATOM     28  C   UNL     1       1.393   2.606  19.017  0.00  0.00    +0.000 A 
ATOM     29  C   UNL     1       0.639   2.784  20.180  0.00  0.00    +0.000 A 
ATOM     30  C   UNL     1       1.269   2.865  21.420  0.00  0.00    +0.000 A 
ATOM     31  C   UNL     1       2.652   2.738  21.501  0.00  0.00    +0.000 A 
ATOM     32  C   UNL     1       3.406   2.577  20.338  0.00  0.00    +0.000 A 
ENDBRANCH  26  27
ENDBRANCH  19  26
ENDBRANCH   1  19
TORSDOF 9
ENDMDL
MODEL 4
REMARK VINA RESULT:      -8.3      1.441      1.895
REMARK  Name = 
REMARK  9 active torsions:
REMARK  status: ('A' for Active; 'I' for Inactive)
REMARK    1  A    between atoms: C_2  and  O_3
REMARK    2  A    between atoms: C_2  and  C_4
REMARK    3  A    between atoms: C_4  and  C_5
REMARK    4  A    between atoms: C_5  and  C_6
REMARK    5  A    between atoms: C_6  and  C_7
REMARK    6  A    between atoms: C_6  and  N_14
REMARK    7  A    between atoms: C_7  and  C_8
REMARK    8  A    between atoms: N_17  and  C_18
REMARK    9  A    between atoms: C_23  and  C_24
REMARK                            x       y       z     vdW  Elec       q    Type
REMARK                         _______ _______ _______ _____ _____    ______ ____
ROOT
ATOM      1  N   UNL     1       4.029   5.653  17.578  0.00  0.00    +0.000 N 
ATOM      2  C   UNL     1       2.878   6.310  18.006  0.00  0.00    +0.000 C 
ATOM      3  O   UNL     1       1.754   5.871  17.763  0.00  0.00    +0.000 OA
ATOM      4  N   UNL     1       3.117   7.493  18.668  0.00  0.00    +0.000 N 
ATOM      5  H   UNL     1       4.889   5.878  18.024  0.00  0.00    +0.000 HD
ATOM      6  H   UNL     1       3.957   7.968  18.360  0.00  0.00    +0.000 HD
ENDROOT
BRANCH   4   7
ATOM      7  C   UNL     1       2.055   8.354  19.092  0.00  0.00    +0.000 A 
ATOM      8  C   UNL     1       1.438   9.114  18.088  0.00  0.00    +0.000 A 
ATOM      9  C   UNL     1       0.512  10.113  18.387  0.00  0.00    +0.000 A 
ATOM     10  C   UNL     1       0.192  10.331  19.726  0.00  0.00    +0.000 A 
ATOM     11  N   UNL     1      -0.634  11.271  20.238  0.00  0.00    +0.000 NA
ATOM     12  C   UNL     1      -0.762  10.936  21.502  0.00  0.00    +0.000 A 
ATOM     13  O   UNL     1       0.068   9.891  21.892  0.00  0.00    +0.000 OA
ATOM     14  C   UNL     1       0.704   9.507  20.716  0.00  0.00    +0.000 A 
ATOM     15  C   UNL     1       1.657   8.500  20.449  0.00  0.00    +0.000 A 
BRANCH  12  16
ATOM     16  C   UNL     1      -1.831  11.697  22.279  0.00  0.00    +0.000 C 
ATOM     17  C   UNL     1      -2.207  13.119  21.989  0.00  0.00    +0.000 C 
ATOM     18  C   UNL     1      -1.440  12.805  23.232  0.00  0.00    +0.000 C 
ENDBRANCH  12  16
ENDBRANCH   4   7
BRANCH   1  19
ATOM     19  C   UNL     1       3.927   4.324  16.910  0.00  0.00    +0.000 C 
BRANCH  19  20
ATOM     20  C   UNL     1       4.763   4.287  15.600  0.00  0.00    +0.000 C 
BRANCH  20  21
ATOM     21  C   UNL     1       6.169   3.661  15.740  0.00  0.00    +0.000 C 
BRANCH  21  23
ATOM     22  O   UNL     1       7.398   5.724  15.352  0.00  0.00    +0.000 OA
ATOM     23  C   UNL     1       7.237   4.704  16.004  0.00  0.00    +0.000 C 
BRANCH  23  24
ATOM     24  O   UNL     1       8.027   4.405  17.065  0.00  0.00    +0.000 OA
ATOM     25  H   UNL     1       7.730   4.782  17.918  0.00  0.00    +0.000 HD
ENDBRANCH  23  24
ENDBRANCH  21  23
ENDBRANCH  20  21
ENDBRANCH  19  20
BRANCH  19  26
ATOM     26  C   UNL     1       4.214   3.142  17.881  0.00  0.00    +0.000 C 
BRANCH  26  27
ATOM     27  C   UNL     1       3.188   2.934  18.977  0.00  0.00    +0.000 A 
ATOM     28  C   UNL     1       1.834   2.774  18.656  0.00  0.00    +0.000 A 
ATOM     29  C   UNL     1       0.869   2.699  19.664  0.00  0.00    +0.000 A 
ATOM     30  C   UNL     1       1.248   2.742  21.004  0.00  0.00    +0.000 A 
ATOM     31  C   UNL     1       2.596   2.830  21.337  0.00  0.00    +0.000 A 
ATOM     32  C   UNL     1       3.558   2.923  20.330  0.00  0.00    +0.000 A 
ENDBRANCH  26  27
ENDBRANCH  19  26
ENDBRANCH   1  19
TORSDOF 9
ENDMDL
MODEL 5
REMARK VINA RESULT:      -8.2      6.608      8.695
REMARK  Name = 
REMARK  9 active torsions:
REMARK  status: ('A' for Active; 'I' for Inactive)
REMARK    1  A    between atoms: C_2  and  O_3
REMARK    2  A    between atoms: C_2  and  C_4
REMARK    3  A    between atoms: C_4  and  C_5
REMARK    4  A    between atoms: C_5  and  C_6
REMARK    5  A    between atoms: C_6  and  C_7
REMARK    6  A    between atoms: C_6  and  N_14
REMARK    7  A    between atoms: C_7  and  C_8
REMARK    8  A    between atoms: N_17  and  C_18
REMARK    9  A    between atoms: C_23  and  C_24
REMARK                            x       y       z     vdW  Elec       q    Type
REMARK                         _______ _______ _______ _____ _____    ______ ____
ROOT
ATOM      1  N   UNL     1       7.719   7.148  18.072  0.00  0.00    +0.000 N 
ATOM      2  C   UNL     1       8.020   8.508  18.056  0.00  0.00    +0.000 C 
ATOM      3  O   UNL     1       7.552   9.265  17.207  0.00  0.00    +0.000 OA
ATOM      4  N   UNL     1       8.910   8.898  19.031  0.00  0.00    +0.000 N 
ATOM      5  H   UNL     1       7.883   6.642  18.911  0.00  0.00    +0.000 HD
ATOM      6  H   UNL     1       9.571   8.176  19.291  0.00  0.00    +0.000 HD
ENDROOT
BRANCH   4   7
ATOM      7  C   UNL     1       9.414  10.236  19.107  0.00  0.00    +0.000 A 
ATOM      8  C   UNL     1       9.334  10.856  20.363  0.00  0.00    +0.000 A 
ATOM      9  C   UNL     1       9.630  12.208  20.535  0.00  0.00    +0.000 A 
ATOM     10  C   UNL     1      10.033  12.938  19.419  0.00  0.00    +0.000 A 
ATOM     11  N   UNL     1      10.317  14.259  19.350  0.00  0.00    +0.000 NA
ATOM     12  C   UNL     1      10.839  14.416  18.155  0.00  0.00    +0.000 A 
ATOM     13  O   UNL     1      10.777  13.277  17.361  0.00  0.00    +0.000 OA
ATOM     14  C   UNL     1      10.231  12.310  18.199  0.00  0.00    +0.000 A 
ATOM     15  C   UNL     1       9.923  10.948  17.987  0.00  0.00    +0.000 A 
BRANCH  12  16
ATOM     16  C   UNL     1      11.468  15.778  17.887  0.00  0.00    +0.000 C 
ATOM     17  C   UNL     1      10.921  17.063  18.433  0.00  0.00    +0.000 C 
ATOM     18  C   UNL     1      10.782  16.772  16.975  0.00  0.00    +0.000 C 
ENDBRANCH  12  16
ENDBRANCH   4   7
BRANCH   1  19
ATOM     19  C   UNL     1       6.714   6.594  17.119  0.00  0.00    +0.000 C 
BRANCH  19  20
ATOM     20  C   UNL     1       7.147   5.197  16.594  0.00  0.00    +0.000 C 
BRANCH  20  21
ATOM     21  C   UNL     1       7.116   5.038  15.056  0.00  0.00    +0.000 C 
BRANCH  21  23
ATOM     22  O   UNL     1       5.862   3.666  13.488  0.00  0.00    +0.000 OA
ATOM     23  C   UNL     1       6.286   3.849  14.619  0.00  0.00    +0.000 C 
BRANCH  23  24
ATOM     24  O   UNL     1       6.044   2.967  15.621  0.00  0.00    +0.000 OA
ATOM     25  H   UNL     1       6.756   2.898  16.289  0.00  0.00    +0.000 HD
ENDBRANCH  23  24
ENDBRANCH  21  23
ENDBRANCH  20  21
ENDBRANCH  19  20
BRANCH  19  26
ATOM     26  C   UNL     1       5.264   6.640  17.684  0.00  0.00    +0.000 C 
BRANCH  26  27
ATOM     27  C   UNL     1       4.652   5.295  18.022  0.00  0.00    +0.000 A 
ATOM     28  C   UNL     1       5.121   4.561  19.118  0.00  0.00    +0.000 A 
ATOM     29  C   UNL     1       4.643   3.272  19.366  0.00  0.00    +0.000 A 
ATOM     30  C   UNL     1       3.662   2.717  18.546  0.00  0.00    +0.000 A 
ATOM     31  C   UNL     1       3.138   3.462  17.496  0.00  0.00    +0.000 A 
ATOM     32  C   UNL     1       3.628   4.743  17.238  0.00  0.00    +0.000 A 
ENDBRANCH  26  27
ENDBRANCH  19  26
ENDBRANCH   1  19
TORSDOF 9
ENDMDL
MODEL 6
REMARK VINA RESULT:      -8.2      6.685      8.380
REMARK  Name = 
REMARK  9 active torsions:
REMARK  status: ('A' for Active; 'I' for Inactive)
REMARK    1  A    between atoms: C_2  and  O_3
REMARK    2  A    between atoms: C_2  and  C_4
REMARK    3  A    between atoms: C_4  and  C_5
REMARK    4  A    between atoms: C_5  and  C_6
REMARK    5  A    between atoms: C_6  and  C_7
REMARK    6  A    between atoms: C_6  and  N_14
REMARK    7  A    between atoms: C_7  and  C_8
REMARK    8  A    between atoms: N_17  and  C_18
REMARK    9  A    between atoms: C_23  and  C_24
REMARK                            x       y       z     vdW  Elec       q    Type
REMARK                         _______ _______ _______ _____ _____    ______ ____
ROOT
ATOM      1  N   UNL     1       7.672   6.811  17.939  0.00  0.00    +0.000 N 
ATOM      2  C   UNL     1       7.888   8.186  17.980  0.00  0.00    +0.000 C 
ATOM      3  O   UNL     1       7.348   8.951  17.181  0.00  0.00    +0.000 OA
ATOM      4  N   UNL     1       8.780   8.587  18.948  0.00  0.00    +0.000 N 
ATOM      5  H   UNL     1       7.892   6.278  18.749  0.00  0.00    +0.000 HD
ATOM      6  H   UNL     1       9.492   7.897  19.156  0.00  0.00    +0.000 HD
ENDROOT
BRANCH   4   7
ATOM      7  C   UNL     1       9.203   9.950  19.075  0.00  0.00    +0.000 A 
ATOM      8  C   UNL     1       9.258  10.461  20.380  0.00  0.00    +0.000 A 
ATOM      9  C   UNL     1       9.487  11.813  20.630  0.00  0.00    +0.000 A 
ATOM     10  C   UNL     1       9.682  12.658  19.539  0.00  0.00    +0.000 A 
ATOM     11  N   UNL     1       9.868  13.998  19.550  0.00  0.00    +0.000 NA
ATOM     12  C   UNL     1      10.206  14.288  18.315  0.00  0.00    +0.000 A 
ATOM     13  O   UNL     1      10.108  13.214  17.439  0.00  0.00    +0.000 OA
ATOM     14  C   UNL     1       9.749  12.145  18.253  0.00  0.00    +0.000 A 
ATOM     15  C   UNL     1       9.503  10.784  17.964  0.00  0.00    +0.000 A 
BRANCH  12  16
ATOM     16  C   UNL     1      10.703  15.711  18.087  0.00  0.00    +0.000 C 
ATOM     17  C   UNL     1       9.868  16.786  17.457  0.00  0.00    +0.000 C 
ATOM     18  C   UNL     1      11.007  16.200  16.688  0.00  0.00    +0.000 C 
ENDBRANCH  12  16
ENDBRANCH   4   7
BRANCH   1  19
ATOM     19  C   UNL     1       6.676   6.239  16.988  0.00  0.00    +0.000 C 
BRANCH  19  20
ATOM     20  C   UNL     1       7.117   4.835  16.487  0.00  0.00    +0.000 C 
BRANCH  20  21
ATOM     21  C   UNL     1       6.414   4.349  15.200  0.00  0.00    +0.000 C 
BRANCH  21  23
ATOM     22  O   UNL     1       8.027   5.627  13.904  0.00  0.00    +0.000 OA
ATOM     23  C   UNL     1       7.150   4.778  13.947  0.00  0.00    +0.000 C 
BRANCH  23  24
ATOM     24  O   UNL     1       6.746   4.115  12.834  0.00  0.00    +0.000 OA
ATOM     25  H   UNL     1       7.029   3.180  12.787  0.00  0.00    +0.000 HD
ENDBRANCH  23  24
ENDBRANCH  21  23
ENDBRANCH  20  21
ENDBRANCH  19  20
BRANCH  19  26
ATOM     26  C   UNL     1       5.222   6.289  17.542  0.00  0.00    +0.000 C 
BRANCH  26  27
ATOM     27  C   UNL     1       4.642   4.957  17.973  0.00  0.00    +0.000 A 
ATOM     28  C   UNL     1       3.600   4.371  17.242  0.00  0.00    +0.000 A 
ATOM     29  C   UNL     1       2.983   3.203  17.698  0.00  0.00    +0.000 A 
ATOM     30  C   UNL     1       3.424   2.584  18.866  0.00  0.00    +0.000 A 
ATOM     31  C   UNL     1       4.504   3.117  19.563  0.00  0.00    +0.000 A 
ATOM     32  C   UNL     1       5.109   4.293  19.117  0.00  0.00    +0.000 A 
ENDBRANCH  26  27
ENDBRANCH  19  26
ENDBRANCH   1  19
TORSDOF 9
ENDMDL
MODEL 7
REMARK VINA RESULT:      -8.1      3.105      5.051
REMARK  Name = 
REMARK  9 active torsions:
REMARK  status: ('A' for Active; 'I' for Inactive)
REMARK    1  A    between atoms: C_2  and  O_3
REMARK    2  A    between atoms: C_2  and  C_4
REMARK    3  A    between atoms: C_4  and  C_5
REMARK    4  A    between atoms: C_5  and  C_6
REMARK    5  A    between atoms: C_6  and  C_7
REMARK    6  A    between atoms: C_6  and  N_14
REMARK    7  A    between atoms: C_7  and  C_8
REMARK    8  A    between atoms: N_17  and  C_18
REMARK    9  A    between atoms: C_23  and  C_24
REMARK                            x       y       z     vdW  Elec       q    Type
REMARK                         _______ _______ _______ _____ _____    ______ ____
ROOT
ATOM      1  N   UNL     1       4.698   5.056  17.912  0.00  0.00    +0.000 N 
ATOM      2  C   UNL     1       4.024   6.266  18.066  0.00  0.00    +0.000 C 
ATOM      3  O   UNL     1       4.351   7.273  17.441  0.00  0.00    +0.000 OA
ATOM      4  N   UNL     1       3.014   6.232  19.001  0.00  0.00    +0.000 N 
ATOM      5  H   UNL     1       4.241   4.225  18.209  0.00  0.00    +0.000 HD
ATOM      6  H   UNL     1       3.181   5.577  19.756  0.00  0.00    +0.000 HD
ENDROOT
BRANCH   4   7
ATOM      7  C   UNL     1       2.278   7.405  19.368  0.00  0.00    +0.000 A 
ATOM      8  C   UNL     1       1.790   7.441  20.682  0.00  0.00    +0.000 A 
ATOM      9  C   UNL     1       0.918   8.441  21.113  0.00  0.00    +0.000 A 
ATOM     10  C   UNL     1       0.552   9.429  20.203  0.00  0.00    +0.000 A 
ATOM     11  N   UNL     1      -0.311  10.453  20.393  0.00  0.00    +0.000 NA
ATOM     12  C   UNL     1      -0.157  11.209  19.330  0.00  0.00    +0.000 A 
ATOM     13  O   UNL     1       0.669  10.652  18.360  0.00  0.00    +0.000 OA
ATOM     14  C   UNL     1       1.122   9.471  18.940  0.00  0.00    +0.000 A 
ATOM     15  C   UNL     1       1.993   8.465  18.466  0.00  0.00    +0.000 A 
BRANCH  12  16
ATOM     16  C   UNL     1      -0.847  12.567  19.383  0.00  0.00    +0.000 C 
ATOM     17  C   UNL     1      -0.430  13.738  18.544  0.00  0.00    +0.000 C 
ATOM     18  C   UNL     1      -0.151  13.754  20.012  0.00  0.00    +0.000 C 
ENDBRANCH  12  16
ENDBRANCH   4   7
BRANCH   1  19
ATOM     19  C   UNL     1       5.769   4.924  16.883  0.00  0.00    +0.000 C 
BRANCH  19  20
ATOM     20  C   UNL     1       7.155   4.679  17.542  0.00  0.00    +0.000 C 
BRANCH  20  21
ATOM     21  C   UNL     1       7.540   5.686  18.649  0.00  0.00    +0.000 C 
BRANCH  21  23
ATOM     22  O   UNL     1       7.703   7.423  16.955  0.00  0.00    +0.000 OA
ATOM     23  C   UNL     1       7.953   7.029  18.084  0.00  0.00    +0.000 C 
BRANCH  23  24
ATOM     24  O   UNL     1       8.648   7.791  18.966  0.00  0.00    +0.000 OA
ATOM     25  H   UNL     1       8.097   8.269  19.619  0.00  0.00    +0.000 HD
ENDBRANCH  23  24
ENDBRANCH  21  23
ENDBRANCH  20  21
ENDBRANCH  19  20
BRANCH  19  26
ATOM     26  C   UNL     1       5.404   3.900  15.768  0.00  0.00    +0.000 C 
BRANCH  26  27
ATOM     27  C   UNL     1       6.057   4.141  14.422  0.00  0.00    +0.000 A 
ATOM     28  C   UNL     1       5.633   3.428  13.293  0.00  0.00    +0.000 A 
ATOM     29  C   UNL     1       6.306   3.559  12.076  0.00  0.00    +0.000 A 
ATOM     30  C   UNL     1       7.384   4.435  11.961  0.00  0.00    +0.000 A 
ATOM     31  C   UNL     1       7.771   5.201  13.055  0.00  0.00    +0.000 A 
ATOM     32  C   UNL     1       7.109   5.057  14.275  0.00  0.00    +0.000 A 
ENDBRANCH  26  27
ENDBRANCH  19  26
ENDBRANCH   1  19
TORSDOF 9
ENDMDL
MODEL 8
REMARK VINA RESULT:      -8.1      1.836      3.613
REMARK  Name = 
REMARK  9 active torsions:
REMARK  status: ('A' for Active; 'I' for Inactive)
REMARK    1  A    between atoms: C_2  and  O_3
REMARK    2  A    between atoms: C_2  and  C_4
REMARK    3  A    between atoms: C_4  and  C_5
REMARK    4  A    between atoms: C_5  and  C_6
REMARK    5  A    between atoms: C_6  and  C_7
REMARK    6  A    between atoms: C_6  and  N_14
REMARK    7  A    between atoms: C_7  and  C_8
REMARK    8  A    between atoms: N_17  and  C_18
REMARK    9  A    between atoms: C_23  and  C_24
REMARK                            x       y       z     vdW  Elec       q    Type
REMARK                         _______ _______ _______ _____ _____    ______ ____
ROOT
ATOM      1  N   UNL     1       2.959   6.316  20.067  0.00  0.00    +0.000 N 
ATOM      2  C   UNL     1       2.055   7.376  20.061  0.00  0.00    +0.000 C 
ATOM      3  O   UNL     1       1.595   7.829  19.014  0.00  0.00    +0.000 OA
ATOM      4  N   UNL     1       1.775   7.882  21.310  0.00  0.00    +0.000 N 
ATOM      5  H   UNL     1       3.082   5.810  20.914  0.00  0.00    +0.000 HD
ATOM      6  H   UNL     1       2.543   7.798  21.965  0.00  0.00    +0.000 HD
ENDROOT
BRANCH   4   7
ATOM      7  C   UNL     1       0.947   9.036  21.493  0.00  0.00    +0.000 A 
ATOM      8  C   UNL     1       1.251  10.148  20.694  0.00  0.00    +0.000 A 
ATOM      9  C   UNL     1       0.637  11.384  20.891  0.00  0.00    +0.000 A 
ATOM     10  C   UNL     1      -0.314  11.490  21.903  0.00  0.00    +0.000 A 
ATOM     11  N   UNL     1      -0.989  12.595  22.296  0.00  0.00    +0.000 NA
ATOM     12  C   UNL     1      -1.901  12.141  23.124  0.00  0.00    +0.000 A 
ATOM     13  O   UNL     1      -1.768  10.789  23.419  0.00  0.00    +0.000 OA
ATOM     14  C   UNL     1      -0.710  10.371  22.619  0.00  0.00    +0.000 A 
ATOM     15  C   UNL     1      -0.095   9.109  22.457  0.00  0.00    +0.000 A 
BRANCH  12  16
ATOM     16  C   UNL     1      -2.963  13.149  23.549  0.00  0.00    +0.000 C 
ATOM     17  C   UNL     1      -4.116  12.805  24.444  0.00  0.00    +0.000 C 
ATOM     18  C   UNL     1      -4.367  13.060  22.993  0.00  0.00    +0.000 C 
ENDBRANCH  12  16
ENDBRANCH   4   7
BRANCH   1  19
ATOM     19  C   UNL     1       3.302   5.620  18.793  0.00  0.00    +0.000 C 
BRANCH  19  20
ATOM     20  C   UNL     1       2.063   4.898  18.194  0.00  0.00    +0.000 C 
BRANCH  20  21
ATOM     21  C   UNL     1       2.386   3.692  17.284  0.00  0.00    +0.000 C 
BRANCH  21  23
ATOM     22  O   UNL     1       2.420   1.858  18.881  0.00  0.00    +0.000 OA
ATOM     23  C   UNL     1       3.003   2.542  18.053  0.00  0.00    +0.000 C 
BRANCH  23  24
ATOM     24  O   UNL     1       4.303   2.320  17.736  0.00  0.00    +0.000 OA
ATOM     25  H   UNL     1       4.682   1.495  18.104  0.00  0.00    +0.000 HD
ENDBRANCH  23  24
ENDBRANCH  21  23
ENDBRANCH  20  21
ENDBRANCH  19  20
BRANCH  19  26
ATOM     26  C   UNL     1       4.047   6.546  17.787  0.00  0.00    +0.000 C 
BRANCH  26  27
ATOM     27  C   UNL     1       5.181   5.897  17.020  0.00  0.00    +0.000 A 
ATOM     28  C   UNL     1       5.177   5.895  15.619  0.00  0.00    +0.000 A 
ATOM     29  C   UNL     1       6.156   5.200  14.906  0.00  0.00    +0.000 A 
ATOM     30  C   UNL     1       7.175   4.531  15.582  0.00  0.00    +0.000 A 
ATOM     31  C   UNL     1       7.231   4.583  16.971  0.00  0.00    +0.000 A 
ATOM     32  C   UNL     1       6.242   5.264  17.683  0.00  0.00    +0.000 A 
ENDBRANCH  26  27
ENDBRANCH  19  26
ENDBRANCH   1  19
TORSDOF 9
ENDMDL
MODEL 9
REMARK VINA RESULT:      -8.1      0.980      1.268
REMARK  Name = 
REMARK  9 active torsions:
REMARK  status: ('A' for Active; 'I' for Inactive)
REMARK    1  A    between atoms: C_2  and  O_3
REMARK    2  A    between atoms: C_2  and  C_4
REMARK    3  A    between atoms: C_4  and  C_5
REMARK    4  A    between atoms: C_5  and  C_6
REMARK    5  A    between atoms: C_6  and  C_7
REMARK    6  A    between atoms: C_6  and  N_14
REMARK    7  A    between atoms: C_7  and  C_8
REMARK    8  A    between atoms: N_17  and  C_18
REMARK    9  A    between atoms: C_23  and  C_24
REMARK                            x       y       z     vdW  Elec       q    Type
REMARK                         _______ _______ _______ _____ _____    ______ ____
ROOT
ATOM      1  N   UNL     1       3.331   6.403  18.982  0.00  0.00    +0.000 N 
ATOM      2  C   UNL     1       2.379   7.415  19.074  0.00  0.00    +0.000 C 
ATOM      3  O   UNL     1       1.923   7.968  18.074  0.00  0.00    +0.000 OA
ATOM      4  N   UNL     1       2.045   7.758  20.364  0.00  0.00    +0.000 N 
ATOM      5  H   UNL     1       3.458   5.807  19.768  0.00  0.00    +0.000 HD
ATOM      6  H   UNL     1       2.800   7.632  21.027  0.00  0.00    +0.000 HD
ENDROOT
BRANCH   4   7
ATOM      7  C   UNL     1       1.159   8.845  20.656  0.00  0.00    +0.000 A 
ATOM      8  C   UNL     1       0.655   9.545  19.550  0.00  0.00    +0.000 A 
ATOM      9  C   UNL     1      -0.077  10.723  19.698  0.00  0.00    +0.000 A 
ATOM     10  C   UNL     1      -0.318  11.188  20.989  0.00  0.00    +0.000 A 
ATOM     11  N   UNL     1      -0.955  12.323  21.356  0.00  0.00    +0.000 NA
ATOM     12  C   UNL     1      -1.105  12.205  22.656  0.00  0.00    +0.000 A 
ATOM     13  O   UNL     1      -0.457  11.100  23.197  0.00  0.00    +0.000 OA
ATOM     14  C   UNL     1       0.071  10.442  22.091  0.00  0.00    +0.000 A 
ATOM     15  C   UNL     1       0.829   9.256  21.976  0.00  0.00    +0.000 A 
BRANCH  12  16
ATOM     16  C   UNL     1      -2.004  13.246  23.312  0.00  0.00    +0.000 C 
ATOM     17  C   UNL     1      -2.146  14.650  22.806  0.00  0.00    +0.000 C 
ATOM     18  C   UNL     1      -1.402  14.403  24.078  0.00  0.00    +0.000 C 
ENDBRANCH  12  16
ENDBRANCH   4   7
BRANCH   1  19
ATOM     19  C   UNL     1       3.738   5.878  17.647  0.00  0.00    +0.000 C 
BRANCH  19  20
ATOM     20  C   UNL     1       5.183   6.320  17.284  0.00  0.00    +0.000 C 
BRANCH  20  21
ATOM     21  C   UNL     1       6.169   5.164  17.001  0.00  0.00    +0.000 C 
BRANCH  21  23
ATOM     22  O   UNL     1       8.145   4.336  18.152  0.00  0.00    +0.000 OA
ATOM     23  C   UNL     1       7.035   4.843  18.202  0.00  0.00    +0.000 C 
BRANCH  23  24
ATOM     24  O   UNL     1       6.459   5.179  19.384  0.00  0.00    +0.000 OA
ATOM     25  H   UNL     1       6.904   4.816  20.177  0.00  0.00    +0.000 HD
ENDBRANCH  23  24
ENDBRANCH  21  23
ENDBRANCH  20  21
ENDBRANCH  19  20
BRANCH  19  26
ATOM     26  C   UNL     1       3.486   4.348  17.504  0.00  0.00    +0.000 C 
BRANCH  26  27
ATOM     27  C   UNL     1       2.813   3.684  18.689  0.00  0.00    +0.000 A 
ATOM     28  C   UNL     1       1.419   3.556  18.729  0.00  0.00    +0.000 A 
ATOM     29  C   UNL     1       0.784   3.051  19.867  0.00  0.00    +0.000 A 
ATOM     30  C   UNL     1       1.536   2.631  20.962  0.00  0.00    +0.000 A 
ATOM     31  C   UNL     1       2.925   2.687  20.908  0.00  0.00    +0.000 A 
ATOM     32  C   UNL     1       3.558   3.208  19.778  0.00  0.00    +0.000 A 
ENDBRANCH  26  27
ENDBRANCH  19  26
ENDBRANCH   1  19
TORSDOF 9
ENDMDL
