MODEL 1
REMARK VINA RESULT:      -8.8      0.000      0.000
REMARK  Name = 
REMARK  6 active torsions:
REMARK  status: ('A' for Active; 'I' for Inactive)
REMARK    1  A    between atoms: C_1  and  N_2
REMARK    2  A    between atoms: N_2  and  C_3
REMARK    3  A    between atoms: C_7  and  N_8
REMARK    4  A    between atoms: C_13  and  C_14
REMARK    5  A    between atoms: N_18  and  C_19
REMARK    6  A    between atoms: C_21  and  C_22
REMARK                            x       y       z     vdW  Elec       q    Type
REMARK                         _______ _______ _______ _____ _____    ______ ____
ROOT
ATOM      1  N   UNL     1       3.197   3.819  18.677  0.00  0.00    +0.000 N 
ATOM      2  C   UNL     1       4.556   3.921  19.269  0.00  0.00    +0.000 C 
ATOM      3  C   UNL     1       5.403   4.175  18.056  0.00  0.00    +0.000 A 
ATOM      4  C   UNL     1       4.740   3.622  16.959  0.00  0.00    +0.000 A 
ATOM      5  C   UNL     1       5.164   3.780  15.656  0.00  0.00    +0.000 A 
ATOM      6  C   UNL     1       6.328   4.515  15.428  0.00  0.00    +0.000 A 
ATOM      7  C   UNL     1       6.983   5.116  16.533  0.00  0.00    +0.000 A 
ATOM      8  C   UNL     1       6.533   4.962  17.866  0.00  0.00    +0.000 A 
ATOM      9  C   UNL     1       3.378   3.247  17.393  0.00  0.00    +0.000 C 
ATOM     10  O   UNL     1       2.553   2.727  16.661  0.00  0.00    +0.000 OA
ENDROOT
BRANCH   1  15
ATOM     11  C   UNL     1       2.176   7.015  20.185  0.00  0.00    +0.000 A 
ATOM     12  C   UNL     1       2.616   7.854  19.154  0.00  0.00    +0.000 A 
ATOM     13  C   UNL     1       2.872   7.364  17.875  0.00  0.00    +0.000 A 
ATOM     14  C   UNL     1       2.765   6.006  17.624  0.00  0.00    +0.000 A 
ATOM     15  C   UNL     1       2.553   5.126  18.695  0.00  0.00    +0.000 A 
ATOM     16  C   UNL     1       2.125   5.639  19.927  0.00  0.00    +0.000 A 
BRANCH  11  18
ATOM     17  C   UNL     1       0.795   8.603  21.476  0.00  0.00    +0.000 C 
ATOM     18  N   UNL     1       1.725   7.493  21.408  0.00  0.00    +0.000 N 
ATOM     19  H   UNL     1       2.377   7.417  22.182  0.00  0.00    +0.000 HD
ENDBRANCH  11  18
ENDBRANCH   1  15
BRANCH   6  20
ATOM     20  C   UNL     1       6.863   4.750  14.082  0.00  0.00    +0.000 A 
ATOM     21  N   UNL     1       7.874   5.558  13.803  0.00  0.00    +0.000 NA
ATOM     22  N   UNL     1       8.160   5.467  12.463  0.00  0.00    +0.000 NA
ATOM     23  C   UNL     1       7.327   4.602  11.942  0.00  0.00    +0.000 A 
ATOM     24  N   UNL     1       6.485   4.138  12.909  0.00  0.00    +0.000 N 
ATOM     25  C   UNL     1       5.450   3.162  12.696  0.00  0.00    +0.000 C 
ENDBRANCH   6  20
BRANCH   8  26
ATOM     26  C   UNL     1       7.223   5.726  18.968  0.00  0.00    +0.000 C 
ATOM     27  F   UNL     1       8.384   5.155  19.391  0.00  0.00    +0.000 F 
ATOM     28  F   UNL     1       7.560   6.986  18.580  0.00  0.00    +0.000 F 
ATOM     29  F   UNL     1       6.446   5.864  20.081  0.00  0.00    +0.000 F 
ENDBRANCH   8  26
TORSDOF 4
ENDMDL
MODEL 2
REMARK VINA RESULT:      -8.6      2.824      6.363
REMARK  Name = 
REMARK  6 active torsions:
REMARK  status: ('A' for Active; 'I' for Inactive)
REMARK    1  A    between atoms: C_1  and  N_2
REMARK    2  A    between atoms: N_2  and  C_3
REMARK    3  A    between atoms: C_7  and  N_8
REMARK    4  A    between atoms: C_13  and  C_14
REMARK    5  A    between atoms: N_18  and  C_19
REMARK    6  A    between atoms: C_21  and  C_22
REMARK                            x       y       z     vdW  Elec       q    Type
REMARK                         _______ _______ _______ _____ _____    ______ ____
ROOT
ATOM      1  N   UNL     1       6.015   5.380  15.785  0.00  0.00    +0.000 N 
ATOM      2  C   UNL     1       4.903   6.365  15.814  0.00  0.00    +0.000 C 
ATOM      3  C   UNL     1       4.058   5.844  16.940  0.00  0.00    +0.000 A 
ATOM      4  C   UNL     1       4.289   4.471  17.037  0.00  0.00    +0.000 A 
ATOM      5  C   UNL     1       3.780   3.683  18.048  0.00  0.00    +0.000 A 
ATOM      6  C   UNL     1       2.974   4.291  19.012  0.00  0.00    +0.000 A 
ATOM      7  C   UNL     1       2.770   5.693  18.944  0.00  0.00    +0.000 A 
ATOM      8  C   UNL     1       3.309   6.497  17.913  0.00  0.00    +0.000 A 
ATOM      9  C   UNL     1       5.445   4.143  16.175  0.00  0.00    +0.000 C 
ATOM     10  O   UNL     1       5.888   3.015  16.038  0.00  0.00    +0.000 OA
ENDROOT
BRANCH   1  15
ATOM     11  C   UNL     1       7.826   7.837  17.838  0.00  0.00    +0.000 A 
ATOM     12  C   UNL     1       8.067   7.013  18.944  0.00  0.00    +0.000 A 
ATOM     13  C   UNL     1       7.983   5.625  18.850  0.00  0.00    +0.000 A 
ATOM     14  C   UNL     1       7.579   5.039  17.661  0.00  0.00    +0.000 A 
ATOM     15  C   UNL     1       7.113   5.853  16.619  0.00  0.00    +0.000 A 
ATOM     16  C   UNL     1       7.369   7.231  16.661  0.00  0.00    +0.000 A 
BRANCH  11  18
ATOM     17  C   UNL     1       8.952   9.789  18.846  0.00  0.00    +0.000 C 
ATOM     18  N   UNL     1       8.091   9.201  17.840  0.00  0.00    +0.000 N 
ATOM     19  H   UNL     1       7.346   9.797  17.494  0.00  0.00    +0.000 HD
ENDBRANCH  11  18
ENDBRANCH   1  15
BRANCH   6  20
ATOM     20  C   UNL     1       2.386   3.549  20.133  0.00  0.00    +0.000 A 
ATOM     21  N   UNL     1       2.737   3.697  21.401  0.00  0.00    +0.000 NA
ATOM     22  N   UNL     1       1.924   2.912  22.182  0.00  0.00    +0.000 NA
ATOM     23  C   UNL     1       1.085   2.301  21.384  0.00  0.00    +0.000 A 
ATOM     24  N   UNL     1       1.344   2.652  20.093  0.00  0.00    +0.000 N 
ATOM     25  C   UNL     1       0.606   2.182  18.951  0.00  0.00    +0.000 C 
ENDBRANCH   6  20
BRANCH   8  26
ATOM     26  C   UNL     1       3.136   7.994  17.980  0.00  0.00    +0.000 C 
ATOM     27  F   UNL     1       2.356   8.503  16.987  0.00  0.00    +0.000 F 
ATOM     28  F   UNL     1       2.548   8.386  19.142  0.00  0.00    +0.000 F 
ATOM     29  F   UNL     1       4.322   8.665  17.906  0.00  0.00    +0.000 F 
ENDBRANCH   8  26
TORSDOF 4
ENDMDL
MODEL 3
REMARK VINA RESULT:      -8.3      1.148      1.704
REMARK  Name = 
REMARK  6 active torsions:
REMARK  status: ('A' for Active; 'I' for Inactive)
REMARK    1  A    between atoms: C_1  and  N_2
REMARK    2  A    between atoms: N_2  and  C_3
REMARK    3  A    between atoms: C_7  and  N_8
REMARK    4  A    between atoms: C_13  and  C_14
REMARK    5  A    between atoms: N_18  and  C_19
REMARK    6  A    between atoms: C_21  and  C_22
REMARK                            x       y       z     vdW  Elec       q    Type
REMARK                         _______ _______ _______ _____ _____    ______ ____
ROOT
ATOM      1  N   UNL     1       4.070   4.626  19.266  0.00  0.00    +0.000 N 
ATOM      2  C   UNL     1       5.420   5.244  19.338  0.00  0.00    +0.000 C 
ATOM      3  C   UNL     1       5.912   5.075  17.929  0.00  0.00    +0.000 A 
ATOM      4  C   UNL     1       5.256   3.968  17.387  0.00  0.00    +0.000 A 
ATOM      5  C   UNL     1       5.364   3.594  16.063  0.00  0.00    +0.000 A 
ATOM      6  C   UNL     1       6.189   4.352  15.231  0.00  0.00    +0.000 A 
ATOM      7  C   UNL     1       6.824   5.503  15.765  0.00  0.00    +0.000 A 
ATOM      8  C   UNL     1       6.696   5.889  17.120  0.00  0.00    +0.000 A 
ATOM      9  C   UNL     1       4.175   3.579  18.316  0.00  0.00    +0.000 C 
ATOM     10  O   UNL     1       3.426   2.636  18.126  0.00  0.00    +0.000 OA
ENDROOT
BRANCH   1  15
ATOM     11  C   UNL     1       1.965   7.552  19.997  0.00  0.00    +0.000 A 
ATOM     12  C   UNL     1       2.276   8.295  18.852  0.00  0.00    +0.000 A 
ATOM     13  C   UNL     1       2.837   7.696  17.725  0.00  0.00    +0.000 A 
ATOM     14  C   UNL     1       3.167   6.351  17.753  0.00  0.00    +0.000 A 
ATOM     15  C   UNL     1       3.077   5.648  18.963  0.00  0.00    +0.000 A 
ATOM     16  C   UNL     1       2.353   6.207  20.026  0.00  0.00    +0.000 A 
BRANCH  11  18
ATOM     17  C   UNL     1       0.604   9.372  20.961  0.00  0.00    +0.000 C 
ATOM     18  N   UNL     1       1.230   8.069  21.057  0.00  0.00    +0.000 N 
ATOM     19  H   UNL     1       1.537   7.794  21.984  0.00  0.00    +0.000 HD
ENDBRANCH  11  18
ENDBRANCH   1  15
BRANCH   6  20
ATOM     20  C   UNL     1       6.371   4.047  13.807  0.00  0.00    +0.000 A 
ATOM     21  N   UNL     1       5.615   3.211  13.113  0.00  0.00    +0.000 NA
ATOM     22  N   UNL     1       6.014   3.236  11.799  0.00  0.00    +0.000 NA
ATOM     23  C   UNL     1       7.002   4.090  11.706  0.00  0.00    +0.000 A 
ATOM     24  N   UNL     1       7.274   4.611  12.936  0.00  0.00    +0.000 N 
ATOM     25  C   UNL     1       8.289   5.593  13.205  0.00  0.00    +0.000 C 
ENDBRANCH   6  20
BRANCH   8  26
ATOM     26  C   UNL     1       7.314   7.187  17.577  0.00  0.00    +0.000 C 
ATOM     27  F   UNL     1       8.177   7.732  16.677  0.00  0.00    +0.000 F 
ATOM     28  F   UNL     1       6.375   8.144  17.806  0.00  0.00    +0.000 F 
ATOM     29  F   UNL     1       8.017   7.056  18.739  0.00  0.00    +0.000 F 
ENDBRANCH   8  26
TORSDOF 4
ENDMDL
MODEL 4
REMARK VINA RESULT:      -8.3      2.847      7.096
REMARK  Name = 
REMARK  6 active torsions:
REMARK  status: ('A' for Active; 'I' for Inactive)
REMARK    1  A    between atoms: C_1  and  N_2
REMARK    2  A    between atoms: N_2  and  C_3
REMARK    3  A    between atoms: C_7  and  N_8
REMARK    4  A    between atoms: C_13  and  C_14
REMARK    5  A    between atoms: N_18  and  C_19
REMARK    6  A    between atoms: C_21  and  C_22
REMARK                            x       y       z     vdW  Elec       q    Type
REMARK                         _______ _______ _______ _____ _____    ______ ____
ROOT
ATOM      1  N   UNL     1       6.143   4.187  18.227  0.00  0.00    +0.000 N 
ATOM      2  C   UNL     1       4.917   3.349  18.262  0.00  0.00    +0.000 C 
ATOM      3  C   UNL     1       3.876   4.344  18.691  0.00  0.00    +0.000 A 
ATOM      4  C   UNL     1       4.526   5.342  19.418  0.00  0.00    +0.000 A 
ATOM      5  C   UNL     1       3.901   6.491  19.858  0.00  0.00    +0.000 A 
ATOM      6  C   UNL     1       2.544   6.649  19.577  0.00  0.00    +0.000 A 
ATOM      7  C   UNL     1       1.888   5.659  18.801  0.00  0.00    +0.000 A 
ATOM      8  C   UNL     1       2.539   4.491  18.340  0.00  0.00    +0.000 A 
ATOM      9  C   UNL     1       5.982   5.152  19.252  0.00  0.00    +0.000 C 
ATOM     10  O   UNL     1       6.822   5.863  19.777  0.00  0.00    +0.000 OA
ENDROOT
BRANCH   1  15
ATOM     11  C   UNL     1       6.069   4.088  14.550  0.00  0.00    +0.000 A 
ATOM     12  C   UNL     1       5.391   5.296  14.346  0.00  0.00    +0.000 A 
ATOM     13  C   UNL     1       5.317   6.267  15.343  0.00  0.00    +0.000 A 
ATOM     14  C   UNL     1       5.857   6.012  16.593  0.00  0.00    +0.000 A 
ATOM     15  C   UNL     1       6.332   4.726  16.886  0.00  0.00    +0.000 A 
ATOM     16  C   UNL     1       6.562   3.827  15.835  0.00  0.00    +0.000 A 
BRANCH  11  18
ATOM     17  C   UNL     1       5.713   3.337  12.225  0.00  0.00    +0.000 C 
ATOM     18  N   UNL     1       6.333   3.187  13.527  0.00  0.00    +0.000 N 
ATOM     19  H   UNL     1       6.527   2.233  13.815  0.00  0.00    +0.000 HD
ENDBRANCH  11  18
ENDBRANCH   1  15
BRANCH   6  20
ATOM     20  C   UNL     1       1.783   7.834  19.991  0.00  0.00    +0.000 A 
ATOM     21  N   UNL     1       1.293   8.029  21.205  0.00  0.00    +0.000 NA
ATOM     22  N   UNL     1       0.719   9.275  21.259  0.00  0.00    +0.000 NA
ATOM     23  C   UNL     1       0.871   9.828  20.081  0.00  0.00    +0.000 A 
ATOM     24  N   UNL     1       1.515   8.961  19.249  0.00  0.00    +0.000 N 
ATOM     25  C   UNL     1       1.862   9.242  17.882  0.00  0.00    +0.000 C 
ENDBRANCH   6  20
BRANCH   8  26
ATOM     26  C   UNL     1       1.798   3.546  17.427  0.00  0.00    +0.000 C 
ATOM     27  F   UNL     1       1.426   2.381  18.025  0.00  0.00    +0.000 F 
ATOM     28  F   UNL     1       0.646   4.095  16.955  0.00  0.00    +0.000 F 
ATOM     29  F   UNL     1       2.529   3.189  16.332  0.00  0.00    +0.000 F 
ENDBRANCH   8  26
TORSDOF 4
ENDMDL
MODEL 5
REMARK VINA RESULT:      -8.3      8.346     11.652
REMARK  Name = 
REMARK  6 active torsions:
REMARK  status: ('A' for Active; 'I' for Inactive)
REMARK    1  A    between atoms: C_1  and  N_2
REMARK    2  A    between atoms: N_2  and  C_3
REMARK    3  A    between atoms: C_7  and  N_8
REMARK    4  A    between atoms: C_13  and  C_14
REMARK    5  A    between atoms: N_18  and  C_19
REMARK    6  A    between atoms: C_21  and  C_22
REMARK                            x       y       z     vdW  Elec       q    Type
REMARK                         _______ _______ _______ _____ _____    ______ ____
ROOT
ATOM      1  N   UNL     1      -0.315  11.397  18.392  0.00  0.00    +0.000 N 
ATOM      2  C   UNL     1       0.375  10.542  19.392  0.00  0.00    +0.000 C 
ATOM      3  C   UNL     1      -0.029  11.191  20.684  0.00  0.00    +0.000 A 
ATOM      4  C   UNL     1      -0.301  12.533  20.411  0.00  0.00    +0.000 A 
ATOM      5  C   UNL     1      -0.829  13.406  21.341  0.00  0.00    +0.000 A 
ATOM      6  C   UNL     1      -1.082  12.924  22.625  0.00  0.00    +0.000 A 
ATOM      7  C   UNL     1      -0.849  11.551  22.897  0.00  0.00    +0.000 A 
ATOM      8  C   UNL     1      -0.322  10.658  21.934  0.00  0.00    +0.000 A 
ATOM      9  C   UNL     1      -0.330  12.702  18.943  0.00  0.00    +0.000 C 
ATOM     10  O   UNL     1      -0.534  13.769  18.389  0.00  0.00    +0.000 OA
ENDROOT
BRANCH   1  15
ATOM     11  C   UNL     1      -3.906  11.536  17.607  0.00  0.00    +0.000 A 
ATOM     12  C   UNL     1      -3.886  10.684  16.497  0.00  0.00    +0.000 A 
ATOM     13  C   UNL     1      -2.824   9.811  16.268  0.00  0.00    +0.000 A 
ATOM     14  C   UNL     1      -1.723   9.832  17.108  0.00  0.00    +0.000 A 
ATOM     15  C   UNL     1      -1.623  10.834  18.083  0.00  0.00    +0.000 A 
ATOM     16  C   UNL     1      -2.763  11.581  18.415  0.00  0.00    +0.000 A 
BRANCH  11  18
ATOM     17  C   UNL     1      -6.352  11.692  17.904  0.00  0.00    +0.000 C 
ATOM     18  N   UNL     1      -5.026  12.271  17.977  0.00  0.00    +0.000 N 
ATOM     19  H   UNL     1      -4.972  13.271  17.815  0.00  0.00    +0.000 HD
ENDBRANCH  11  18
ENDBRANCH   1  15
BRANCH   6  20
ATOM     20  C   UNL     1      -1.648  13.764  23.687  0.00  0.00    +0.000 A 
ATOM     21  N   UNL     1      -0.979  14.696  24.348  0.00  0.00    +0.000 NA
ATOM     22  N   UNL     1      -1.840  15.339  25.203  0.00  0.00    +0.000 NA
ATOM     23  C   UNL     1      -3.022  14.798  25.050  0.00  0.00    +0.000 A 
ATOM     24  N   UNL     1      -2.951  13.798  24.126  0.00  0.00    +0.000 N 
ATOM     25  C   UNL     1      -4.066  12.997  23.697  0.00  0.00    +0.000 C 
ENDBRANCH   6  20
BRANCH   8  26
ATOM     26  C   UNL     1      -0.211   9.192  22.273  0.00  0.00    +0.000 C 
ATOM     27  F   UNL     1      -0.900   8.378  21.428  0.00  0.00    +0.000 F 
ATOM     28  F   UNL     1       1.077   8.757  22.227  0.00  0.00    +0.000 F 
ATOM     29  F   UNL     1      -0.667   8.905  23.527  0.00  0.00    +0.000 F 
ENDBRANCH   8  26
TORSDOF 4
ENDMDL
MODEL 6
REMARK VINA RESULT:      -8.1      2.773      7.220
REMARK  Name = 
REMARK  6 active torsions:
REMARK  status: ('A' for Active; 'I' for Inactive)
REMARK    1  A    between atoms: C_1  and  N_2
REMARK    2  A    between atoms: N_2  and  C_3
REMARK    3  A    between atoms: C_7  and  N_8
REMARK    4  A    between atoms: C_13  and  C_14
REMARK    5  A    between atoms: N_18  and  C_19
REMARK    6  A    between atoms: C_21  and  C_22
REMARK                            x       y       z     vdW  Elec       q    Type
REMARK                         _______ _______ _______ _____ _____    ______ ____
ROOT
ATOM      1  N   UNL     1       6.250   4.303  17.671  0.00  0.00    +0.000 N 
ATOM      2  C   UNL     1       5.218   3.336  18.128  0.00  0.00    +0.000 C 
ATOM      3  C   UNL     1       4.150   4.251  18.653  0.00  0.00    +0.000 A 
ATOM      4  C   UNL     1       4.771   5.437  19.047  0.00  0.00    +0.000 A 
ATOM      5  C   UNL     1       4.079   6.558  19.458  0.00  0.00    +0.000 A 
ATOM      6  C   UNL     1       2.686   6.491  19.501  0.00  0.00    +0.000 A 
ATOM      7  C   UNL     1       2.046   5.303  19.062  0.00  0.00    +0.000 A 
ATOM      8  C   UNL     1       2.763   4.163  18.626  0.00  0.00    +0.000 A 
ATOM      9  C   UNL     1       6.165   5.406  18.555  0.00  0.00    +0.000 C 
ATOM     10  O   UNL     1       6.971   6.300  18.749  0.00  0.00    +0.000 OA
ENDROOT
BRANCH   1  15
ATOM     11  C   UNL     1       7.308   4.973  14.212  0.00  0.00    +0.000 A 
ATOM     12  C   UNL     1       6.440   4.076  13.576  0.00  0.00    +0.000 A 
ATOM     13  C   UNL     1       5.309   3.577  14.220  0.00  0.00    +0.000 A 
ATOM     14  C   UNL     1       5.068   3.908  15.543  0.00  0.00    +0.000 A 
ATOM     15  C   UNL     1       6.043   4.613  16.262  0.00  0.00    +0.000 A 
ATOM     16  C   UNL     1       7.077   5.254  15.564  0.00  0.00    +0.000 A 
BRANCH  11  18
ATOM     17  C   UNL     1       8.195   5.987  12.143  0.00  0.00    +0.000 C 
ATOM     18  N   UNL     1       8.327   5.641  13.544  0.00  0.00    +0.000 N 
ATOM     19  H   UNL     1       9.269   5.443  13.863  0.00  0.00    +0.000 HD
ENDBRANCH  11  18
ENDBRANCH   1  15
BRANCH   6  20
ATOM     20  C   UNL     1       1.852   7.625  19.917  0.00  0.00    +0.000 A 
ATOM     21  N   UNL     1       1.309   7.762  21.117  0.00  0.00    +0.000 NA
ATOM     22  N   UNL     1       0.671   8.976  21.180  0.00  0.00    +0.000 NA
ATOM     23  C   UNL     1       0.837   9.567  20.023  0.00  0.00    +0.000 A 
ATOM     24  N   UNL     1       1.554   8.757  19.194  0.00  0.00    +0.000 N 
ATOM     25  C   UNL     1       1.937   9.092  17.849  0.00  0.00    +0.000 C 
ENDBRANCH   6  20
BRANCH   8  26
ATOM     26  C   UNL     1       2.003   2.985  18.070  0.00  0.00    +0.000 C 
ATOM     27  F   UNL     1       0.652   3.092  18.195  0.00  0.00    +0.000 F 
ATOM     28  F   UNL     1       2.232   2.814  16.740  0.00  0.00    +0.000 F 
ATOM     29  F   UNL     1       2.343   1.808  18.671  0.00  0.00    +0.000 F 
ENDBRANCH   8  26
TORSDOF 4
ENDMDL
MODEL 7
REMARK VINA RESULT:      -7.9      2.881      7.269
REMARK  Name = 
REMARK  6 active torsions:
REMARK  status: ('A' for Active; 'I' for Inactive)
REMARK    1  A    between atoms: C_1  and  N_2
REMARK    2  A    between atoms: N_2  and  C_3
REMARK    3  A    between atoms: C_7  and  N_8
REMARK    4  A    between atoms: C_13  and  C_14
REMARK    5  A    between atoms: N_18  and  C_19
REMARK    6  A    between atoms: C_21  and  C_22
REMARK                            x       y       z     vdW  Elec       q    Type
REMARK                         _______ _______ _______ _____ _____    ______ ____
ROOT
ATOM      1  N   UNL     1       6.415   4.903  16.952  0.00  0.00    +0.000 N 
ATOM      2  C   UNL     1       5.418   4.015  17.605  0.00  0.00    +0.000 C 
ATOM      3  C   UNL     1       4.325   4.983  17.954  0.00  0.00    +0.000 A 
ATOM      4  C   UNL     1       4.910   6.242  18.097  0.00  0.00    +0.000 A 
ATOM      5  C   UNL     1       4.185   7.400  18.288  0.00  0.00    +0.000 A 
ATOM      6  C   UNL     1       2.796   7.301  18.363  0.00  0.00    +0.000 A 
ATOM      7  C   UNL     1       2.192   6.031  18.175  0.00  0.00    +0.000 A 
ATOM      8  C   UNL     1       2.941   4.850  17.964  0.00  0.00    +0.000 A 
ATOM      9  C   UNL     1       6.300   6.156  17.602  0.00  0.00    +0.000 C 
ATOM     10  O   UNL     1       7.079   7.095  17.605  0.00  0.00    +0.000 OA
ENDROOT
BRANCH   1  15
ATOM     11  C   UNL     1       7.419   5.086  13.418  0.00  0.00    +0.000 A 
ATOM     12  C   UNL     1       6.701   3.974  12.964  0.00  0.00    +0.000 A 
ATOM     13  C   UNL     1       5.644   3.440  13.699  0.00  0.00    +0.000 A 
ATOM     14  C   UNL     1       5.336   3.965  14.943  0.00  0.00    +0.000 A 
ATOM     15  C   UNL     1       6.188   4.922  15.513  0.00  0.00    +0.000 A 
ATOM     16  C   UNL     1       7.129   5.570  14.701  0.00  0.00    +0.000 A 
BRANCH  11  18
ATOM     17  C   UNL     1       7.960   6.312  11.344  0.00  0.00    +0.000 C 
ATOM     18  N   UNL     1       8.342   5.764  12.631  0.00  0.00    +0.000 N 
ATOM     19  H   UNL     1       9.304   5.454  12.710  0.00  0.00    +0.000 HD
ENDBRANCH  11  18
ENDBRANCH   1  15
BRANCH   6  20
ATOM     20  C   UNL     1       1.929   8.469  18.557  0.00  0.00    +0.000 A 
ATOM     21  N   UNL     1       1.559   9.302  17.597  0.00  0.00    +0.000 NA
ATOM     22  N   UNL     1       0.683  10.222  18.118  0.00  0.00    +0.000 NA
ATOM     23  C   UNL     1       0.523   9.936  19.386  0.00  0.00    +0.000 A 
ATOM     24  N   UNL     1       1.293   8.860  19.713  0.00  0.00    +0.000 N 
ATOM     25  C   UNL     1       1.355   8.262  21.019  0.00  0.00    +0.000 C 
ENDBRANCH   6  20
BRANCH   8  26
ATOM     26  C   UNL     1       2.216   3.562  17.662  0.00  0.00    +0.000 C 
ATOM     27  F   UNL     1       2.475   3.062  16.423  0.00  0.00    +0.000 F 
ATOM     28  F   UNL     1       2.554   2.572  18.532  0.00  0.00    +0.000 F 
ATOM     29  F   UNL     1       0.859   3.691  17.739  0.00  0.00    +0.000 F 
ENDBRANCH   8  26
TORSDOF 4
ENDMDL
MODEL 8
REMARK VINA RESULT:      -7.6      1.034      1.240
REMARK  Name = 
REMARK  6 active torsions:
REMARK  status: ('A' for Active; 'I' for Inactive)
REMARK    1  A    between atoms: C_1  and  N_2
REMARK    2  A    between atoms: N_2  and  C_3
REMARK    3  A    between atoms: C_7  and  N_8
REMARK    4  A    between atoms: C_13  and  C_14
REMARK    5  A    between atoms: N_18  and  C_19
REMARK    6  A    between atoms: C_21  and  C_22
REMARK                            x       y       z     vdW  Elec       q    Type
REMARK                         _______ _______ _______ _____ _____    ______ ____
ROOT
ATOM      1  N   UNL     1       4.301   4.500  19.067  0.00  0.00    +0.000 N 
ATOM      2  C   UNL     1       5.613   5.166  19.271  0.00  0.00    +0.000 C 
ATOM      3  C   UNL     1       6.169   5.187  17.876  0.00  0.00    +0.000 A 
ATOM      4  C   UNL     1       5.592   4.124  17.179  0.00  0.00    +0.000 A 
ATOM      5  C   UNL     1       5.771   3.915  15.827  0.00  0.00    +0.000 A 
ATOM      6  C   UNL     1       6.589   4.802  15.128  0.00  0.00    +0.000 A 
ATOM      7  C   UNL     1       7.144   5.909  15.820  0.00  0.00    +0.000 A 
ATOM      8  C   UNL     1       6.943   6.126  17.204  0.00  0.00    +0.000 A 
ATOM      9  C   UNL     1       4.495   3.579  18.007  0.00  0.00    +0.000 C 
ATOM     10  O   UNL     1       3.803   2.633  17.675  0.00  0.00    +0.000 OA
ENDROOT
BRANCH   1  15
ATOM     11  C   UNL     1       2.158   7.347  19.981  0.00  0.00    +0.000 A 
ATOM     12  C   UNL     1       2.400   8.132  18.848  0.00  0.00    +0.000 A 
ATOM     13  C   UNL     1       2.924   7.583  17.679  0.00  0.00    +0.000 A 
ATOM     14  C   UNL     1       3.289   6.247  17.650  0.00  0.00    +0.000 A 
ATOM     15  C   UNL     1       3.270   5.505  18.840  0.00  0.00    +0.000 A 
ATOM     16  C   UNL     1       2.580   6.012  19.951  0.00  0.00    +0.000 A 
BRANCH  11  18
ATOM     17  C   UNL     1       0.540   8.926  20.972  0.00  0.00    +0.000 C 
ATOM     18  N   UNL     1       1.458   7.811  21.088  0.00  0.00    +0.000 N 
ATOM     19  H   UNL     1       1.932   7.721  21.981  0.00  0.00    +0.000 HD
ENDBRANCH  11  18
ENDBRANCH   1  15
BRANCH   6  20
ATOM     20  C   UNL     1       6.842   4.677  13.688  0.00  0.00    +0.000 A 
ATOM     21  N   UNL     1       7.835   5.270  13.042  0.00  0.00    +0.000 NA
ATOM     22  N   UNL     1       7.819   4.862  11.731  0.00  0.00    +0.000 NA
ATOM     23  C   UNL     1       6.823   4.022  11.593  0.00  0.00    +0.000 A 
ATOM     24  N   UNL     1       6.173   3.886  12.783  0.00  0.00    +0.000 N 
ATOM     25  C   UNL     1       5.038   3.031  13.004  0.00  0.00    +0.000 C 
ENDBRANCH   6  20
BRANCH   8  26
ATOM     26  C   UNL     1       7.476   7.388  17.836  0.00  0.00    +0.000 C 
ATOM     27  F   UNL     1       8.150   7.178  19.000  0.00  0.00    +0.000 F 
ATOM     28  F   UNL     1       8.352   8.034  17.021  0.00  0.00    +0.000 F 
ATOM     29  F   UNL     1       6.492   8.287  18.129  0.00  0.00    +0.000 F 
ENDBRANCH   8  26
TORSDOF 4
ENDMDL
MODEL 9
REMARK VINA RESULT:      -7.6      8.456     11.833
REMARK  Name = 
REMARK  6 active torsions:
REMARK  status: ('A' for Active; 'I' for Inactive)
REMARK    1  A    between atoms: C_1  and  N_2
REMARK    2  A    between atoms: N_2  and  C_3
REMARK    3  A    between atoms: C_7  and  N_8
REMARK    4  A    between atoms: C_13  and  C_14
REMARK    5  A    between atoms: N_18  and  C_19
REMARK    6  A    between atoms: C_21  and  C_22
REMARK                            x       y       z     vdW  Elec       q    Type
REMARK                         _______ _______ _______ _____ _____    ______ ____
ROOT
ATOM      1  N   UNL     1      -0.220  11.614  18.482  0.00  0.00    +0.000 N 
ATOM      2  C   UNL     1       0.490  10.839  19.532  0.00  0.00    +0.000 C 
ATOM      3  C   UNL     1      -0.006  11.495  20.788  0.00  0.00    +0.000 A 
ATOM      4  C   UNL     1      -0.360  12.806  20.464  0.00  0.00    +0.000 A 
ATOM      5  C   UNL     1      -0.980  13.666  21.347  0.00  0.00    +0.000 A 
ATOM      6  C   UNL     1      -1.247  13.205  22.636  0.00  0.00    +0.000 A 
ATOM      7  C   UNL     1      -0.930  11.860  22.959  0.00  0.00    +0.000 A 
ATOM      8  C   UNL     1      -0.308  10.979  22.043  0.00  0.00    +0.000 A 
ATOM      9  C   UNL     1      -0.345  12.931  18.992  0.00  0.00    +0.000 C 
ATOM     10  O   UNL     1      -0.602  13.964  18.397  0.00  0.00    +0.000 OA
ENDROOT
BRANCH   1  15
ATOM     11  C   UNL     1      -3.750  11.477  17.454  0.00  0.00    +0.000 A 
ATOM     12  C   UNL     1      -3.609  10.526  16.438  0.00  0.00    +0.000 A 
ATOM     13  C   UNL     1      -2.492   9.696  16.365  0.00  0.00    +0.000 A 
ATOM     14  C   UNL     1      -1.455   9.858  17.270  0.00  0.00    +0.000 A 
ATOM     15  C   UNL     1      -1.474  10.952  18.145  0.00  0.00    +0.000 A 
ATOM     16  C   UNL     1      -2.669  11.663  18.327  0.00  0.00    +0.000 A 
BRANCH  11  18
ATOM     17  C   UNL     1      -6.159  11.487  17.992  0.00  0.00    +0.000 C 
ATOM     18  N   UNL     1      -4.927  12.181  17.675  0.00  0.00    +0.000 N 
ATOM     19  H   UNL     1      -5.030  13.046  17.155  0.00  0.00    +0.000 HD
ENDBRANCH  11  18
ENDBRANCH   1  15
BRANCH   6  20
ATOM     20  C   UNL     1      -1.908  14.033  23.651  0.00  0.00    +0.000 A 
ATOM     21  N   UNL     1      -3.033  13.711  24.271  0.00  0.00    +0.000 NA
ATOM     22  N   UNL     1      -3.312  14.670  25.213  0.00  0.00    +0.000 NA
ATOM     23  C   UNL     1      -2.354  15.561  25.162  0.00  0.00    +0.000 A 
ATOM     24  N   UNL     1      -1.461  15.217  24.191  0.00  0.00    +0.000 N 
ATOM     25  C   UNL     1      -0.274  15.961  23.867  0.00  0.00    +0.000 C 
ENDBRANCH   6  20
BRANCH   8  26
ATOM     26  C   UNL     1      -0.108   9.535  22.432  0.00  0.00    +0.000 C 
ATOM     27  F   UNL     1      -0.423   9.265  23.728  0.00  0.00    +0.000 F 
ATOM     28  F   UNL     1      -0.881   8.697  21.689  0.00  0.00    +0.000 F 
ATOM     29  F   UNL     1       1.180   9.117  22.263  0.00  0.00    +0.000 F 
ENDBRANCH   8  26
TORSDOF 4
ENDMDL
