MODEL 1
REMARK VINA RESULT:      -8.3      0.000      0.000
REMARK  Name = 
REMARK  4 active torsions:
REMARK  status: ('A' for Active; 'I' for Inactive)
REMARK    1  A    between atoms: C_1  and  C_2
REMARK    2  A    between atoms: C_4  and  C_5
REMARK    3  A    between atoms: N_7  and  C_8
REMARK    4  A    between atoms: C_12  and  C_13
REMARK                            x       y       z     vdW  Elec       q    Type
REMARK                         _______ _______ _______ _____ _____    ______ ____
ROOT
ATOM      1  C   UNL     1       6.885   6.713  16.869  0.00  0.00    +0.000 A 
ATOM      2  C   UNL     1       7.332   5.939  15.801  0.00  0.00    +0.000 A 
ATOM      3  C   UNL     1       6.762   4.689  15.552  0.00  0.00    +0.000 A 
ATOM      4  C   UNL     1       5.717   4.220  16.351  0.00  0.00    +0.000 A 
ATOM      5  C   UNL     1       5.251   4.977  17.434  0.00  0.00    +0.000 A 
ATOM      6  C   UNL     1       5.847   6.234  17.678  0.00  0.00    +0.000 A 
ENDROOT
BRANCH   5   7
ATOM      7  C   UNL     1       4.188   4.444  18.305  0.00  0.00    +0.000 A 
ATOM      8  N   UNL     1       2.880   4.596  18.189  0.00  0.00    +0.000 NA
ATOM      9  C   UNL     1       2.323   3.940  19.269  0.00  0.00    +0.000 A 
ATOM     10  C   UNL     1       0.987   3.777  19.664  0.00  0.00    +0.000 A 
ATOM     11  C   UNL     1       0.711   3.067  20.844  0.00  0.00    +0.000 A 
ATOM     12  C   UNL     1       1.741   2.518  21.614  0.00  0.00    +0.000 A 
ATOM     13  C   UNL     1       3.075   2.652  21.229  0.00  0.00    +0.000 A 
ATOM     14  C   UNL     1       3.321   3.365  20.056  0.00  0.00    +0.000 A 
ATOM     15  N   UNL     1       4.477   3.671  19.407  0.00  0.00    +0.000 N 
ATOM     16  H   UNL     1       5.400   3.367  19.675  0.00  0.00    +0.000 HD
ENDBRANCH   5   7
BRANCH   1  19
ATOM     17  C   UNL     1       8.312   8.270  18.146  0.00  0.00    +0.000 C 
ATOM     18  O   UNL     1       8.589   7.481  19.049  0.00  0.00    +0.000 OA
ATOM     19  N   UNL     1       7.485   7.973  17.076  0.00  0.00    +0.000 N 
ATOM     20  H   UNL     1       7.563   8.559  16.256  0.00  0.00    +0.000 HD
BRANCH  17  24
ATOM     21  C   UNL     1      11.208  11.716  19.025  0.00  0.00    +0.000 C 
ATOM     22  C   UNL     1       9.826  11.522  19.648  0.00  0.00    +0.000 C 
ATOM     23  C   UNL     1       9.309  10.083  19.580  0.00  0.00    +0.000 C 
ATOM     24  C   UNL     1       8.884   9.692  18.164  0.00  0.00    +0.000 C 
ATOM     25  C   UNL     1       7.950  10.752  17.566  0.00  0.00    +0.000 C 
ATOM     26  C   UNL     1       8.521  12.155  17.730  0.00  0.00    +0.000 C 
ATOM     27  O   UNL     1       8.863  12.420  19.089  0.00  0.00    +0.000 OA
ENDBRANCH  17  24
ENDBRANCH   1  19
TORSDOF 3
ENDMDL
MODEL 2
REMARK VINA RESULT:      -8.1      0.597      1.103
REMARK  Name = 
REMARK  4 active torsions:
REMARK  status: ('A' for Active; 'I' for Inactive)
REMARK    1  A    between atoms: C_1  and  C_2
REMARK    2  A    between atoms: C_4  and  C_5
REMARK    3  A    between atoms: N_7  and  C_8
REMARK    4  A    between atoms: C_12  and  C_13
REMARK                            x       y       z     vdW  Elec       q    Type
REMARK                         _______ _______ _______ _____ _____    ______ ____
ROOT
ATOM      1  C   UNL     1       6.911   6.859  16.842  0.00  0.00    +0.000 A 
ATOM      2  C   UNL     1       7.352   6.094  15.766  0.00  0.00    +0.000 A 
ATOM      3  C   UNL     1       6.760   4.859  15.493  0.00  0.00    +0.000 A 
ATOM      4  C   UNL     1       5.701   4.397  16.277  0.00  0.00    +0.000 A 
ATOM      5  C   UNL     1       5.241   5.146  17.368  0.00  0.00    +0.000 A 
ATOM      6  C   UNL     1       5.859   6.388  17.637  0.00  0.00    +0.000 A 
ENDROOT
BRANCH   5   7
ATOM      7  C   UNL     1       4.162   4.620  18.223  0.00  0.00    +0.000 A 
ATOM      8  N   UNL     1       4.037   4.714  19.536  0.00  0.00    +0.000 NA
ATOM      9  C   UNL     1       2.883   4.029  19.859  0.00  0.00    +0.000 A 
ATOM     10  C   UNL     1       2.263   3.792  21.095  0.00  0.00    +0.000 A 
ATOM     11  C   UNL     1       1.085   3.028  21.127  0.00  0.00    +0.000 A 
ATOM     12  C   UNL     1       0.524   2.517  19.951  0.00  0.00    +0.000 A 
ATOM     13  C   UNL     1       1.113   2.758  18.710  0.00  0.00    +0.000 A 
ATOM     14  C   UNL     1       2.284   3.515  18.708  0.00  0.00    +0.000 A 
ATOM     15  N   UNL     1       3.093   3.931  17.696  0.00  0.00    +0.000 N 
ATOM     16  H   UNL     1       2.931   3.777  16.714  0.00  0.00    +0.000 HD
ENDBRANCH   5   7
BRANCH   1  19
ATOM     17  C   UNL     1       8.343   8.375  18.164  0.00  0.00    +0.000 C 
ATOM     18  O   UNL     1       8.582   7.572  19.067  0.00  0.00    +0.000 OA
ATOM     19  N   UNL     1       7.534   8.104  17.073  0.00  0.00    +0.000 N 
ATOM     20  H   UNL     1       7.643   8.695  16.260  0.00  0.00    +0.000 HD
BRANCH  17  24
ATOM     21  C   UNL     1      11.328  11.736  19.073  0.00  0.00    +0.000 C 
ATOM     22  C   UNL     1       9.955  11.554  19.719  0.00  0.00    +0.000 C 
ATOM     23  C   UNL     1       9.406  10.128  19.624  0.00  0.00    +0.000 C 
ATOM     24  C   UNL     1       8.946   9.784  18.207  0.00  0.00    +0.000 C 
ATOM     25  C   UNL     1       8.022  10.878  17.656  0.00  0.00    +0.000 C 
ATOM     26  C   UNL     1       8.626  12.264  17.844  0.00  0.00    +0.000 C 
ATOM     27  O   UNL     1       9.000  12.485  19.203  0.00  0.00    +0.000 OA
ENDBRANCH  17  24
ENDBRANCH   1  19
TORSDOF 3
ENDMDL
MODEL 3
REMARK VINA RESULT:      -7.9      6.924      8.445
REMARK  Name = 
REMARK  4 active torsions:
REMARK  status: ('A' for Active; 'I' for Inactive)
REMARK    1  A    between atoms: C_1  and  C_2
REMARK    2  A    between atoms: C_4  and  C_5
REMARK    3  A    between atoms: N_7  and  C_8
REMARK    4  A    between atoms: C_12  and  C_13
REMARK                            x       y       z     vdW  Elec       q    Type
REMARK                         _______ _______ _______ _____ _____    ______ ____
ROOT
ATOM      1  C   UNL     1       0.517  10.123  19.566  0.00  0.00    +0.000 A 
ATOM      2  C   UNL     1       1.170  10.768  18.519  0.00  0.00    +0.000 A 
ATOM      3  C   UNL     1       2.190  10.118  17.821  0.00  0.00    +0.000 A 
ATOM      4  C   UNL     1       2.541   8.806  18.146  0.00  0.00    +0.000 A 
ATOM      5  C   UNL     1       1.902   8.136  19.197  0.00  0.00    +0.000 A 
ATOM      6  C   UNL     1       0.880   8.812  19.900  0.00  0.00    +0.000 A 
ENDROOT
BRANCH   5   7
ATOM      7  C   UNL     1       2.322   6.773  19.568  0.00  0.00    +0.000 A 
ATOM      8  N   UNL     1       3.235   6.011  18.989  0.00  0.00    +0.000 NA
ATOM      9  C   UNL     1       3.229   4.817  19.683  0.00  0.00    +0.000 A 
ATOM     10  C   UNL     1       3.978   3.644  19.511  0.00  0.00    +0.000 A 
ATOM     11  C   UNL     1       3.740   2.556  20.367  0.00  0.00    +0.000 A 
ATOM     12  C   UNL     1       2.784   2.634  21.385  0.00  0.00    +0.000 A 
ATOM     13  C   UNL     1       2.042   3.798  21.586  0.00  0.00    +0.000 A 
ATOM     14  C   UNL     1       2.296   4.861  20.719  0.00  0.00    +0.000 A 
ATOM     15  N   UNL     1       1.767   6.112  20.640  0.00  0.00    +0.000 N 
ATOM     16  H   UNL     1       1.090   6.505  21.275  0.00  0.00    +0.000 HD
ENDBRANCH   5   7
BRANCH   1  19
ATOM     17  C   UNL     1      -0.296  11.744  21.240  0.00  0.00    +0.000 C 
ATOM     18  O   UNL     1       0.815  12.043  21.681  0.00  0.00    +0.000 OA
ATOM     19  N   UNL     1      -0.513  10.817  20.236  0.00  0.00    +0.000 N 
ATOM     20  H   UNL     1      -1.397  10.865  19.747  0.00  0.00    +0.000 HD
BRANCH  17  24
ATOM     21  C   UNL     1      -3.107  13.674  24.307  0.00  0.00    +0.000 C 
ATOM     22  C   UNL     1      -3.282  12.296  23.669  0.00  0.00    +0.000 C 
ATOM     23  C   UNL     1      -1.990  11.704  23.103  0.00  0.00    +0.000 C 
ATOM     24  C   UNL     1      -1.555  12.405  21.814  0.00  0.00    +0.000 C 
ATOM     25  C   UNL     1      -2.723  12.494  20.824  0.00  0.00    +0.000 C 
ATOM     26  C   UNL     1      -3.979  13.040  21.491  0.00  0.00    +0.000 C 
ATOM     27  O   UNL     1      -4.303  12.302  22.668  0.00  0.00    +0.000 OA
ENDBRANCH  17  24
ENDBRANCH   1  19
TORSDOF 3
ENDMDL
MODEL 4
REMARK VINA RESULT:      -7.8      7.014      8.324
REMARK  Name = 
REMARK  4 active torsions:
REMARK  status: ('A' for Active; 'I' for Inactive)
REMARK    1  A    between atoms: C_1  and  C_2
REMARK    2  A    between atoms: C_4  and  C_5
REMARK    3  A    between atoms: N_7  and  C_8
REMARK    4  A    between atoms: C_12  and  C_13
REMARK                            x       y       z     vdW  Elec       q    Type
REMARK                         _______ _______ _______ _____ _____    ______ ____
ROOT
ATOM      1  C   UNL     1       0.596  10.111  20.038  0.00  0.00    +0.000 A 
ATOM      2  C   UNL     1       0.977  10.721  18.846  0.00  0.00    +0.000 A 
ATOM      3  C   UNL     1       1.789  10.039  17.936  0.00  0.00    +0.000 A 
ATOM      4  C   UNL     1       2.197   8.731  18.201  0.00  0.00    +0.000 A 
ATOM      5  C   UNL     1       1.830   8.095  19.394  0.00  0.00    +0.000 A 
ATOM      6  C   UNL     1       1.018   8.804  20.308  0.00  0.00    +0.000 A 
ENDROOT
BRANCH   5   7
ATOM      7  C   UNL     1       2.316   6.735  19.687  0.00  0.00    +0.000 A 
ATOM      8  N   UNL     1       3.272   6.057  19.075  0.00  0.00    +0.000 NA
ATOM      9  C   UNL     1       3.322   4.824  19.695  0.00  0.00    +0.000 A 
ATOM     10  C   UNL     1       4.132   3.704  19.461  0.00  0.00    +0.000 A 
ATOM     11  C   UNL     1       3.942   2.555  20.248  0.00  0.00    +0.000 A 
ATOM     12  C   UNL     1       2.973   2.522  21.256  0.00  0.00    +0.000 A 
ATOM     13  C   UNL     1       2.171   3.632  21.518  0.00  0.00    +0.000 A 
ATOM     14  C   UNL     1       2.377   4.757  20.720  0.00  0.00    +0.000 A 
ATOM     15  N   UNL     1       1.786   5.983  20.710  0.00  0.00    +0.000 N 
ATOM     16  H   UNL     1       1.083   6.301  21.359  0.00  0.00    +0.000 HD
ENDBRANCH   5   7
BRANCH   1  19
ATOM     17  C   UNL     1       0.151  12.004  21.559  0.00  0.00    +0.000 C 
ATOM     18  O   UNL     1       1.263  12.520  21.452  0.00  0.00    +0.000 OA
ATOM     19  N   UNL     1      -0.233  10.836  20.922  0.00  0.00    +0.000 N 
ATOM     20  H   UNL     1      -1.225  10.665  20.829  0.00  0.00    +0.000 HD
BRANCH  17  24
ATOM     21  C   UNL     1      -3.709  12.440  23.998  0.00  0.00    +0.000 C 
ATOM     22  C   UNL     1      -3.390  13.153  22.684  0.00  0.00    +0.000 C 
ATOM     23  C   UNL     1      -2.307  12.465  21.850  0.00  0.00    +0.000 C 
ATOM     24  C   UNL     1      -0.914  12.648  22.454  0.00  0.00    +0.000 C 
ATOM     25  C   UNL     1      -0.653  14.125  22.776  0.00  0.00    +0.000 C 
ATOM     26  C   UNL     1      -1.807  14.738  23.559  0.00  0.00    +0.000 C 
ATOM     27  O   UNL     1      -3.052  14.526  22.896  0.00  0.00    +0.000 OA
ENDBRANCH  17  24
ENDBRANCH   1  19
TORSDOF 3
ENDMDL
MODEL 5
REMARK VINA RESULT:      -7.7      4.742      7.016
REMARK  Name = 
REMARK  4 active torsions:
REMARK  status: ('A' for Active; 'I' for Inactive)
REMARK    1  A    between atoms: C_1  and  C_2
REMARK    2  A    between atoms: C_4  and  C_5
REMARK    3  A    between atoms: N_7  and  C_8
REMARK    4  A    between atoms: C_12  and  C_13
REMARK                            x       y       z     vdW  Elec       q    Type
REMARK                         _______ _______ _______ _____ _____    ______ ____
ROOT
ATOM      1  C   UNL     1       4.090   4.805  17.399  0.00  0.00    +0.000 A 
ATOM      2  C   UNL     1       4.489   3.843  18.324  0.00  0.00    +0.000 A 
ATOM      3  C   UNL     1       4.154   3.985  19.673  0.00  0.00    +0.000 A 
ATOM      4  C   UNL     1       3.390   5.073  20.098  0.00  0.00    +0.000 A 
ATOM      5  C   UNL     1       2.979   6.056  19.189  0.00  0.00    +0.000 A 
ATOM      6  C   UNL     1       3.336   5.903  17.830  0.00  0.00    +0.000 A 
ENDROOT
BRANCH   5   7
ATOM      7  C   UNL     1       2.223   7.231  19.661  0.00  0.00    +0.000 A 
ATOM      8  N   UNL     1       1.869   8.306  18.978  0.00  0.00    +0.000 NA
ATOM      9  C   UNL     1       1.215   9.128  19.874  0.00  0.00    +0.000 A 
ATOM     10  C   UNL     1       0.633  10.394  19.713  0.00  0.00    +0.000 A 
ATOM     11  C   UNL     1       0.046  11.017  20.827  0.00  0.00    +0.000 A 
ATOM     12  C   UNL     1       0.026  10.390  22.077  0.00  0.00    +0.000 A 
ATOM     13  C   UNL     1       0.582   9.122  22.254  0.00  0.00    +0.000 A 
ATOM     14  C   UNL     1       1.162   8.530  21.133  0.00  0.00    +0.000 A 
ATOM     15  N   UNL     1       1.774   7.327  20.958  0.00  0.00    +0.000 N 
ATOM     16  H   UNL     1       1.869   6.609  21.659  0.00  0.00    +0.000 HD
ENDBRANCH   5   7
BRANCH   1  19
ATOM     17  C   UNL     1       5.565   5.170  15.454  0.00  0.00    +0.000 C 
ATOM     18  O   UNL     1       6.358   5.915  16.032  0.00  0.00    +0.000 OA
ATOM     19  N   UNL     1       4.444   4.614  16.046  0.00  0.00    +0.000 N 
ATOM     20  H   UNL     1       4.041   3.801  15.600  0.00  0.00    +0.000 HD
BRANCH  17  24
ATOM     21  C   UNL     1       4.651   3.580  11.251  0.00  0.00    +0.000 C 
ATOM     22  C   UNL     1       5.612   2.953  12.260  0.00  0.00    +0.000 C 
ATOM     23  C   UNL     1       5.351   3.368  13.710  0.00  0.00    +0.000 C 
ATOM     24  C   UNL     1       5.780   4.811  13.979  0.00  0.00    +0.000 C 
ATOM     25  C   UNL     1       7.209   5.054  13.476  0.00  0.00    +0.000 C 
ATOM     26  C   UNL     1       7.389   4.560  12.047  0.00  0.00    +0.000 C 
ATOM     27  O   UNL     1       6.978   3.200  11.914  0.00  0.00    +0.000 OA
ENDBRANCH  17  24
ENDBRANCH   1  19
TORSDOF 3
ENDMDL
MODEL 6
REMARK VINA RESULT:      -7.6      6.867      8.374
REMARK  Name = 
REMARK  4 active torsions:
REMARK  status: ('A' for Active; 'I' for Inactive)
REMARK    1  A    between atoms: C_1  and  C_2
REMARK    2  A    between atoms: C_4  and  C_5
REMARK    3  A    between atoms: N_7  and  C_8
REMARK    4  A    between atoms: C_12  and  C_13
REMARK                            x       y       z     vdW  Elec       q    Type
REMARK                         _______ _______ _______ _____ _____    ______ ____
ROOT
ATOM      1  C   UNL     1       0.521   9.971  19.588  0.00  0.00    +0.000 A 
ATOM      2  C   UNL     1       1.209  10.563  18.532  0.00  0.00    +0.000 A 
ATOM      3  C   UNL     1       2.208   9.854  17.860  0.00  0.00    +0.000 A 
ATOM      4  C   UNL     1       2.501   8.537  18.222  0.00  0.00    +0.000 A 
ATOM      5  C   UNL     1       1.826   7.921  19.283  0.00  0.00    +0.000 A 
ATOM      6  C   UNL     1       0.826   8.656  19.959  0.00  0.00    +0.000 A 
ENDROOT
BRANCH   5   7
ATOM      7  C   UNL     1       2.187   6.551  19.693  0.00  0.00    +0.000 A 
ATOM      8  N   UNL     1       1.659   5.819  20.659  0.00  0.00    +0.000 NA
ATOM      9  C   UNL     1       2.365   4.633  20.667  0.00  0.00    +0.000 A 
ATOM     10  C   UNL     1       2.250   3.494  21.478  0.00  0.00    +0.000 A 
ATOM     11  C   UNL     1       3.136   2.423  21.271  0.00  0.00    +0.000 A 
ATOM     12  C   UNL     1       4.112   2.476  20.270  0.00  0.00    +0.000 A 
ATOM     13  C   UNL     1       4.230   3.591  19.440  0.00  0.00    +0.000 A 
ATOM     14  C   UNL     1       3.341   4.641  19.670  0.00  0.00    +0.000 A 
ATOM     15  N   UNL     1       3.181   5.845  19.056  0.00  0.00    +0.000 N 
ATOM     16  H   UNL     1       3.695   6.166  18.251  0.00  0.00    +0.000 HD
ENDBRANCH   5   7
BRANCH   1  19
ATOM     17  C   UNL     1      -0.245  11.632  21.246  0.00  0.00    +0.000 C 
ATOM     18  O   UNL     1       0.867  11.860  21.723  0.00  0.00    +0.000 OA
ATOM     19  N   UNL     1      -0.487  10.723  20.230  0.00  0.00    +0.000 N 
ATOM     20  H   UNL     1      -1.350  10.827  19.713  0.00  0.00    +0.000 HD
BRANCH  17  24
ATOM     21  C   UNL     1      -3.012  13.753  24.225  0.00  0.00    +0.000 C 
ATOM     22  C   UNL     1      -3.245  12.376  23.606  0.00  0.00    +0.000 C 
ATOM     23  C   UNL     1      -1.974  11.709  23.075  0.00  0.00    +0.000 C 
ATOM     24  C   UNL     1      -1.479  12.365  21.784  0.00  0.00    +0.000 C 
ATOM     25  C   UNL     1      -2.622  12.497  20.770  0.00  0.00    +0.000 C 
ATOM     26  C   UNL     1      -3.861  13.118  21.403  0.00  0.00    +0.000 C 
ATOM     27  O   UNL     1      -4.245  12.417  22.584  0.00  0.00    +0.000 OA
ENDBRANCH  17  24
ENDBRANCH   1  19
TORSDOF 3
ENDMDL
MODEL 7
REMARK VINA RESULT:      -7.6      4.655      7.334
REMARK  Name = 
REMARK  4 active torsions:
REMARK  status: ('A' for Active; 'I' for Inactive)
REMARK    1  A    between atoms: C_1  and  C_2
REMARK    2  A    between atoms: C_4  and  C_5
REMARK    3  A    between atoms: N_7  and  C_8
REMARK    4  A    between atoms: C_12  and  C_13
REMARK                            x       y       z     vdW  Elec       q    Type
REMARK                         _______ _______ _______ _____ _____    ______ ____
ROOT
ATOM      1  C   UNL     1       3.215   6.283  18.872  0.00  0.00    +0.000 A 
ATOM      2  C   UNL     1       3.277   5.250  19.803  0.00  0.00    +0.000 A 
ATOM      3  C   UNL     1       4.037   4.109  19.536  0.00  0.00    +0.000 A 
ATOM      4  C   UNL     1       4.765   4.010  18.348  0.00  0.00    +0.000 A 
ATOM      5  C   UNL     1       4.717   5.034  17.394  0.00  0.00    +0.000 A 
ATOM      6  C   UNL     1       3.934   6.177  17.676  0.00  0.00    +0.000 A 
ENDROOT
BRANCH   5   7
ATOM      7  C   UNL     1       5.443   4.891  16.119  0.00  0.00    +0.000 A 
ATOM      8  N   UNL     1       6.501   5.563  15.698  0.00  0.00    +0.000 NA
ATOM      9  C   UNL     1       6.776   5.087  14.432  0.00  0.00    +0.000 A 
ATOM     10  C   UNL     1       7.773   5.435  13.509  0.00  0.00    +0.000 A 
ATOM     11  C   UNL     1       7.799   4.788  12.262  0.00  0.00    +0.000 A 
ATOM     12  C   UNL     1       6.858   3.804  11.940  0.00  0.00    +0.000 A 
ATOM     13  C   UNL     1       5.870   3.429  12.851  0.00  0.00    +0.000 A 
ATOM     14  C   UNL     1       5.865   4.090  14.079  0.00  0.00    +0.000 A 
ATOM     15  N   UNL     1       5.063   3.969  15.171  0.00  0.00    +0.000 N 
ATOM     16  H   UNL     1       4.319   3.298  15.281  0.00  0.00    +0.000 HD
ENDBRANCH   5   7
BRANCH   1  19
ATOM     17  C   UNL     1       2.158   8.439  18.296  0.00  0.00    +0.000 C 
ATOM     18  O   UNL     1       2.573   8.481  17.138  0.00  0.00    +0.000 OA
ATOM     19  N   UNL     1       2.442   7.421  19.191  0.00  0.00    +0.000 N 
ATOM     20  H   UNL     1       1.828   7.321  19.988  0.00  0.00    +0.000 HD
BRANCH  17  24
ATOM     21  C   UNL     1       0.640  11.711  21.128  0.00  0.00    +0.000 C 
ATOM     22  C   UNL     1      -0.044  10.373  20.852  0.00  0.00    +0.000 C 
ATOM     23  C   UNL     1       0.892   9.298  20.296  0.00  0.00    +0.000 C 
ATOM     24  C   UNL     1       1.274   9.568  18.839  0.00  0.00    +0.000 C 
ATOM     25  C   UNL     1       0.025   9.848  17.994  0.00  0.00    +0.000 C 
ATOM     26  C   UNL     1      -0.872  10.888  18.653  0.00  0.00    +0.000 C 
ATOM     27  O   UNL     1      -1.182  10.527  19.998  0.00  0.00    +0.000 OA
ENDBRANCH  17  24
ENDBRANCH   1  19
TORSDOF 3
ENDMDL
MODEL 8
REMARK VINA RESULT:      -7.6      7.212      9.346
REMARK  Name = 
REMARK  4 active torsions:
REMARK  status: ('A' for Active; 'I' for Inactive)
REMARK    1  A    between atoms: C_1  and  C_2
REMARK    2  A    between atoms: C_4  and  C_5
REMARK    3  A    between atoms: N_7  and  C_8
REMARK    4  A    between atoms: C_12  and  C_13
REMARK                            x       y       z     vdW  Elec       q    Type
REMARK                         _______ _______ _______ _____ _____    ______ ____
ROOT
ATOM      1  C   UNL     1       1.273   9.870  18.044  0.00  0.00    +0.000 A 
ATOM      2  C   UNL     1       2.095  10.958  18.329  0.00  0.00    +0.000 A 
ATOM      3  C   UNL     1       1.535  12.185  18.690  0.00  0.00    +0.000 A 
ATOM      4  C   UNL     1       0.149  12.322  18.799  0.00  0.00    +0.000 A 
ATOM      5  C   UNL     1      -0.700  11.245  18.515  0.00  0.00    +0.000 A 
ATOM      6  C   UNL     1      -0.116  10.013  18.140  0.00  0.00    +0.000 A 
ENDROOT
BRANCH   5   7
ATOM      7  C   UNL     1      -2.162  11.419  18.577  0.00  0.00    +0.000 A 
ATOM      8  N   UNL     1      -3.080  10.936  17.757  0.00  0.00    +0.000 NA
ATOM      9  C   UNL     1      -4.291  11.412  18.219  0.00  0.00    +0.000 A 
ATOM     10  C   UNL     1      -5.598  11.233  17.742  0.00  0.00    +0.000 A 
ATOM     11  C   UNL     1      -6.657  11.868  18.412  0.00  0.00    +0.000 A 
ATOM     12  C   UNL     1      -6.425  12.660  19.542  0.00  0.00    +0.000 A 
ATOM     13  C   UNL     1      -5.135  12.835  20.044  0.00  0.00    +0.000 A 
ATOM     14  C   UNL     1      -4.103  12.197  19.357  0.00  0.00    +0.000 A 
ATOM     15  N   UNL     1      -2.760  12.154  19.574  0.00  0.00    +0.000 N 
ATOM     16  H   UNL     1      -2.277  12.577  20.351  0.00  0.00    +0.000 HD
ENDBRANCH   5   7
BRANCH   1  19
ATOM     17  C   UNL     1       2.246   7.672  18.606  0.00  0.00    +0.000 C 
ATOM     18  O   UNL     1       2.102   7.775  19.824  0.00  0.00    +0.000 OA
ATOM     19  N   UNL     1       1.885   8.648  17.692  0.00  0.00    +0.000 N 
ATOM     20  H   UNL     1       1.760   8.357  16.732  0.00  0.00    +0.000 HD
BRANCH  17  24
ATOM     21  C   UNL     1       2.646   3.294  17.302  0.00  0.00    +0.000 C 
ATOM     22  C   UNL     1       3.409   3.965  18.443  0.00  0.00    +0.000 C 
ATOM     23  C   UNL     1       2.738   5.232  18.980  0.00  0.00    +0.000 C 
ATOM     24  C   UNL     1       2.870   6.406  18.008  0.00  0.00    +0.000 C 
ATOM     25  C   UNL     1       4.327   6.577  17.558  0.00  0.00    +0.000 C 
ATOM     26  C   UNL     1       4.926   5.255  17.095  0.00  0.00    +0.000 C 
ATOM     27  O   UNL     1       4.766   4.239  18.083  0.00  0.00    +0.000 OA
ENDBRANCH  17  24
ENDBRANCH   1  19
TORSDOF 3
ENDMDL
MODEL 9
REMARK VINA RESULT:      -7.6      6.997      8.204
REMARK  Name = 
REMARK  4 active torsions:
REMARK  status: ('A' for Active; 'I' for Inactive)
REMARK    1  A    between atoms: C_1  and  C_2
REMARK    2  A    between atoms: C_4  and  C_5
REMARK    3  A    between atoms: N_7  and  C_8
REMARK    4  A    between atoms: C_12  and  C_13
REMARK                            x       y       z     vdW  Elec       q    Type
REMARK                         _______ _______ _______ _____ _____    ______ ____
ROOT
ATOM      1  C   UNL     1       0.606  10.094  19.653  0.00  0.00    +0.000 A 
ATOM      2  C   UNL     1       1.182  10.701  18.540  0.00  0.00    +0.000 A 
ATOM      3  C   UNL     1       2.132  10.015  17.779  0.00  0.00    +0.000 A 
ATOM      4  C   UNL     1       2.486   8.706  18.109  0.00  0.00    +0.000 A 
ATOM      5  C   UNL     1       1.924   8.074  19.226  0.00  0.00    +0.000 A 
ATOM      6  C   UNL     1       0.973   8.787  19.991  0.00  0.00    +0.000 A 
ENDROOT
BRANCH   5   7
ATOM      7  C   UNL     1       2.351   6.713  19.598  0.00  0.00    +0.000 A 
ATOM      8  N   UNL     1       3.293   5.969  19.043  0.00  0.00    +0.000 NA
ATOM      9  C   UNL     1       3.281   4.769  19.725  0.00  0.00    +0.000 A 
ATOM     10  C   UNL     1       4.052   3.608  19.567  0.00  0.00    +0.000 A 
ATOM     11  C   UNL     1       3.802   2.509  20.405  0.00  0.00    +0.000 A 
ATOM     12  C   UNL     1       2.811   2.564  21.391  0.00  0.00    +0.000 A 
ATOM     13  C   UNL     1       2.047   3.716  21.578  0.00  0.00    +0.000 A 
ATOM     14  C   UNL     1       2.314   4.790  20.730  0.00  0.00    +0.000 A 
ATOM     15  N   UNL     1       1.771   6.035  20.645  0.00  0.00    +0.000 N 
ATOM     16  H   UNL     1       1.067   6.412  21.261  0.00  0.00    +0.000 HD
ENDBRANCH   5   7
BRANCH   1  19
ATOM     17  C   UNL     1      -0.044  11.835  21.278  0.00  0.00    +0.000 C 
ATOM     18  O   UNL     1       1.102  12.188  21.555  0.00  0.00    +0.000 OA
ATOM     19  N   UNL     1      -0.356  10.823  20.385  0.00  0.00    +0.000 N 
ATOM     20  H   UNL     1      -1.292  10.816  20.004  0.00  0.00    +0.000 HD
BRANCH  17  24
ATOM     21  C   UNL     1      -3.066  15.119  22.333  0.00  0.00    +0.000 C 
ATOM     22  C   UNL     1      -1.991  14.555  23.261  0.00  0.00    +0.000 C 
ATOM     23  C   UNL     1      -0.833  13.872  22.530  0.00  0.00    +0.000 C 
ATOM     24  C   UNL     1      -1.243  12.519  21.945  0.00  0.00    +0.000 C 
ATOM     25  C   UNL     1      -1.945  11.660  23.006  0.00  0.00    +0.000 C 
ATOM     26  C   UNL     1      -3.042  12.441  23.718  0.00  0.00    +0.000 C 
ATOM     27  O   UNL     1      -2.546  13.672  24.240  0.00  0.00    +0.000 OA
ENDBRANCH  17  24
ENDBRANCH   1  19
TORSDOF 3
ENDMDL
