MODEL 1
REMARK VINA RESULT:      -8.9      0.000      0.000
REMARK  Name = 
REMARK  5 active torsions:
REMARK  status: ('A' for Active; 'I' for Inactive)
REMARK    1  A    between atoms: C_2  and  C_4
REMARK    2  A    between atoms: C_4  and  C_5
REMARK    3  A    between atoms: C_5  and  C_6
REMARK    4  A    between atoms: C_9  and  N_10
REMARK    5  A    between atoms: N_10  and  C_11
REMARK                            x       y       z     vdW  Elec       q    Type
REMARK                         _______ _______ _______ _____ _____    ______ ____
ROOT
ATOM      1  N   UNL     1       3.180   5.719  20.210  0.00  0.00    +0.000 N 
ATOM      2  H   UNL     1       3.148   5.690  21.231  0.00  0.00    +0.000 HD
ENDROOT
BRANCH   1   3
ATOM      3  C   UNL     1       2.924   4.356  19.831  0.00  0.00    +0.000 A 
ATOM      4  N   UNL     1       1.641   4.072  19.477  0.00  0.00    +0.000 NA
ATOM      5  C   UNL     1       1.426   3.652  18.217  0.00  0.00    +0.000 A 
ATOM      6  N   UNL     1       2.315   3.712  17.210  0.00  0.00    +0.000 NA
ATOM      7  C   UNL     1       3.591   3.818  17.673  0.00  0.00    +0.000 A 
ATOM      8  C   UNL     1       3.871   3.695  19.039  0.00  0.00    +0.000 A 
ATOM      9  O   UNL     1       5.213   3.639  19.229  0.00  0.00    +0.000 OA
ATOM     10  C   UNL     1       5.725   4.318  18.173  0.00  0.00    +0.000 A 
ATOM     11  C   UNL     1       6.978   4.905  18.218  0.00  0.00    +0.000 A 
ATOM     12  C   UNL     1       7.128   5.999  17.372  0.00  0.00    +0.000 A 
ATOM     13  C   UNL     1       6.150   6.326  16.423  0.00  0.00    +0.000 A 
ATOM     14  C   UNL     1       4.983   5.552  16.259  0.00  0.00    +0.000 A 
ATOM     15  C   UNL     1       4.739   4.547  17.215  0.00  0.00    +0.000 A 
ENDBRANCH   1   3
BRANCH   1  19
ATOM     16  C   UNL     1       1.204   9.265  18.886  0.00  0.00    +0.000 A 
ATOM     17  C   UNL     1       1.070   8.823  20.210  0.00  0.00    +0.000 A 
ATOM     18  C   UNL     1       1.715   7.651  20.648  0.00  0.00    +0.000 A 
ATOM     19  C   UNL     1       2.483   6.873  19.765  0.00  0.00    +0.000 A 
ATOM     20  C   UNL     1       2.614   7.322  18.452  0.00  0.00    +0.000 A 
ATOM     21  C   UNL     1       1.968   8.485  18.011  0.00  0.00    +0.000 A 
BRANCH  16  22
ATOM     22  C   UNL     1       0.487  10.478  18.335  0.00  0.00    +0.000 C 
BRANCH  22  23
ATOM     23  C   UNL     1      -0.968  10.627  18.760  0.00  0.00    +0.000 C 
BRANCH  23  25
ATOM     24  N   UNL     1      -1.959  11.921  16.979  0.00  0.00    +0.000 N 
ATOM     25  C   UNL     1      -1.886  10.678  17.555  0.00  0.00    +0.000 C 
ATOM     26  O   UNL     1      -2.514   9.744  17.108  0.00  0.00    +0.000 OA
ATOM     27  H   UNL     1      -2.569  12.030  16.175  0.00  0.00    +0.000 HD
ATOM     28  H   UNL     1      -1.466  12.733  17.334  0.00  0.00    +0.000 HD
ENDBRANCH  23  25
ENDBRANCH  22  23
ENDBRANCH  16  22
ENDBRANCH   1  19
TORSDOF 5
ENDMDL
MODEL 2
REMARK VINA RESULT:      -8.8      0.470      1.068
REMARK  Name = 
REMARK  5 active torsions:
REMARK  status: ('A' for Active; 'I' for Inactive)
REMARK    1  A    between atoms: C_2  and  C_4
REMARK    2  A    between atoms: C_4  and  C_5
REMARK    3  A    between atoms: C_5  and  C_6
REMARK    4  A    between atoms: C_9  and  N_10
REMARK    5  A    between atoms: N_10  and  C_11
REMARK                            x       y       z     vdW  Elec       q    Type
REMARK                         _______ _______ _______ _____ _____    ______ ____
ROOT
ATOM      1  N   UNL     1       3.255   5.866  20.111  0.00  0.00    +0.000 N 
ATOM      2  H   UNL     1       3.266   5.867  21.133  0.00  0.00    +0.000 HD
ENDROOT
BRANCH   1   3
ATOM      3  C   UNL     1       2.954   4.499  19.783  0.00  0.00    +0.000 A 
ATOM      4  N   UNL     1       1.658   4.241  19.456  0.00  0.00    +0.000 NA
ATOM      5  C   UNL     1       1.414   3.785  18.215  0.00  0.00    +0.000 A 
ATOM      6  N   UNL     1       2.290   3.783  17.195  0.00  0.00    +0.000 NA
ATOM      7  C   UNL     1       3.576   3.867  17.637  0.00  0.00    +0.000 A 
ATOM      8  C   UNL     1       3.870   3.784  19.003  0.00  0.00    +0.000 A 
ATOM      9  O   UNL     1       5.213   3.695  19.178  0.00  0.00    +0.000 OA
ATOM     10  C   UNL     1       5.730   4.322  18.093  0.00  0.00    +0.000 A 
ATOM     11  C   UNL     1       6.999   4.873  18.101  0.00  0.00    +0.000 A 
ATOM     12  C   UNL     1       7.169   5.932  17.215  0.00  0.00    +0.000 A 
ATOM     13  C   UNL     1       6.188   6.255  16.267  0.00  0.00    +0.000 A 
ATOM     14  C   UNL     1       4.997   5.510  16.146  0.00  0.00    +0.000 A 
ATOM     15  C   UNL     1       4.738   4.546  17.140  0.00  0.00    +0.000 A 
ENDBRANCH   1   3
BRANCH   1  19
ATOM     16  C   UNL     1       1.056   9.267  18.756  0.00  0.00    +0.000 A 
ATOM     17  C   UNL     1       1.882   8.552  17.876  0.00  0.00    +0.000 A 
ATOM     18  C   UNL     1       2.612   7.434  18.321  0.00  0.00    +0.000 A 
ATOM     19  C   UNL     1       2.563   7.023  19.663  0.00  0.00    +0.000 A 
ATOM     20  C   UNL     1       1.738   7.737  20.530  0.00  0.00    +0.000 A 
ATOM     21  C   UNL     1       1.014   8.855  20.092  0.00  0.00    +0.000 A 
BRANCH  16  22
ATOM     22  C   UNL     1       0.296  10.513  18.359  0.00  0.00    +0.000 C 
BRANCH  22  23
ATOM     23  C   UNL     1      -1.222  10.403  18.429  0.00  0.00    +0.000 C 
BRANCH  23  25
ATOM     24  N   UNL     1      -1.188  12.652  17.551  0.00  0.00    +0.000 N 
ATOM     25  C   UNL     1      -1.887  11.472  17.584  0.00  0.00    +0.000 C 
ATOM     26  O   UNL     1      -2.929  11.346  16.981  0.00  0.00    +0.000 OA
ATOM     27  H   UNL     1      -1.585  13.417  17.014  0.00  0.00    +0.000 HD
ATOM     28  H   UNL     1      -0.322  12.805  18.057  0.00  0.00    +0.000 HD
ENDBRANCH  23  25
ENDBRANCH  22  23
ENDBRANCH  16  22
ENDBRANCH   1  19
TORSDOF 5
ENDMDL
MODEL 3
REMARK VINA RESULT:      -8.5      1.637      1.787
REMARK  Name = 
REMARK  5 active torsions:
REMARK  status: ('A' for Active; 'I' for Inactive)
REMARK    1  A    between atoms: C_2  and  C_4
REMARK    2  A    between atoms: C_4  and  C_5
REMARK    3  A    between atoms: C_5  and  C_6
REMARK    4  A    between atoms: C_9  and  N_10
REMARK    5  A    between atoms: N_10  and  C_11
REMARK                            x       y       z     vdW  Elec       q    Type
REMARK                         _______ _______ _______ _____ _____    ______ ____
ROOT
ATOM      1  N   UNL     1       3.116   5.708  20.244  0.00  0.00    +0.000 N 
ATOM      2  H   UNL     1       3.044   5.666  21.262  0.00  0.00    +0.000 HD
ENDROOT
BRANCH   1   3
ATOM      3  C   UNL     1       2.848   4.356  19.836  0.00  0.00    +0.000 A 
ATOM      4  N   UNL     1       1.565   4.094  19.461  0.00  0.00    +0.000 NA
ATOM      5  C   UNL     1       1.360   3.701  18.192  0.00  0.00    +0.000 A 
ATOM      6  N   UNL     1       2.262   3.769  17.197  0.00  0.00    +0.000 NA
ATOM      7  C   UNL     1       3.534   3.850  17.676  0.00  0.00    +0.000 A 
ATOM      8  C   UNL     1       3.795   3.699  19.043  0.00  0.00    +0.000 A 
ATOM      9  O   UNL     1       5.135   3.622  19.248  0.00  0.00    +0.000 OA
ATOM     10  C   UNL     1       5.667   4.315  18.211  0.00  0.00    +0.000 A 
ATOM     11  C   UNL     1       6.926   4.886  18.282  0.00  0.00    +0.000 A 
ATOM     12  C   UNL     1       7.100   5.993  17.459  0.00  0.00    +0.000 A 
ATOM     13  C   UNL     1       6.137   6.350  16.504  0.00  0.00    +0.000 A 
ATOM     14  C   UNL     1       4.963   5.594  16.313  0.00  0.00    +0.000 A 
ATOM     15  C   UNL     1       4.696   4.574  17.246  0.00  0.00    +0.000 A 
ENDBRANCH   1   3
BRANCH   1  19
ATOM     16  C   UNL     1       1.260   9.310  18.896  0.00  0.00    +0.000 A 
ATOM     17  C   UNL     1       1.083   8.864  20.214  0.00  0.00    +0.000 A 
ATOM     18  C   UNL     1       1.689   7.674  20.660  0.00  0.00    +0.000 A 
ATOM     19  C   UNL     1       2.458   6.882  19.790  0.00  0.00    +0.000 A 
ATOM     20  C   UNL     1       2.630   7.335  18.483  0.00  0.00    +0.000 A 
ATOM     21  C   UNL     1       2.024   8.515  18.034  0.00  0.00    +0.000 A 
BRANCH  16  22
ATOM     22  C   UNL     1       0.586  10.544  18.336  0.00  0.00    +0.000 C 
BRANCH  22  23
ATOM     23  C   UNL     1       0.740  11.808  19.171  0.00  0.00    +0.000 C 
BRANCH  23  25
ATOM     24  N   UNL     1       2.454  12.272  17.536  0.00  0.00    +0.000 N 
ATOM     25  C   UNL     1       1.610  12.828  18.463  0.00  0.00    +0.000 C 
ATOM     26  O   UNL     1       1.598  14.023  18.661  0.00  0.00    +0.000 OA
ATOM     27  H   UNL     1       3.077  12.898  17.035  0.00  0.00    +0.000 HD
ATOM     28  H   UNL     1       2.510  11.275  17.354  0.00  0.00    +0.000 HD
ENDBRANCH  23  25
ENDBRANCH  22  23
ENDBRANCH  16  22
ENDBRANCH   1  19
TORSDOF 5
ENDMDL
MODEL 4
REMARK VINA RESULT:      -8.5      1.150      1.547
REMARK  Name = 
REMARK  5 active torsions:
REMARK  status: ('A' for Active; 'I' for Inactive)
REMARK    1  A    between atoms: C_2  and  C_4
REMARK    2  A    between atoms: C_4  and  C_5
REMARK    3  A    between atoms: C_5  and  C_6
REMARK    4  A    between atoms: C_9  and  N_10
REMARK    5  A    between atoms: N_10  and  C_11
REMARK                            x       y       z     vdW  Elec       q    Type
REMARK                         _______ _______ _______ _____ _____    ______ ____
ROOT
ATOM      1  N   UNL     1       3.239   5.892  20.117  0.00  0.00    +0.000 N 
ATOM      2  H   UNL     1       3.229   5.910  21.139  0.00  0.00    +0.000 HD
ENDROOT
BRANCH   1   3
ATOM      3  C   UNL     1       2.940   4.521  19.806  0.00  0.00    +0.000 A 
ATOM      4  N   UNL     1       1.645   4.260  19.474  0.00  0.00    +0.000 NA
ATOM      5  C   UNL     1       1.409   3.788  18.237  0.00  0.00    +0.000 A 
ATOM      6  N   UNL     1       2.291   3.772  17.223  0.00  0.00    +0.000 NA
ATOM      7  C   UNL     1       3.574   3.861  17.672  0.00  0.00    +0.000 A 
ATOM      8  C   UNL     1       3.860   3.796  19.041  0.00  0.00    +0.000 A 
ATOM      9  O   UNL     1       5.202   3.707  19.226  0.00  0.00    +0.000 OA
ATOM     10  C   UNL     1       5.726   4.319  18.136  0.00  0.00    +0.000 A 
ATOM     11  C   UNL     1       6.996   4.869  18.145  0.00  0.00    +0.000 A 
ATOM     12  C   UNL     1       7.172   5.916  17.246  0.00  0.00    +0.000 A 
ATOM     13  C   UNL     1       6.197   6.228  16.288  0.00  0.00    +0.000 A 
ATOM     14  C   UNL     1       5.007   5.483  16.169  0.00  0.00    +0.000 A 
ATOM     15  C   UNL     1       4.740   4.532  17.173  0.00  0.00    +0.000 A 
ENDBRANCH   1   3
BRANCH   1  19
ATOM     16  C   UNL     1       1.086   9.279  18.660  0.00  0.00    +0.000 A 
ATOM     17  C   UNL     1       1.929   8.548  17.810  0.00  0.00    +0.000 A 
ATOM     18  C   UNL     1       2.644   7.435  18.289  0.00  0.00    +0.000 A 
ATOM     19  C   UNL     1       2.563   7.045  19.636  0.00  0.00    +0.000 A 
ATOM     20  C   UNL     1       1.721   7.776  20.473  0.00  0.00    +0.000 A 
ATOM     21  C   UNL     1       1.012   8.889  20.001  0.00  0.00    +0.000 A 
BRANCH  16  22
ATOM     22  C   UNL     1       0.340  10.522  18.226  0.00  0.00    +0.000 C 
BRANCH  22  23
ATOM     23  C   UNL     1       0.482  11.726  19.147  0.00  0.00    +0.000 C 
BRANCH  23  25
ATOM     24  N   UNL     1      -1.033  12.744  17.567  0.00  0.00    +0.000 N 
ATOM     25  C   UNL     1      -0.589  12.761  18.864  0.00  0.00    +0.000 C 
ATOM     26  O   UNL     1      -1.040  13.545  19.669  0.00  0.00    +0.000 OA
ATOM     27  H   UNL     1      -1.741  13.422  17.304  0.00  0.00    +0.000 HD
ATOM     28  H   UNL     1      -0.667  12.117  16.857  0.00  0.00    +0.000 HD
ENDBRANCH  23  25
ENDBRANCH  22  23
ENDBRANCH  16  22
ENDBRANCH   1  19
TORSDOF 5
ENDMDL
MODEL 5
REMARK VINA RESULT:      -8.4      1.698      2.095
REMARK  Name = 
REMARK  5 active torsions:
REMARK  status: ('A' for Active; 'I' for Inactive)
REMARK    1  A    between atoms: C_2  and  C_4
REMARK    2  A    between atoms: C_4  and  C_5
REMARK    3  A    between atoms: C_5  and  C_6
REMARK    4  A    between atoms: C_9  and  N_10
REMARK    5  A    between atoms: N_10  and  C_11
REMARK                            x       y       z     vdW  Elec       q    Type
REMARK                         _______ _______ _______ _____ _____    ______ ____
ROOT
ATOM      1  N   UNL     1       3.173   5.907  20.177  0.00  0.00    +0.000 N 
ATOM      2  H   UNL     1       3.115   5.915  21.198  0.00  0.00    +0.000 HD
ENDROOT
BRANCH   1   3
ATOM      3  C   UNL     1       2.870   4.542  19.839  0.00  0.00    +0.000 A 
ATOM      4  N   UNL     1       1.580   4.296  19.478  0.00  0.00    +0.000 NA
ATOM      5  C   UNL     1       1.365   3.843  18.230  0.00  0.00    +0.000 A 
ATOM      6  N   UNL     1       2.267   3.836  17.233  0.00  0.00    +0.000 NA
ATOM      7  C   UNL     1       3.541   3.909  17.709  0.00  0.00    +0.000 A 
ATOM      8  C   UNL     1       3.799   3.822  19.082  0.00  0.00    +0.000 A 
ATOM      9  O   UNL     1       5.137   3.721  19.291  0.00  0.00    +0.000 OA
ATOM     10  C   UNL     1       5.686   4.345  18.221  0.00  0.00    +0.000 A 
ATOM     11  C   UNL     1       6.960   4.886  18.263  0.00  0.00    +0.000 A 
ATOM     12  C   UNL     1       7.161   5.945  17.384  0.00  0.00    +0.000 A 
ATOM     13  C   UNL     1       6.208   6.278  16.412  0.00  0.00    +0.000 A 
ATOM     14  C   UNL     1       5.015   5.543  16.259  0.00  0.00    +0.000 A 
ATOM     15  C   UNL     1       4.721   4.580  17.243  0.00  0.00    +0.000 A 
ENDBRANCH   1   3
BRANCH   1  19
ATOM     16  C   UNL     1       1.131   9.336  18.659  0.00  0.00    +0.000 A 
ATOM     17  C   UNL     1       1.977   8.583  17.832  0.00  0.00    +0.000 A 
ATOM     18  C   UNL     1       2.656   7.456  18.331  0.00  0.00    +0.000 A 
ATOM     19  C   UNL     1       2.533   7.072  19.677  0.00  0.00    +0.000 A 
ATOM     20  C   UNL     1       1.689   7.825  20.491  0.00  0.00    +0.000 A 
ATOM     21  C   UNL     1       1.016   8.952  19.999  0.00  0.00    +0.000 A 
BRANCH  16  22
ATOM     22  C   UNL     1       0.424  10.594  18.204  0.00  0.00    +0.000 C 
BRANCH  22  23
ATOM     23  C   UNL     1       0.598  11.807  19.108  0.00  0.00    +0.000 C 
BRANCH  23  25
ATOM     24  N   UNL     1       2.337  12.401  17.542  0.00  0.00    +0.000 N 
ATOM     25  C   UNL     1       1.921  12.499  18.845  0.00  0.00    +0.000 C 
ATOM     26  O   UNL     1       2.582  13.091  19.670  0.00  0.00    +0.000 OA
ATOM     27  H   UNL     1       3.224  12.831  17.299  0.00  0.00    +0.000 HD
ATOM     28  H   UNL     1       1.823  11.897  16.826  0.00  0.00    +0.000 HD
ENDBRANCH  23  25
ENDBRANCH  22  23
ENDBRANCH  16  22
ENDBRANCH   1  19
TORSDOF 5
ENDMDL
MODEL 6
REMARK VINA RESULT:      -8.3      1.649      3.431
REMARK  Name = 
REMARK  5 active torsions:
REMARK  status: ('A' for Active; 'I' for Inactive)
REMARK    1  A    between atoms: C_2  and  C_4
REMARK    2  A    between atoms: C_4  and  C_5
REMARK    3  A    between atoms: C_5  and  C_6
REMARK    4  A    between atoms: C_9  and  N_10
REMARK    5  A    between atoms: N_10  and  C_11
REMARK                            x       y       z     vdW  Elec       q    Type
REMARK                         _______ _______ _______ _____ _____    ______ ____
ROOT
ATOM      1  N   UNL     1       3.335   6.457  18.636  0.00  0.00    +0.000 N 
ATOM      2  H   UNL     1       3.213   5.791  19.403  0.00  0.00    +0.000 HD
ENDROOT
BRANCH   1   3
ATOM      3  C   UNL     1       3.379   5.616  17.471  0.00  0.00    +0.000 A 
ATOM      4  N   UNL     1       4.567   5.591  16.806  0.00  0.00    +0.000 NA
ATOM      5  C   UNL     1       5.209   4.411  16.733  0.00  0.00    +0.000 A 
ATOM      6  N   UNL     1       4.912   3.314  17.451  0.00  0.00    +0.000 NA
ATOM      7  C   UNL     1       3.637   3.355  17.928  0.00  0.00    +0.000 A 
ATOM      8  C   UNL     1       2.755   4.366  17.528  0.00  0.00    +0.000 A 
ATOM      9  O   UNL     1       1.504   4.085  17.973  0.00  0.00    +0.000 OA
ATOM     10  C   UNL     1       1.709   3.336  19.085  0.00  0.00    +0.000 A 
ATOM     11  C   UNL     1       0.764   3.244  20.091  0.00  0.00    +0.000 A 
ATOM     12  C   UNL     1       1.291   2.967  21.348  0.00  0.00    +0.000 A 
ATOM     13  C   UNL     1       2.637   2.614  21.513  0.00  0.00    +0.000 A 
ATOM     14  C   UNL     1       3.515   2.497  20.416  0.00  0.00    +0.000 A 
ATOM     15  C   UNL     1       3.042   2.935  19.164  0.00  0.00    +0.000 A 
ENDBRANCH   1   3
BRANCH   1  19
ATOM     16  C   UNL     1       0.864   9.871  19.324  0.00  0.00    +0.000 A 
ATOM     17  C   UNL     1       1.052   8.910  20.328  0.00  0.00    +0.000 A 
ATOM     18  C   UNL     1       1.861   7.781  20.103  0.00  0.00    +0.000 A 
ATOM     19  C   UNL     1       2.475   7.565  18.858  0.00  0.00    +0.000 A 
ATOM     20  C   UNL     1       2.285   8.527  17.866  0.00  0.00    +0.000 A 
ATOM     21  C   UNL     1       1.475   9.649  18.085  0.00  0.00    +0.000 A 
BRANCH  16  22
ATOM     22  C   UNL     1      -0.043  11.072  19.479  0.00  0.00    +0.000 C 
BRANCH  22  23
ATOM     23  C   UNL     1      -1.502  10.842  19.111  0.00  0.00    +0.000 C 
BRANCH  23  25
ATOM     24  N   UNL     1      -1.348  12.492  17.355  0.00  0.00    +0.000 N 
ATOM     25  C   UNL     1      -1.770  11.225  17.669  0.00  0.00    +0.000 C 
ATOM     26  O   UNL     1      -2.300  10.519  16.840  0.00  0.00    +0.000 OA
ATOM     27  H   UNL     1      -1.510  12.818  16.408  0.00  0.00    +0.000 HD
ATOM     28  H   UNL     1      -0.919  13.122  18.025  0.00  0.00    +0.000 HD
ENDBRANCH  23  25
ENDBRANCH  22  23
ENDBRANCH  16  22
ENDBRANCH   1  19
TORSDOF 5
ENDMDL
MODEL 7
REMARK VINA RESULT:      -8.3      1.389      1.448
REMARK  Name = 
REMARK  5 active torsions:
REMARK  status: ('A' for Active; 'I' for Inactive)
REMARK    1  A    between atoms: C_2  and  C_4
REMARK    2  A    between atoms: C_4  and  C_5
REMARK    3  A    between atoms: C_5  and  C_6
REMARK    4  A    between atoms: C_9  and  N_10
REMARK    5  A    between atoms: N_10  and  C_11
REMARK                            x       y       z     vdW  Elec       q    Type
REMARK                         _______ _______ _______ _____ _____    ______ ____
ROOT
ATOM      1  N   UNL     1       3.288   6.253  19.446  0.00  0.00    +0.000 N 
ATOM      2  H   UNL     1       3.902   6.391  20.251  0.00  0.00    +0.000 HD
ENDROOT
BRANCH   1   3
ATOM      3  C   UNL     1       2.957   4.856  19.516  0.00  0.00    +0.000 A 
ATOM      4  N   UNL     1       1.659   4.542  19.251  0.00  0.00    +0.000 NA
ATOM      5  C   UNL     1       1.419   3.756  18.187  0.00  0.00    +0.000 A 
ATOM      6  N   UNL     1       2.308   3.445  17.227  0.00  0.00    +0.000 NA
ATOM      7  C   UNL     1       3.590   3.625  17.652  0.00  0.00    +0.000 A 
ATOM      8  C   UNL     1       3.864   3.930  18.990  0.00  0.00    +0.000 A 
ATOM      9  O   UNL     1       5.203   3.866  19.209  0.00  0.00    +0.000 OA
ATOM     10  C   UNL     1       5.748   4.146  18.000  0.00  0.00    +0.000 A 
ATOM     11  C   UNL     1       7.031   4.651  17.876  0.00  0.00    +0.000 A 
ATOM     12  C   UNL     1       7.239   5.409  16.728  0.00  0.00    +0.000 A 
ATOM     13  C   UNL     1       6.279   5.468  15.709  0.00  0.00    +0.000 A 
ATOM     14  C   UNL     1       5.071   4.745  15.782  0.00  0.00    +0.000 A 
ATOM     15  C   UNL     1       4.775   4.110  17.004  0.00  0.00    +0.000 A 
ENDBRANCH   1   3
BRANCH   1  19
ATOM     16  C   UNL     1       0.668   9.619  19.240  0.00  0.00    +0.000 A 
ATOM     17  C   UNL     1       0.857   8.932  20.448  0.00  0.00    +0.000 A 
ATOM     18  C   UNL     1       1.715   7.819  20.518  0.00  0.00    +0.000 A 
ATOM     19  C   UNL     1       2.380   7.343  19.376  0.00  0.00    +0.000 A 
ATOM     20  C   UNL     1       2.189   8.033  18.180  0.00  0.00    +0.000 A 
ATOM     21  C   UNL     1       1.330   9.138  18.105  0.00  0.00    +0.000 A 
BRANCH  16  22
ATOM     22  C   UNL     1      -0.288  10.781  19.083  0.00  0.00    +0.000 C 
BRANCH  22  23
ATOM     23  C   UNL     1       0.330  12.163  19.248  0.00  0.00    +0.000 C 
BRANCH  23  25
ATOM     24  N   UNL     1      -1.176  12.630  17.421  0.00  0.00    +0.000 N 
ATOM     25  C   UNL     1      -0.386  13.189  18.392  0.00  0.00    +0.000 C 
ATOM     26  O   UNL     1      -0.302  14.391  18.514  0.00  0.00    +0.000 OA
ATOM     27  H   UNL     1      -1.675  13.261  16.801  0.00  0.00    +0.000 HD
ATOM     28  H   UNL     1      -1.259  11.629  17.272  0.00  0.00    +0.000 HD
ENDBRANCH  23  25
ENDBRANCH  22  23
ENDBRANCH  16  22
ENDBRANCH   1  19
TORSDOF 5
ENDMDL
MODEL 8
REMARK VINA RESULT:      -8.2      1.671      3.561
REMARK  Name = 
REMARK  5 active torsions:
REMARK  status: ('A' for Active; 'I' for Inactive)
REMARK    1  A    between atoms: C_2  and  C_4
REMARK    2  A    between atoms: C_4  and  C_5
REMARK    3  A    between atoms: C_5  and  C_6
REMARK    4  A    between atoms: C_9  and  N_10
REMARK    5  A    between atoms: N_10  and  C_11
REMARK                            x       y       z     vdW  Elec       q    Type
REMARK                         _______ _______ _______ _____ _____    ______ ____
ROOT
ATOM      1  N   UNL     1       3.121   6.563  18.804  0.00  0.00    +0.000 N 
ATOM      2  H   UNL     1       2.762   5.894  19.489  0.00  0.00    +0.000 HD
ENDROOT
BRANCH   1   3
ATOM      3  C   UNL     1       3.291   5.765  17.620  0.00  0.00    +0.000 A 
ATOM      4  N   UNL     1       4.507   5.858  17.015  0.00  0.00    +0.000 NA
ATOM      5  C   UNL     1       5.248   4.739  16.943  0.00  0.00    +0.000 A 
ATOM      6  N   UNL     1       5.011   3.599  17.615  0.00  0.00    +0.000 NA
ATOM      7  C   UNL     1       3.715   3.520  18.028  0.00  0.00    +0.000 A 
ATOM      8  C   UNL     1       2.772   4.466  17.612  0.00  0.00    +0.000 A 
ATOM      9  O   UNL     1       1.529   4.070  17.986  0.00  0.00    +0.000 OA
ATOM     10  C   UNL     1       1.743   3.306  19.085  0.00  0.00    +0.000 A 
ATOM     11  C   UNL     1       0.761   3.105  20.040  0.00  0.00    +0.000 A 
ATOM     12  C   UNL     1       1.248   2.833  21.314  0.00  0.00    +0.000 A 
ATOM     13  C   UNL     1       2.610   2.588  21.537  0.00  0.00    +0.000 A 
ATOM     14  C   UNL     1       3.547   2.578  20.483  0.00  0.00    +0.000 A 
ATOM     15  C   UNL     1       3.099   3.014  19.221  0.00  0.00    +0.000 A 
ENDBRANCH   1   3
BRANCH   1  19
ATOM     16  C   UNL     1       0.787  10.123  19.133  0.00  0.00    +0.000 A 
ATOM     17  C   UNL     1       1.475   9.826  17.948  0.00  0.00    +0.000 A 
ATOM     18  C   UNL     1       2.250   8.657  17.838  0.00  0.00    +0.000 A 
ATOM     19  C   UNL     1       2.384   7.771  18.921  0.00  0.00    +0.000 A 
ATOM     20  C   UNL     1       1.693   8.073  20.094  0.00  0.00    +0.000 A 
ATOM     21  C   UNL     1       0.926   9.240  20.209  0.00  0.00    +0.000 A 
BRANCH  16  22
ATOM     22  C   UNL     1      -0.011  11.393  19.338  0.00  0.00    +0.000 C 
BRANCH  22  23
ATOM     23  C   UNL     1      -1.524  11.230  19.293  0.00  0.00    +0.000 C 
BRANCH  23  25
ATOM     24  N   UNL     1      -1.876  12.065  17.056  0.00  0.00    +0.000 N 
ATOM     25  C   UNL     1      -2.005  10.975  17.878  0.00  0.00    +0.000 C 
ATOM     26  O   UNL     1      -2.463   9.932  17.467  0.00  0.00    +0.000 OA
ATOM     27  H   UNL     1      -2.193  11.969  16.096  0.00  0.00    +0.000 HD
ATOM     28  H   UNL     1      -1.516  12.962  17.366  0.00  0.00    +0.000 HD
ENDBRANCH  23  25
ENDBRANCH  22  23
ENDBRANCH  16  22
ENDBRANCH   1  19
TORSDOF 5
ENDMDL
MODEL 9
REMARK VINA RESULT:      -8.2      1.201      1.556
REMARK  Name = 
REMARK  5 active torsions:
REMARK  status: ('A' for Active; 'I' for Inactive)
REMARK    1  A    between atoms: C_2  and  C_4
REMARK    2  A    between atoms: C_4  and  C_5
REMARK    3  A    between atoms: C_5  and  C_6
REMARK    4  A    between atoms: C_9  and  N_10
REMARK    5  A    between atoms: N_10  and  C_11
REMARK                            x       y       z     vdW  Elec       q    Type
REMARK                         _______ _______ _______ _____ _____    ______ ____
ROOT
ATOM      1  N   UNL     1       3.270   6.396  18.851  0.00  0.00    +0.000 N 
ATOM      2  H   UNL     1       4.171   6.559  19.305  0.00  0.00    +0.000 HD
ENDROOT
BRANCH   1   3
ATOM      3  C   UNL     1       2.986   5.021  19.160  0.00  0.00    +0.000 A 
ATOM      4  N   UNL     1       1.705   4.618  18.937  0.00  0.00    +0.000 NA
ATOM      5  C   UNL     1       1.512   3.650  18.024  0.00  0.00    +0.000 A 
ATOM      6  N   UNL     1       2.429   3.211  17.144  0.00  0.00    +0.000 NA
ATOM      7  C   UNL     1       3.695   3.510  17.546  0.00  0.00    +0.000 A 
ATOM      8  C   UNL     1       3.934   4.052  18.815  0.00  0.00    +0.000 A 
ATOM      9  O   UNL     1       5.269   4.077  19.058  0.00  0.00    +0.000 OA
ATOM     10  C   UNL     1       5.828   4.163  17.825  0.00  0.00    +0.000 A 
ATOM     11  C   UNL     1       7.095   4.685  17.631  0.00  0.00    +0.000 A 
ATOM     12  C   UNL     1       7.298   5.240  16.371  0.00  0.00    +0.000 A 
ATOM     13  C   UNL     1       6.355   5.085  15.346  0.00  0.00    +0.000 A 
ATOM     14  C   UNL     1       5.172   4.341  15.529  0.00  0.00    +0.000 A 
ATOM     15  C   UNL     1       4.874   3.918  16.839  0.00  0.00    +0.000 A 
ENDBRANCH   1   3
BRANCH   1  19
ATOM     16  C   UNL     1       0.635   9.678  19.572  0.00  0.00    +0.000 A 
ATOM     17  C   UNL     1       1.187   9.470  18.300  0.00  0.00    +0.000 A 
ATOM     18  C   UNL     1       2.060   8.393  18.060  0.00  0.00    +0.000 A 
ATOM     19  C   UNL     1       2.431   7.516  19.094  0.00  0.00    +0.000 A 
ATOM     20  C   UNL     1       1.876   7.729  20.354  0.00  0.00    +0.000 A 
ATOM     21  C   UNL     1       1.011   8.805  20.598  0.00  0.00    +0.000 A 
BRANCH  16  22
ATOM     22  C   UNL     1      -0.258  10.852  19.911  0.00  0.00    +0.000 C 
BRANCH  22  23
ATOM     23  C   UNL     1      -1.488  11.015  19.028  0.00  0.00    +0.000 C 
BRANCH  23  25
ATOM     24  N   UNL     1      -1.943  11.975  16.860  0.00  0.00    +0.000 N 
ATOM     25  C   UNL     1      -1.320  12.174  18.066  0.00  0.00    +0.000 C 
ATOM     26  O   UNL     1      -0.708  13.194  18.292  0.00  0.00    +0.000 OA
ATOM     27  H   UNL     1      -1.858  12.707  16.162  0.00  0.00    +0.000 HD
ATOM     28  H   UNL     1      -2.448  11.127  16.623  0.00  0.00    +0.000 HD
ENDBRANCH  23  25
ENDBRANCH  22  23
ENDBRANCH  16  22
ENDBRANCH   1  19
TORSDOF 5
ENDMDL
