MODEL 1
REMARK VINA RESULT:      -9.0      0.000      0.000
REMARK  Name = 
REMARK  6 active torsions:
REMARK  status: ('A' for Active; 'I' for Inactive)
REMARK    1  A    between atoms: C_1  and  C_2
REMARK    2  A    between atoms: C_5  and  C_6
REMARK    3  A    between atoms: C_12  and  C_13
REMARK    4  A    between atoms: N_15  and  C_16
REMARK    5  A    between atoms: C_20  and  S_21
REMARK    6  A    between atoms: S_21  and  N_24
REMARK                            x       y       z     vdW  Elec       q    Type
REMARK                         _______ _______ _______ _____ _____    ______ ____
ROOT
ATOM      1  C   UNL     1       2.437   5.182  19.340  0.00  0.00    +0.000 C 
ATOM      2  O   UNL     1       1.596   4.961  18.478  0.00  0.00    +0.000 OA
ATOM      3  N   UNL     1       2.746   6.442  19.847  0.00  0.00    +0.000 N 
ATOM      4  H   UNL     1       3.563   6.517  20.440  0.00  0.00    +0.000 HD
ENDROOT
BRANCH   1  10
ATOM      5  C   UNL     1       1.642   2.822  21.545  0.00  0.00    +0.000 C 
ATOM      6  C   UNL     1       2.848   3.096  20.740  0.00  0.00    +0.000 A 
ATOM      7  O   UNL     1       3.830   2.162  20.815  0.00  0.00    +0.000 OA
ATOM      8  N   UNL     1       4.871   2.507  19.984  0.00  0.00    +0.000 NA
ATOM      9  C   UNL     1       4.528   3.668  19.401  0.00  0.00    +0.000 A 
ATOM     10  C   UNL     1       3.222   4.072  19.842  0.00  0.00    +0.000 A 
BRANCH   9  11
ATOM     11  C   UNL     1       5.449   4.343  18.473  0.00  0.00    +0.000 A 
ATOM     12  C   UNL     1       6.464   5.182  18.955  0.00  0.00    +0.000 A 
ATOM     13  C   UNL     1       7.340   5.826  18.071  0.00  0.00    +0.000 A 
ATOM     14  C   UNL     1       7.215   5.638  16.697  0.00  0.00    +0.000 A 
ATOM     15  C   UNL     1       6.208   4.815  16.203  0.00  0.00    +0.000 A 
ATOM     16  C   UNL     1       5.324   4.182  17.083  0.00  0.00    +0.000 A 
ENDBRANCH   9  11
ENDBRANCH   1  10
BRANCH   3  17
ATOM     17  C   UNL     1       2.168   7.658  19.384  0.00  0.00    +0.000 A 
ATOM     18  C   UNL     1       2.314   8.097  18.060  0.00  0.00    +0.000 A 
ATOM     19  C   UNL     1       1.911   9.369  17.661  0.00  0.00    +0.000 A 
ATOM     20  C   UNL     1       1.283  10.205  18.569  0.00  0.00    +0.000 A 
ATOM     21  C   UNL     1       1.001   9.734  19.853  0.00  0.00    +0.000 A 
ATOM     22  C   UNL     1       1.464   8.475  20.280  0.00  0.00    +0.000 A 
BRANCH  21  23
ATOM     23  S   UNL     1       0.136  10.820  20.974  0.00  0.00    +0.000 S 
ATOM     24  O   UNL     1      -0.784  10.004  21.733  0.00  0.00    +0.000 OA
ATOM     25  O   UNL     1       1.135  11.636  21.636  0.00  0.00    +0.000 OA
BRANCH  23  26
ATOM     26  N   UNL     1      -0.764  11.825  19.959  0.00  0.00    +0.000 NA
ATOM     27  C   UNL     1      -1.037  13.212  20.361  0.00  0.00    +0.000 C 
ATOM     28  C   UNL     1      -2.537  13.253  20.569  0.00  0.00    +0.000 C 
ATOM     29  C   UNL     1      -3.086  12.272  19.545  0.00  0.00    +0.000 C 
ATOM     30  C   UNL     1      -1.952  11.289  19.261  0.00  0.00    +0.000 C 
ENDBRANCH  23  26
ENDBRANCH  21  23
ENDBRANCH   3  17
TORSDOF 5
ENDMDL
MODEL 2
REMARK VINA RESULT:      -8.8      0.554      1.242
REMARK  Name = 
REMARK  6 active torsions:
REMARK  status: ('A' for Active; 'I' for Inactive)
REMARK    1  A    between atoms: C_1  and  C_2
REMARK    2  A    between atoms: C_5  and  C_6
REMARK    3  A    between atoms: C_12  and  C_13
REMARK    4  A    between atoms: N_15  and  C_16
REMARK    5  A    between atoms: C_20  and  S_21
REMARK    6  A    between atoms: S_21  and  N_24
REMARK                            x       y       z     vdW  Elec       q    Type
REMARK                         _______ _______ _______ _____ _____    ______ ____
ROOT
ATOM      1  C   UNL     1       2.441   5.146  19.427  0.00  0.00    +0.000 C 
ATOM      2  O   UNL     1       1.555   4.940  18.608  0.00  0.00    +0.000 OA
ATOM      3  N   UNL     1       2.779   6.399  19.936  0.00  0.00    +0.000 N 
ATOM      4  H   UNL     1       3.627   6.464  20.485  0.00  0.00    +0.000 HD
ENDROOT
BRANCH   1  10
ATOM      5  C   UNL     1       1.720   2.692  21.553  0.00  0.00    +0.000 C 
ATOM      6  C   UNL     1       2.905   3.013  20.735  0.00  0.00    +0.000 A 
ATOM      7  O   UNL     1       3.901   2.089  20.755  0.00  0.00    +0.000 OA
ATOM      8  N   UNL     1       4.920   2.481  19.918  0.00  0.00    +0.000 NA
ATOM      9  C   UNL     1       4.552   3.658  19.388  0.00  0.00    +0.000 A 
ATOM     10  C   UNL     1       3.249   4.028  19.870  0.00  0.00    +0.000 A 
BRANCH   9  11
ATOM     11  C   UNL     1       5.445   4.381  18.470  0.00  0.00    +0.000 A 
ATOM     12  C   UNL     1       5.337   4.211  17.082  0.00  0.00    +0.000 A 
ATOM     13  C   UNL     1       6.189   4.899  16.207  0.00  0.00    +0.000 A 
ATOM     14  C   UNL     1       7.157   5.766  16.708  0.00  0.00    +0.000 A 
ATOM     15  C   UNL     1       7.283   5.939  18.082  0.00  0.00    +0.000 A 
ATOM     16  C   UNL     1       6.442   5.243  18.957  0.00  0.00    +0.000 A 
ENDBRANCH   9  11
ENDBRANCH   1  10
BRANCH   3  17
ATOM     17  C   UNL     1       2.180   7.621  19.522  0.00  0.00    +0.000 A 
ATOM     18  C   UNL     1       2.159   8.026  18.180  0.00  0.00    +0.000 A 
ATOM     19  C   UNL     1       1.743   9.301  17.804  0.00  0.00    +0.000 A 
ATOM     20  C   UNL     1       1.269  10.178  18.766  0.00  0.00    +0.000 A 
ATOM     21  C   UNL     1       1.149   9.745  20.088  0.00  0.00    +0.000 A 
ATOM     22  C   UNL     1       1.629   8.481  20.482  0.00  0.00    +0.000 A 
BRANCH  21  23
ATOM     23  S   UNL     1       0.477  10.884  21.286  0.00  0.00    +0.000 S 
ATOM     24  O   UNL     1       0.462  10.202  22.561  0.00  0.00    +0.000 OA
ATOM     25  O   UNL     1       1.174  12.144  21.118  0.00  0.00    +0.000 OA
BRANCH  23  26
ATOM     26  N   UNL     1      -1.122  11.105  20.789  0.00  0.00    +0.000 NA
ATOM     27  C   UNL     1      -1.477  10.930  19.374  0.00  0.00    +0.000 C 
ATOM     28  C   UNL     1      -1.881  12.316  18.916  0.00  0.00    +0.000 C 
ATOM     29  C   UNL     1      -2.518  12.947  20.143  0.00  0.00    +0.000 C 
ATOM     30  C   UNL     1      -1.916  12.222  21.344  0.00  0.00    +0.000 C 
ENDBRANCH  23  26
ENDBRANCH  21  23
ENDBRANCH   3  17
TORSDOF 5
ENDMDL
MODEL 3
REMARK VINA RESULT:      -8.8      0.882      1.538
REMARK  Name = 
REMARK  6 active torsions:
REMARK  status: ('A' for Active; 'I' for Inactive)
REMARK    1  A    between atoms: C_1  and  C_2
REMARK    2  A    between atoms: C_5  and  C_6
REMARK    3  A    between atoms: C_12  and  C_13
REMARK    4  A    between atoms: N_15  and  C_16
REMARK    5  A    between atoms: C_20  and  S_21
REMARK    6  A    between atoms: S_21  and  N_24
REMARK                            x       y       z     vdW  Elec       q    Type
REMARK                         _______ _______ _______ _____ _____    ______ ____
ROOT
ATOM      1  C   UNL     1       2.419   5.142  19.396  0.00  0.00    +0.000 C 
ATOM      2  O   UNL     1       1.502   4.896  18.624  0.00  0.00    +0.000 OA
ATOM      3  N   UNL     1       2.786   6.420  19.814  0.00  0.00    +0.000 N 
ATOM      4  H   UNL     1       3.654   6.509  20.328  0.00  0.00    +0.000 HD
ENDROOT
BRANCH   1  10
ATOM      5  C   UNL     1       1.689   2.722  21.557  0.00  0.00    +0.000 C 
ATOM      6  C   UNL     1       2.886   3.043  20.757  0.00  0.00    +0.000 A 
ATOM      7  O   UNL     1       3.893   2.134  20.814  0.00  0.00    +0.000 OA
ATOM      8  N   UNL     1       4.924   2.522  19.990  0.00  0.00    +0.000 NA
ATOM      9  C   UNL     1       4.550   3.683  19.428  0.00  0.00    +0.000 A 
ATOM     10  C   UNL     1       3.234   4.045  19.877  0.00  0.00    +0.000 A 
BRANCH   9  11
ATOM     11  C   UNL     1       5.452   4.400  18.513  0.00  0.00    +0.000 A 
ATOM     12  C   UNL     1       5.356   4.219  17.125  0.00  0.00    +0.000 A 
ATOM     13  C   UNL     1       6.215   4.900  16.253  0.00  0.00    +0.000 A 
ATOM     14  C   UNL     1       7.178   5.772  16.756  0.00  0.00    +0.000 A 
ATOM     15  C   UNL     1       7.292   5.956  18.130  0.00  0.00    +0.000 A 
ATOM     16  C   UNL     1       6.443   5.266  19.002  0.00  0.00    +0.000 A 
ENDBRANCH   9  11
ENDBRANCH   1  10
BRANCH   3  17
ATOM     17  C   UNL     1       2.183   7.621  19.348  0.00  0.00    +0.000 A 
ATOM     18  C   UNL     1       2.277   8.035  18.012  0.00  0.00    +0.000 A 
ATOM     19  C   UNL     1       1.850   9.295  17.602  0.00  0.00    +0.000 A 
ATOM     20  C   UNL     1       1.249  10.146  18.515  0.00  0.00    +0.000 A 
ATOM     21  C   UNL     1       1.018   9.699  19.818  0.00  0.00    +0.000 A 
ATOM     22  C   UNL     1       1.506   8.452  20.253  0.00  0.00    +0.000 A 
BRANCH  21  23
ATOM     23  S   UNL     1       0.187  10.801  20.948  0.00  0.00    +0.000 S 
ATOM     24  O   UNL     1      -1.231  10.553  20.821  0.00  0.00    +0.000 OA
ATOM     25  O   UNL     1       0.856  10.686  22.229  0.00  0.00    +0.000 OA
BRANCH  23  26
ATOM     26  N   UNL     1       0.509  12.340  20.332  0.00  0.00    +0.000 NA
ATOM     27  C   UNL     1       1.571  13.159  20.933  0.00  0.00    +0.000 C 
ATOM     28  C   UNL     1       0.835  14.330  21.552  0.00  0.00    +0.000 C 
ATOM     29  C   UNL     1      -0.348  14.562  20.627  0.00  0.00    +0.000 C 
ATOM     30  C   UNL     1      -0.609  13.223  19.940  0.00  0.00    +0.000 C 
ENDBRANCH  23  26
ENDBRANCH  21  23
ENDBRANCH   3  17
TORSDOF 5
ENDMDL
MODEL 4
REMARK VINA RESULT:      -8.4      1.403      1.776
REMARK  Name = 
REMARK  6 active torsions:
REMARK  status: ('A' for Active; 'I' for Inactive)
REMARK    1  A    between atoms: C_1  and  C_2
REMARK    2  A    between atoms: C_5  and  C_6
REMARK    3  A    between atoms: C_12  and  C_13
REMARK    4  A    between atoms: N_15  and  C_16
REMARK    5  A    between atoms: C_20  and  S_21
REMARK    6  A    between atoms: S_21  and  N_24
REMARK                            x       y       z     vdW  Elec       q    Type
REMARK                         _______ _______ _______ _____ _____    ______ ____
ROOT
ATOM      1  C   UNL     1       2.475   5.533  19.184  0.00  0.00    +0.000 C 
ATOM      2  O   UNL     1       1.743   5.361  18.218  0.00  0.00    +0.000 OA
ATOM      3  N   UNL     1       2.603   6.732  19.882  0.00  0.00    +0.000 N 
ATOM      4  H   UNL     1       3.351   6.797  20.561  0.00  0.00    +0.000 HD
ENDROOT
BRANCH   1  10
ATOM      5  C   UNL     1       1.697   2.722  20.782  0.00  0.00    +0.000 C 
ATOM      6  C   UNL     1       2.959   3.275  20.253  0.00  0.00    +0.000 A 
ATOM      7  O   UNL     1       4.039   2.456  20.333  0.00  0.00    +0.000 OA
ATOM      8  N   UNL     1       5.133   3.066  19.764  0.00  0.00    +0.000 NA
ATOM      9  C   UNL     1       4.723   4.272  19.340  0.00  0.00    +0.000 A 
ATOM     10  C   UNL     1       3.322   4.440  19.614  0.00  0.00    +0.000 A 
BRANCH   9  11
ATOM     11  C   UNL     1       5.668   5.209  18.713  0.00  0.00    +0.000 A 
ATOM     12  C   UNL     1       6.907   5.485  19.310  0.00  0.00    +0.000 A 
ATOM     13  C   UNL     1       7.807   6.378  18.713  0.00  0.00    +0.000 A 
ATOM     14  C   UNL     1       7.482   7.004  17.512  0.00  0.00    +0.000 A 
ATOM     15  C   UNL     1       6.254   6.747  16.911  0.00  0.00    +0.000 A 
ATOM     16  C   UNL     1       5.349   5.866  17.513  0.00  0.00    +0.000 A 
ENDBRANCH   9  11
ENDBRANCH   1  10
BRANCH   3  17
ATOM     17  C   UNL     1       1.946   7.943  19.525  0.00  0.00    +0.000 A 
ATOM     18  C   UNL     1       1.926   8.422  18.207  0.00  0.00    +0.000 A 
ATOM     19  C   UNL     1       1.448   9.693  17.896  0.00  0.00    +0.000 A 
ATOM     20  C   UNL     1       0.910  10.486  18.894  0.00  0.00    +0.000 A 
ATOM     21  C   UNL     1       0.791   9.973  20.188  0.00  0.00    +0.000 A 
ATOM     22  C   UNL     1       1.332   8.716  20.520  0.00  0.00    +0.000 A 
BRANCH  21  23
ATOM     23  S   UNL     1       0.037  11.004  21.433  0.00  0.00    +0.000 S 
ATOM     24  O   UNL     1      -1.344  11.195  21.050  0.00  0.00    +0.000 OA
ATOM     25  O   UNL     1       0.385  10.441  22.724  0.00  0.00    +0.000 OA
BRANCH  23  26
ATOM     26  N   UNL     1       0.836  12.484  21.281  0.00  0.00    +0.000 NA
ATOM     27  C   UNL     1       0.102  13.663  20.802  0.00  0.00    +0.000 C 
ATOM     28  C   UNL     1       0.737  13.980  19.463  0.00  0.00    +0.000 C 
ATOM     29  C   UNL     1       2.193  13.581  19.634  0.00  0.00    +0.000 C 
ATOM     30  C   UNL     1       2.209  12.524  20.736  0.00  0.00    +0.000 C 
ENDBRANCH  23  26
ENDBRANCH  21  23
ENDBRANCH   3  17
TORSDOF 5
ENDMDL
MODEL 5
REMARK VINA RESULT:      -8.2      1.700      2.362
REMARK  Name = 
REMARK  6 active torsions:
REMARK  status: ('A' for Active; 'I' for Inactive)
REMARK    1  A    between atoms: C_1  and  C_2
REMARK    2  A    between atoms: C_5  and  C_6
REMARK    3  A    between atoms: C_12  and  C_13
REMARK    4  A    between atoms: N_15  and  C_16
REMARK    5  A    between atoms: C_20  and  S_21
REMARK    6  A    between atoms: S_21  and  N_24
REMARK                            x       y       z     vdW  Elec       q    Type
REMARK                         _______ _______ _______ _____ _____    ______ ____
ROOT
ATOM      1  C   UNL     1       2.366   6.007  19.679  0.00  0.00    +0.000 C 
ATOM      2  O   UNL     1       2.269   6.551  18.586  0.00  0.00    +0.000 OA
ATOM      3  N   UNL     1       1.916   6.549  20.881  0.00  0.00    +0.000 N 
ATOM      4  H   UNL     1       2.190   6.079  21.734  0.00  0.00    +0.000 HD
ENDROOT
BRANCH   1  10
ATOM      5  C   UNL     1       1.283   3.070  20.801  0.00  0.00    +0.000 C 
ATOM      6  C   UNL     1       2.555   3.525  20.208  0.00  0.00    +0.000 A 
ATOM      7  O   UNL     1       3.472   2.553  19.967  0.00  0.00    +0.000 OA
ATOM      8  N   UNL     1       4.586   3.097  19.370  0.00  0.00    +0.000 NA
ATOM      9  C   UNL     1       4.354   4.415  19.252  0.00  0.00    +0.000 A 
ATOM     10  C   UNL     1       3.047   4.731  19.759  0.00  0.00    +0.000 A 
BRANCH   9  11
ATOM     11  C   UNL     1       5.374   5.309  18.685  0.00  0.00    +0.000 A 
ATOM     12  C   UNL     1       5.117   6.040  17.515  0.00  0.00    +0.000 A 
ATOM     13  C   UNL     1       6.089   6.892  16.974  0.00  0.00    +0.000 A 
ATOM     14  C   UNL     1       7.329   7.025  17.595  0.00  0.00    +0.000 A 
ATOM     15  C   UNL     1       7.603   6.301  18.750  0.00  0.00    +0.000 A 
ATOM     16  C   UNL     1       6.638   5.441  19.284  0.00  0.00    +0.000 A 
ENDBRANCH   9  11
ENDBRANCH   1  10
BRANCH   3  17
ATOM     17  C   UNL     1       1.338   7.843  21.011  0.00  0.00    +0.000 A 
ATOM     18  C   UNL     1       0.493   8.180  22.078  0.00  0.00    +0.000 A 
ATOM     19  C   UNL     1      -0.216   9.379  22.102  0.00  0.00    +0.000 A 
ATOM     20  C   UNL     1      -0.036  10.302  21.086  0.00  0.00    +0.000 A 
ATOM     21  C   UNL     1       0.907  10.047  20.088  0.00  0.00    +0.000 A 
ATOM     22  C   UNL     1       1.578   8.810  20.024  0.00  0.00    +0.000 A 
BRANCH  21  23
ATOM     23  S   UNL     1       1.155  11.288  18.830  0.00  0.00    +0.000 S 
ATOM     24  O   UNL     1       1.249  12.564  19.503  0.00  0.00    +0.000 OA
ATOM     25  O   UNL     1       2.219  10.816  17.966  0.00  0.00    +0.000 OA
BRANCH  23  26
ATOM     26  N   UNL     1      -0.282  11.265  17.943  0.00  0.00    +0.000 NA
ATOM     27  C   UNL     1      -1.301  12.297  18.178  0.00  0.00    +0.000 C 
ATOM     28  C   UNL     1      -2.474  11.538  18.765  0.00  0.00    +0.000 C 
ATOM     29  C   UNL     1      -2.416  10.177  18.090  0.00  0.00    +0.000 C 
ATOM     30  C   UNL     1      -0.960   9.978  17.676  0.00  0.00    +0.000 C 
ENDBRANCH  23  26
ENDBRANCH  21  23
ENDBRANCH   3  17
TORSDOF 5
ENDMDL
MODEL 6
REMARK VINA RESULT:      -8.1      1.811      2.285
REMARK  Name = 
REMARK  6 active torsions:
REMARK  status: ('A' for Active; 'I' for Inactive)
REMARK    1  A    between atoms: C_1  and  C_2
REMARK    2  A    between atoms: C_5  and  C_6
REMARK    3  A    between atoms: C_12  and  C_13
REMARK    4  A    between atoms: N_15  and  C_16
REMARK    5  A    between atoms: C_20  and  S_21
REMARK    6  A    between atoms: S_21  and  N_24
REMARK                            x       y       z     vdW  Elec       q    Type
REMARK                         _______ _______ _______ _____ _____    ______ ____
ROOT
ATOM      1  C   UNL     1       2.550   5.331  19.763  0.00  0.00    +0.000 C 
ATOM      2  O   UNL     1       2.361   5.075  20.945  0.00  0.00    +0.000 OA
ATOM      3  N   UNL     1       2.340   6.576  19.175  0.00  0.00    +0.000 N 
ATOM      4  H   UNL     1       2.381   6.625  18.164  0.00  0.00    +0.000 HD
ENDROOT
BRANCH   1  10
ATOM      5  C   UNL     1       0.949   2.565  18.841  0.00  0.00    +0.000 C 
ATOM      6  C   UNL     1       2.265   3.139  18.501  0.00  0.00    +0.000 A 
ATOM      7  O   UNL     1       2.966   2.478  17.544  0.00  0.00    +0.000 OA
ATOM      8  N   UNL     1       4.145   3.138  17.285  0.00  0.00    +0.000 NA
ATOM      9  C   UNL     1       4.172   4.208  18.096  0.00  0.00    +0.000 A 
ATOM     10  C   UNL     1       2.970   4.260  18.882  0.00  0.00    +0.000 A 
BRANCH   9  11
ATOM     11  C   UNL     1       5.329   5.116  18.102  0.00  0.00    +0.000 A 
ATOM     12  C   UNL     1       6.360   4.958  19.040  0.00  0.00    +0.000 A 
ATOM     13  C   UNL     1       7.462   5.823  19.047  0.00  0.00    +0.000 A 
ATOM     14  C   UNL     1       7.548   6.856  18.116  0.00  0.00    +0.000 A 
ATOM     15  C   UNL     1       6.530   7.032  17.185  0.00  0.00    +0.000 A 
ATOM     16  C   UNL     1       5.423   6.177  17.186  0.00  0.00    +0.000 A 
ENDBRANCH   9  11
ENDBRANCH   1  10
BRANCH   3  17
ATOM     17  C   UNL     1       1.811   7.707  19.857  0.00  0.00    +0.000 A 
ATOM     18  C   UNL     1       1.246   7.611  21.137  0.00  0.00    +0.000 A 
ATOM     19  C   UNL     1       0.564   8.676  21.720  0.00  0.00    +0.000 A 
ATOM     20  C   UNL     1       0.496   9.890  21.058  0.00  0.00    +0.000 A 
ATOM     21  C   UNL     1       1.172  10.049  19.846  0.00  0.00    +0.000 A 
ATOM     22  C   UNL     1       1.807   8.957  19.223  0.00  0.00    +0.000 A 
BRANCH  21  23
ATOM     23  S   UNL     1       1.110  11.647  19.054  0.00  0.00    +0.000 S 
ATOM     24  O   UNL     1       0.985  12.637  20.100  0.00  0.00    +0.000 OA
ATOM     25  O   UNL     1       2.203  11.695  18.103  0.00  0.00    +0.000 OA
BRANCH  23  26
ATOM     26  N   UNL     1      -0.336  11.616  18.182  0.00  0.00    +0.000 NA
ATOM     27  C   UNL     1      -1.423  12.538  18.540  0.00  0.00    +0.000 C 
ATOM     28  C   UNL     1      -2.528  11.634  19.047  0.00  0.00    +0.000 C 
ATOM     29  C   UNL     1      -2.383  10.364  18.223  0.00  0.00    +0.000 C 
ATOM     30  C   UNL     1      -0.922  10.321  17.778  0.00  0.00    +0.000 C 
ENDBRANCH  23  26
ENDBRANCH  21  23
ENDBRANCH   3  17
TORSDOF 5
ENDMDL
MODEL 7
REMARK VINA RESULT:      -7.9      1.977      2.704
REMARK  Name = 
REMARK  6 active torsions:
REMARK  status: ('A' for Active; 'I' for Inactive)
REMARK    1  A    between atoms: C_1  and  C_2
REMARK    2  A    between atoms: C_5  and  C_6
REMARK    3  A    between atoms: C_12  and  C_13
REMARK    4  A    between atoms: N_15  and  C_16
REMARK    5  A    between atoms: C_20  and  S_21
REMARK    6  A    between atoms: S_21  and  N_24
REMARK                            x       y       z     vdW  Elec       q    Type
REMARK                         _______ _______ _______ _____ _____    ______ ____
ROOT
ATOM      1  C   UNL     1       2.474   6.388  19.600  0.00  0.00    +0.000 C 
ATOM      2  O   UNL     1       2.592   7.049  18.577  0.00  0.00    +0.000 OA
ATOM      3  N   UNL     1       1.875   6.839  20.774  0.00  0.00    +0.000 N 
ATOM      4  H   UNL     1       1.975   6.261  21.600  0.00  0.00    +0.000 HD
ENDROOT
BRANCH   1  10
ATOM      5  C   UNL     1       1.112   3.500  20.529  0.00  0.00    +0.000 C 
ATOM      6  C   UNL     1       2.438   3.875  20.003  0.00  0.00    +0.000 A 
ATOM      7  O   UNL     1       3.281   2.844  19.741  0.00  0.00    +0.000 OA
ATOM      8  N   UNL     1       4.457   3.321  19.211  0.00  0.00    +0.000 NA
ATOM      9  C   UNL     1       4.339   4.658  19.156  0.00  0.00    +0.000 A 
ATOM     10  C   UNL     1       3.044   5.057  19.635  0.00  0.00    +0.000 A 
BRANCH   9  11
ATOM     11  C   UNL     1       5.450   5.491  18.670  0.00  0.00    +0.000 A 
ATOM     12  C   UNL     1       5.303   6.283  17.522  0.00  0.00    +0.000 A 
ATOM     13  C   UNL     1       6.362   7.076  17.059  0.00  0.00    +0.000 A 
ATOM     14  C   UNL     1       7.578   7.089  17.738  0.00  0.00    +0.000 A 
ATOM     15  C   UNL     1       7.742   6.303  18.874  0.00  0.00    +0.000 A 
ATOM     16  C   UNL     1       6.690   5.500  19.329  0.00  0.00    +0.000 A 
ENDBRANCH   9  11
ENDBRANCH   1  10
BRANCH   3  17
ATOM     17  C   UNL     1       1.373   8.158  20.964  0.00  0.00    +0.000 A 
ATOM     18  C   UNL     1       1.444   8.813  22.202  0.00  0.00    +0.000 A 
ATOM     19  C   UNL     1       0.789  10.020  22.432  0.00  0.00    +0.000 A 
ATOM     20  C   UNL     1       0.104  10.635  21.398  0.00  0.00    +0.000 A 
ATOM     21  C   UNL     1       0.139  10.071  20.121  0.00  0.00    +0.000 A 
ATOM     22  C   UNL     1       0.745   8.819  19.900  0.00  0.00    +0.000 A 
BRANCH  21  23
ATOM     23  S   UNL     1      -0.704  10.926  18.801  0.00  0.00    +0.000 S 
ATOM     24  O   UNL     1      -0.743  10.029  17.668  0.00  0.00    +0.000 OA
ATOM     25  O   UNL     1      -1.922  11.480  19.360  0.00  0.00    +0.000 OA
BRANCH  23  26
ATOM     26  N   UNL     1       0.324  12.211  18.422  0.00  0.00    +0.000 NA
ATOM     27  C   UNL     1       1.767  12.088  18.671  0.00  0.00    +0.000 C 
ATOM     28  C   UNL     1       2.046  13.106  19.758  0.00  0.00    +0.000 C 
ATOM     29  C   UNL     1       1.066  14.233  19.479  0.00  0.00    +0.000 C 
ATOM     30  C   UNL     1      -0.095  13.597  18.717  0.00  0.00    +0.000 C 
ENDBRANCH  23  26
ENDBRANCH  21  23
ENDBRANCH   3  17
TORSDOF 5
ENDMDL
MODEL 8
REMARK VINA RESULT:      -7.9      1.852      2.498
REMARK  Name = 
REMARK  6 active torsions:
REMARK  status: ('A' for Active; 'I' for Inactive)
REMARK    1  A    between atoms: C_1  and  C_2
REMARK    2  A    between atoms: C_5  and  C_6
REMARK    3  A    between atoms: C_12  and  C_13
REMARK    4  A    between atoms: N_15  and  C_16
REMARK    5  A    between atoms: C_20  and  S_21
REMARK    6  A    between atoms: S_21  and  N_24
REMARK                            x       y       z     vdW  Elec       q    Type
REMARK                         _______ _______ _______ _____ _____    ______ ____
ROOT
ATOM      1  C   UNL     1       2.436   6.192  19.735  0.00  0.00    +0.000 C 
ATOM      2  O   UNL     1       2.363   6.751  18.649  0.00  0.00    +0.000 OA
ATOM      3  N   UNL     1       2.006   6.739  20.943  0.00  0.00    +0.000 N 
ATOM      4  H   UNL     1       2.261   6.250  21.791  0.00  0.00    +0.000 HD
ENDROOT
BRANCH   1  10
ATOM      5  C   UNL     1       1.252   3.297  20.865  0.00  0.00    +0.000 C 
ATOM      6  C   UNL     1       2.532   3.703  20.255  0.00  0.00    +0.000 A 
ATOM      7  O   UNL     1       3.407   2.696  19.999  0.00  0.00    +0.000 OA
ATOM      8  N   UNL     1       4.533   3.197  19.389  0.00  0.00    +0.000 NA
ATOM      9  C   UNL     1       4.353   4.523  19.278  0.00  0.00    +0.000 A 
ATOM     10  C   UNL     1       3.066   4.890  19.803  0.00  0.00    +0.000 A 
BRANCH   9  11
ATOM     11  C   UNL     1       5.401   5.378  18.698  0.00  0.00    +0.000 A 
ATOM     12  C   UNL     1       6.665   5.467  19.298  0.00  0.00    +0.000 A 
ATOM     13  C   UNL     1       7.663   6.282  18.747  0.00  0.00    +0.000 A 
ATOM     14  C   UNL     1       7.411   7.015  17.590  0.00  0.00    +0.000 A 
ATOM     15  C   UNL     1       6.159   6.944  16.988  0.00  0.00    +0.000 A 
ATOM     16  C   UNL     1       5.158   6.141  17.544  0.00  0.00    +0.000 A 
ENDBRANCH   9  11
ENDBRANCH   1  10
BRANCH   3  17
ATOM     17  C   UNL     1       1.480   8.054  21.086  0.00  0.00    +0.000 A 
ATOM     18  C   UNL     1       1.219   8.621  22.341  0.00  0.00    +0.000 A 
ATOM     19  C   UNL     1       0.533   9.826  22.474  0.00  0.00    +0.000 A 
ATOM     20  C   UNL     1       0.155  10.527  21.341  0.00  0.00    +0.000 A 
ATOM     21  C   UNL     1       0.529  10.050  20.083  0.00  0.00    +0.000 A 
ATOM     22  C   UNL     1       1.165   8.801  19.943  0.00  0.00    +0.000 A 
BRANCH  21  23
ATOM     23  S   UNL     1       0.076  11.013  18.651  0.00  0.00    +0.000 S 
ATOM     24  O   UNL     1       0.033  12.397  19.065  0.00  0.00    +0.000 OA
ATOM     25  O   UNL     1       0.927  10.583  17.559  0.00  0.00    +0.000 OA
BRANCH  23  26
ATOM     26  N   UNL     1      -1.501  10.517  18.306  0.00  0.00    +0.000 NA
ATOM     27  C   UNL     1      -1.779   9.780  17.066  0.00  0.00    +0.000 C 
ATOM     28  C   UNL     1      -2.647  10.722  16.257  0.00  0.00    +0.000 C 
ATOM     29  C   UNL     1      -3.459  11.474  17.299  0.00  0.00    +0.000 C 
ATOM     30  C   UNL     1      -2.634  11.426  18.584  0.00  0.00    +0.000 C 
ENDBRANCH  23  26
ENDBRANCH  21  23
ENDBRANCH   3  17
TORSDOF 5
ENDMDL
MODEL 9
REMARK VINA RESULT:      -7.9      2.167      2.819
REMARK  Name = 
REMARK  6 active torsions:
REMARK  status: ('A' for Active; 'I' for Inactive)
REMARK    1  A    between atoms: C_1  and  C_2
REMARK    2  A    between atoms: C_5  and  C_6
REMARK    3  A    between atoms: C_12  and  C_13
REMARK    4  A    between atoms: N_15  and  C_16
REMARK    5  A    between atoms: C_20  and  S_21
REMARK    6  A    between atoms: S_21  and  N_24
REMARK                            x       y       z     vdW  Elec       q    Type
REMARK                         _______ _______ _______ _____ _____    ______ ____
ROOT
ATOM      1  C   UNL     1       2.942   6.016  19.298  0.00  0.00    +0.000 C 
ATOM      2  O   UNL     1       3.135   5.743  20.475  0.00  0.00    +0.000 OA
ATOM      3  N   UNL     1       2.280   7.154  18.842  0.00  0.00    +0.000 N 
ATOM      4  H   UNL     1       2.044   7.192  17.858  0.00  0.00    +0.000 HD
ENDROOT
BRANCH   1  10
ATOM      5  C   UNL     1       1.248   3.595  17.769  0.00  0.00    +0.000 C 
ATOM      6  C   UNL     1       2.632   4.095  17.657  0.00  0.00    +0.000 A 
ATOM      7  O   UNL     1       3.380   3.538  16.670  0.00  0.00    +0.000 OA
ATOM      8  N   UNL     1       4.625   4.122  16.639  0.00  0.00    +0.000 NA
ATOM      9  C   UNL     1       4.645   5.038  17.620  0.00  0.00    +0.000 A 
ATOM     10  C   UNL     1       3.372   5.070  18.288  0.00  0.00    +0.000 A 
BRANCH   9  11
ATOM     11  C   UNL     1       5.858   5.824  17.890  0.00  0.00    +0.000 A 
ATOM     12  C   UNL     1       6.765   5.425  18.883  0.00  0.00    +0.000 A 
ATOM     13  C   UNL     1       7.920   6.174  19.141  0.00  0.00    +0.000 A 
ATOM     14  C   UNL     1       8.186   7.329  18.409  0.00  0.00    +0.000 A 
ATOM     15  C   UNL     1       7.293   7.743  17.426  0.00  0.00    +0.000 A 
ATOM     16  C   UNL     1       6.132   7.003  17.177  0.00  0.00    +0.000 A 
ENDBRANCH   9  11
ENDBRANCH   1  10
BRANCH   3  17
ATOM     17  C   UNL     1       1.680   8.127  19.691  0.00  0.00    +0.000 A 
ATOM     18  C   UNL     1       1.697   8.012  21.088  0.00  0.00    +0.000 A 
ATOM     19  C   UNL     1       0.951   8.860  21.903  0.00  0.00    +0.000 A 
ATOM     20  C   UNL     1       0.225   9.892  21.334  0.00  0.00    +0.000 A 
ATOM     21  C   UNL     1       0.307  10.111  19.958  0.00  0.00    +0.000 A 
ATOM     22  C   UNL     1       1.007   9.218  19.123  0.00  0.00    +0.000 A 
BRANCH  21  23
ATOM     23  S   UNL     1      -0.595  11.489  19.271  0.00  0.00    +0.000 S 
ATOM     24  O   UNL     1      -1.056  12.292  20.381  0.00  0.00    +0.000 OA
ATOM     25  O   UNL     1       0.229  12.061  18.224  0.00  0.00    +0.000 OA
BRANCH  23  26
ATOM     26  N   UNL     1      -1.940  10.776  18.542  0.00  0.00    +0.000 NA
ATOM     27  C   UNL     1      -1.783  10.051  17.273  0.00  0.00    +0.000 C 
ATOM     28  C   UNL     1      -2.557  10.881  16.269  0.00  0.00    +0.000 C 
ATOM     29  C   UNL     1      -3.708  11.464  17.072  0.00  0.00    +0.000 C 
ATOM     30  C   UNL     1      -3.232  11.494  18.523  0.00  0.00    +0.000 C 
ENDBRANCH  23  26
ENDBRANCH  21  23
ENDBRANCH   3  17
TORSDOF 5
ENDMDL
