MODEL 1
REMARK VINA RESULT:      -7.7      0.000      0.000
REMARK  Name = 
REMARK  6 active torsions:
REMARK  status: ('A' for Active; 'I' for Inactive)
REMARK    1  A    between atoms: C_1  and  S_2
REMARK    2  A    between atoms: S_2  and  C_5
REMARK    3  A    between atoms: N_13  and  C_14
REMARK    4  A    between atoms: C_14  and  C_15
REMARK    5  A    between atoms: C_14  and  C_22
REMARK    6  A    between atoms: C_15  and  C_16
REMARK                            x       y       z     vdW  Elec       q    Type
REMARK                         _______ _______ _______ _____ _____    ______ ____
ROOT
ATOM      1  C   UNL     1       0.760   9.483  21.440  0.00  0.00    +0.000 A 
ATOM      2  C   UNL     1       0.764  10.536  20.532  0.00  0.00    +0.000 A 
ATOM      3  C   UNL     1       1.303  10.333  19.253  0.00  0.00    +0.000 A 
ATOM      4  C   UNL     1       1.790   9.097  18.842  0.00  0.00    +0.000 A 
ATOM      5  N   UNL     1       2.231   8.962  17.592  0.00  0.00    +0.000 NA
ATOM      6  C   UNL     1       2.625   7.739  17.207  0.00  0.00    +0.000 A 
ATOM      7  N   UNL     1       2.645   6.643  17.974  0.00  0.00    +0.000 NA
ATOM      8  C   UNL     1       2.209   6.782  19.239  0.00  0.00    +0.000 A 
ATOM      9  N   UNL     1       2.076   5.617  20.027  0.00  0.00    +0.000 N 
ATOM     10  C   UNL     1       1.770   8.025  19.749  0.00  0.00    +0.000 A 
ATOM     11  C   UNL     1       1.287   8.244  21.065  0.00  0.00    +0.000 A 
ATOM     12  H   UNL     1       2.316   5.816  20.992  0.00  0.00    +0.000 HD
ENDROOT
BRANCH   1  14
ATOM     13  C   UNL     1      -0.998  11.174  22.905  0.00  0.00    +0.000 C 
ATOM     14  S   UNL     1      -0.176   9.611  22.952  0.00  0.00    +0.000 S 
ATOM     15  O   UNL     1       0.782   9.661  24.043  0.00  0.00    +0.000 OA
ATOM     16  O   UNL     1      -1.184   8.572  22.904  0.00  0.00    +0.000 OA
ENDBRANCH   1  14
BRANCH   9  17
ATOM     17  C   UNL     1       2.813   4.421  19.524  0.00  0.00    +0.000 C 
BRANCH  17  18
ATOM     18  C   UNL     1       2.295   3.042  20.032  0.00  0.00    +0.000 C 
ATOM     19  F   UNL     1       2.286   2.070  19.096  0.00  0.00    +0.000 F 
ATOM     20  F   UNL     1       3.060   2.605  21.067  0.00  0.00    +0.000 F 
ATOM     21  F   UNL     1       1.026   3.127  20.512  0.00  0.00    +0.000 F 
ENDBRANCH  17  18
BRANCH  17  22
ATOM     22  C   UNL     1       4.306   4.554  19.914  0.00  0.00    +0.000 C 
BRANCH  22  23
ATOM     23  C   UNL     1       5.331   4.705  18.804  0.00  0.00    +0.000 A 
ATOM     24  C   UNL     1       6.547   5.344  19.102  0.00  0.00    +0.000 A 
ATOM     25  C   UNL     1       7.580   5.394  18.166  0.00  0.00    +0.000 A 
ATOM     26  C   UNL     1       7.412   4.810  16.914  0.00  0.00    +0.000 A 
ATOM     27  C   UNL     1       6.204   4.193  16.595  0.00  0.00    +0.000 A 
ATOM     28  C   UNL     1       5.170   4.137  17.534  0.00  0.00    +0.000 A 
ENDBRANCH  22  23
ENDBRANCH  17  22
ENDBRANCH   9  17
TORSDOF 5
ENDMDL
MODEL 2
REMARK VINA RESULT:      -7.3      4.456      8.006
REMARK  Name = 
REMARK  6 active torsions:
REMARK  status: ('A' for Active; 'I' for Inactive)
REMARK    1  A    between atoms: C_1  and  S_2
REMARK    2  A    between atoms: S_2  and  C_5
REMARK    3  A    between atoms: N_13  and  C_14
REMARK    4  A    between atoms: C_14  and  C_15
REMARK    5  A    between atoms: C_14  and  C_22
REMARK    6  A    between atoms: C_15  and  C_16
REMARK                            x       y       z     vdW  Elec       q    Type
REMARK                         _______ _______ _______ _____ _____    ______ ____
ROOT
ATOM      1  C   UNL     1       5.487   5.582  17.616  0.00  0.00    +0.000 A 
ATOM      2  C   UNL     1       5.642   4.348  18.238  0.00  0.00    +0.000 A 
ATOM      3  C   UNL     1       4.748   3.977  19.252  0.00  0.00    +0.000 A 
ATOM      4  C   UNL     1       3.678   4.781  19.628  0.00  0.00    +0.000 A 
ATOM      5  N   UNL     1       2.834   4.337  20.558  0.00  0.00    +0.000 NA
ATOM      6  C   UNL     1       1.772   5.106  20.843  0.00  0.00    +0.000 A 
ATOM      7  N   UNL     1       1.496   6.297  20.299  0.00  0.00    +0.000 NA
ATOM      8  C   UNL     1       2.354   6.749  19.367  0.00  0.00    +0.000 A 
ATOM      9  N   UNL     1       2.014   7.928  18.668  0.00  0.00    +0.000 N 
ATOM     10  C   UNL     1       3.505   6.021  18.990  0.00  0.00    +0.000 A 
ATOM     11  C   UNL     1       4.446   6.428  18.009  0.00  0.00    +0.000 A 
ATOM     12  H   UNL     1       2.846   8.474  18.472  0.00  0.00    +0.000 HD
ENDROOT
BRANCH   1  14
ATOM     13  C   UNL     1       6.865   4.411  15.420  0.00  0.00    +0.000 C 
ATOM     14  S   UNL     1       6.405   5.959  16.135  0.00  0.00    +0.000 S 
ATOM     15  O   UNL     1       7.628   6.623  16.550  0.00  0.00    +0.000 OA
ATOM     16  O   UNL     1       5.481   6.614  15.231  0.00  0.00    +0.000 OA
ENDBRANCH   1  14
BRANCH   9  17
ATOM     17  C   UNL     1       0.959   8.767  19.310  0.00  0.00    +0.000 C 
BRANCH  17  18
ATOM     18  C   UNL     1       0.212   9.757  18.367  0.00  0.00    +0.000 C 
ATOM     19  F   UNL     1       0.830  10.946  18.206  0.00  0.00    +0.000 F 
ATOM     20  F   UNL     1       0.058   9.207  17.135  0.00  0.00    +0.000 F 
ATOM     21  F   UNL     1      -1.041  10.033  18.817  0.00  0.00    +0.000 F 
ENDBRANCH  17  18
BRANCH  17  22
ATOM     22  C   UNL     1       1.600   9.581  20.462  0.00  0.00    +0.000 C 
BRANCH  22  23
ATOM     23  C   UNL     1       0.682  10.289  21.442  0.00  0.00    +0.000 A 
ATOM     24  C   UNL     1       0.477  11.671  21.283  0.00  0.00    +0.000 A 
ATOM     25  C   UNL     1      -0.457  12.352  22.064  0.00  0.00    +0.000 A 
ATOM     26  C   UNL     1      -1.197  11.664  23.021  0.00  0.00    +0.000 A 
ATOM     27  C   UNL     1      -0.988  10.299  23.206  0.00  0.00    +0.000 A 
ATOM     28  C   UNL     1      -0.058   9.614  22.421  0.00  0.00    +0.000 A 
ENDBRANCH  22  23
ENDBRANCH  17  22
ENDBRANCH   9  17
TORSDOF 5
ENDMDL
MODEL 3
REMARK VINA RESULT:      -7.3      4.463      7.954
REMARK  Name = 
REMARK  6 active torsions:
REMARK  status: ('A' for Active; 'I' for Inactive)
REMARK    1  A    between atoms: C_1  and  S_2
REMARK    2  A    between atoms: S_2  and  C_5
REMARK    3  A    between atoms: N_13  and  C_14
REMARK    4  A    between atoms: C_14  and  C_15
REMARK    5  A    between atoms: C_14  and  C_22
REMARK    6  A    between atoms: C_15  and  C_16
REMARK                            x       y       z     vdW  Elec       q    Type
REMARK                         _______ _______ _______ _____ _____    ______ ____
ROOT
ATOM      1  C   UNL     1       5.623   5.389  18.092  0.00  0.00    +0.000 A 
ATOM      2  C   UNL     1       5.598   4.087  18.581  0.00  0.00    +0.000 A 
ATOM      3  C   UNL     1       4.535   3.687  19.402  0.00  0.00    +0.000 A 
ATOM      4  C   UNL     1       3.474   4.532  19.707  0.00  0.00    +0.000 A 
ATOM      5  N   UNL     1       2.468   4.063  20.444  0.00  0.00    +0.000 NA
ATOM      6  C   UNL     1       1.427   4.883  20.657  0.00  0.00    +0.000 A 
ATOM      7  N   UNL     1       1.318   6.143  20.221  0.00  0.00    +0.000 NA
ATOM      8  C   UNL     1       2.339   6.618  19.486  0.00  0.00    +0.000 A 
ATOM      9  N   UNL     1       2.189   7.889  18.887  0.00  0.00    +0.000 N 
ATOM     10  C   UNL     1       3.484   5.842  19.200  0.00  0.00    +0.000 A 
ATOM     11  C   UNL     1       4.591   6.271  18.423  0.00  0.00    +0.000 A 
ATOM     12  H   UNL     1       3.076   8.382  18.880  0.00  0.00    +0.000 HD
ENDROOT
BRANCH   1  14
ATOM     13  C   UNL     1       7.597   7.308  17.375  0.00  0.00    +0.000 C 
ATOM     14  S   UNL     1       6.783   5.843  16.817  0.00  0.00    +0.000 S 
ATOM     15  O   UNL     1       6.007   6.201  15.643  0.00  0.00    +0.000 OA
ATOM     16  O   UNL     1       7.766   4.780  16.755  0.00  0.00    +0.000 OA
ENDBRANCH   1  14
BRANCH   9  17
ATOM     17  C   UNL     1       1.104   8.739  19.460  0.00  0.00    +0.000 C 
BRANCH  17  18
ATOM     18  C   UNL     1       0.424   9.730  18.468  0.00  0.00    +0.000 C 
ATOM     19  F   UNL     1       1.079  10.899  18.309  0.00  0.00    +0.000 F 
ATOM     20  F   UNL     1       0.304   9.159  17.241  0.00  0.00    +0.000 F 
ATOM     21  F   UNL     1      -0.839  10.047  18.860  0.00  0.00    +0.000 F 
ENDBRANCH  17  18
BRANCH  17  22
ATOM     22  C   UNL     1       1.681   9.555  20.643  0.00  0.00    +0.000 C 
BRANCH  22  23
ATOM     23  C   UNL     1       0.712  10.276  21.563  0.00  0.00    +0.000 A 
ATOM     24  C   UNL     1       0.487  11.648  21.351  0.00  0.00    +0.000 A 
ATOM     25  C   UNL     1      -0.489  12.334  22.072  0.00  0.00    +0.000 A 
ATOM     26  C   UNL     1      -1.254  11.662  23.021  0.00  0.00    +0.000 A 
ATOM     27  C   UNL     1      -1.028  10.308  23.259  0.00  0.00    +0.000 A 
ATOM     28  C   UNL     1      -0.054   9.617  22.533  0.00  0.00    +0.000 A 
ENDBRANCH  22  23
ENDBRANCH  17  22
ENDBRANCH   9  17
TORSDOF 5
ENDMDL
MODEL 4
REMARK VINA RESULT:      -7.2      4.419      7.965
REMARK  Name = 
REMARK  6 active torsions:
REMARK  status: ('A' for Active; 'I' for Inactive)
REMARK    1  A    between atoms: C_1  and  S_2
REMARK    2  A    between atoms: S_2  and  C_5
REMARK    3  A    between atoms: N_13  and  C_14
REMARK    4  A    between atoms: C_14  and  C_15
REMARK    5  A    between atoms: C_14  and  C_22
REMARK    6  A    between atoms: C_15  and  C_16
REMARK                            x       y       z     vdW  Elec       q    Type
REMARK                         _______ _______ _______ _____ _____    ______ ____
ROOT
ATOM      1  C   UNL     1       5.637   5.291  18.084  0.00  0.00    +0.000 A 
ATOM      2  C   UNL     1       5.633   4.018  18.645  0.00  0.00    +0.000 A 
ATOM      3  C   UNL     1       4.592   3.659  19.512  0.00  0.00    +0.000 A 
ATOM      4  C   UNL     1       3.532   4.514  19.795  0.00  0.00    +0.000 A 
ATOM      5  N   UNL     1       2.547   4.082  20.580  0.00  0.00    +0.000 NA
ATOM      6  C   UNL     1       1.506   4.907  20.772  0.00  0.00    +0.000 A 
ATOM      7  N   UNL     1       1.379   6.140  20.270  0.00  0.00    +0.000 NA
ATOM      8  C   UNL     1       2.379   6.579  19.485  0.00  0.00    +0.000 A 
ATOM      9  N   UNL     1       2.207   7.814  18.820  0.00  0.00    +0.000 N 
ATOM     10  C   UNL     1       3.522   5.794  19.215  0.00  0.00    +0.000 A 
ATOM     11  C   UNL     1       4.608   6.185  18.390  0.00  0.00    +0.000 A 
ATOM     12  H   UNL     1       3.091   8.310  18.765  0.00  0.00    +0.000 HD
ENDROOT
BRANCH   1  14
ATOM     13  C   UNL     1       5.842   5.548  15.258  0.00  0.00    +0.000 C 
ATOM     14  S   UNL     1       6.765   5.679  16.758  0.00  0.00    +0.000 S 
ATOM     15  O   UNL     1       7.773   4.634  16.737  0.00  0.00    +0.000 OA
ATOM     16  O   UNL     1       7.144   7.067  16.931  0.00  0.00    +0.000 OA
ENDBRANCH   1  14
BRANCH   9  17
ATOM     17  C   UNL     1       1.131   8.689  19.370  0.00  0.00    +0.000 C 
BRANCH  17  18
ATOM     18  C   UNL     1       0.457   9.657  18.352  0.00  0.00    +0.000 C 
ATOM     19  F   UNL     1      -0.790  10.044  18.691  0.00  0.00    +0.000 F 
ATOM     20  F   UNL     1       1.207  10.781  18.204  0.00  0.00    +0.000 F 
ATOM     21  F   UNL     1       0.364   9.101  17.114  0.00  0.00    +0.000 F 
ENDBRANCH  17  18
BRANCH  17  22
ATOM     22  C   UNL     1       1.716   9.533  20.529  0.00  0.00    +0.000 C 
BRANCH  22  23
ATOM     23  C   UNL     1       0.753  10.246  21.460  0.00  0.00    +0.000 A 
ATOM     24  C   UNL     1       0.491  11.609  21.233  0.00  0.00    +0.000 A 
ATOM     25  C   UNL     1      -0.483  12.285  21.966  0.00  0.00    +0.000 A 
ATOM     26  C   UNL     1      -1.210  11.611  22.944  0.00  0.00    +0.000 A 
ATOM     27  C   UNL     1      -0.946  10.267  23.197  0.00  0.00    +0.000 A 
ATOM     28  C   UNL     1       0.026   9.586  22.460  0.00  0.00    +0.000 A 
ENDBRANCH  22  23
ENDBRANCH  17  22
ENDBRANCH   9  17
TORSDOF 5
ENDMDL
MODEL 5
REMARK VINA RESULT:      -7.1      3.170      4.772
REMARK  Name = 
REMARK  6 active torsions:
REMARK  status: ('A' for Active; 'I' for Inactive)
REMARK    1  A    between atoms: C_1  and  S_2
REMARK    2  A    between atoms: S_2  and  C_5
REMARK    3  A    between atoms: N_13  and  C_14
REMARK    4  A    between atoms: C_14  and  C_15
REMARK    5  A    between atoms: C_14  and  C_22
REMARK    6  A    between atoms: C_15  and  C_16
REMARK                            x       y       z     vdW  Elec       q    Type
REMARK                         _______ _______ _______ _____ _____    ______ ____
ROOT
ATOM      1  C   UNL     1       1.428   6.768  20.377  0.00  0.00    +0.000 A 
ATOM      2  C   UNL     1       0.621   5.746  20.865  0.00  0.00    +0.000 A 
ATOM      3  C   UNL     1       0.980   4.414  20.613  0.00  0.00    +0.000 A 
ATOM      4  C   UNL     1       2.145   4.075  19.934  0.00  0.00    +0.000 A 
ATOM      5  N   UNL     1       2.453   2.788  19.784  0.00  0.00    +0.000 NA
ATOM      6  C   UNL     1       3.620   2.499  19.189  0.00  0.00    +0.000 A 
ATOM      7  N   UNL     1       4.493   3.388  18.701  0.00  0.00    +0.000 NA
ATOM      8  C   UNL     1       4.176   4.687  18.843  0.00  0.00    +0.000 A 
ATOM      9  N   UNL     1       5.143   5.649  18.475  0.00  0.00    +0.000 N 
ATOM     10  C   UNL     1       2.974   5.104  19.455  0.00  0.00    +0.000 A 
ATOM     11  C   UNL     1       2.579   6.453  19.650  0.00  0.00    +0.000 A 
ATOM     12  H   UNL     1       4.693   6.464  18.071  0.00  0.00    +0.000 HD
ENDROOT
BRANCH   1  14
ATOM     13  C   UNL     1      -0.493   8.539  21.504  0.00  0.00    +0.000 C 
ATOM     14  S   UNL     1       1.173   8.446  20.924  0.00  0.00    +0.000 S 
ATOM     15  O   UNL     1       1.269   9.296  19.750  0.00  0.00    +0.000 OA
ATOM     16  O   UNL     1       2.055   8.650  22.055  0.00  0.00    +0.000 OA
ENDBRANCH   1  14
BRANCH   9  17
ATOM     17  C   UNL     1       6.238   5.147  17.593  0.00  0.00    +0.000 C 
BRANCH  17  18
ATOM     18  C   UNL     1       7.680   5.257  18.173  0.00  0.00    +0.000 C 
ATOM     19  F   UNL     1       8.493   4.231  17.844  0.00  0.00    +0.000 F 
ATOM     20  F   UNL     1       8.274   6.401  17.745  0.00  0.00    +0.000 F 
ATOM     21  F   UNL     1       7.673   5.322  19.531  0.00  0.00    +0.000 F 
ENDBRANCH  17  18
BRANCH  17  22
ATOM     22  C   UNL     1       6.193   5.920  16.251  0.00  0.00    +0.000 C 
BRANCH  22  23
ATOM     23  C   UNL     1       6.392   5.141  14.964  0.00  0.00    +0.000 A 
ATOM     24  C   UNL     1       5.412   4.203  14.594  0.00  0.00    +0.000 A 
ATOM     25  C   UNL     1       5.468   3.556  13.360  0.00  0.00    +0.000 A 
ATOM     26  C   UNL     1       6.508   3.831  12.477  0.00  0.00    +0.000 A 
ATOM     27  C   UNL     1       7.500   4.740  12.839  0.00  0.00    +0.000 A 
ATOM     28  C   UNL     1       7.442   5.394  14.072  0.00  0.00    +0.000 A 
ENDBRANCH  22  23
ENDBRANCH  17  22
ENDBRANCH   9  17
TORSDOF 5
ENDMDL
MODEL 6
REMARK VINA RESULT:      -7.1      3.380      4.651
REMARK  Name = 
REMARK  6 active torsions:
REMARK  status: ('A' for Active; 'I' for Inactive)
REMARK    1  A    between atoms: C_1  and  S_2
REMARK    2  A    between atoms: S_2  and  C_5
REMARK    3  A    between atoms: N_13  and  C_14
REMARK    4  A    between atoms: C_14  and  C_15
REMARK    5  A    between atoms: C_14  and  C_22
REMARK    6  A    between atoms: C_15  and  C_16
REMARK                            x       y       z     vdW  Elec       q    Type
REMARK                         _______ _______ _______ _____ _____    ______ ____
ROOT
ATOM      1  C   UNL     1       1.365   8.789  19.484  0.00  0.00    +0.000 A 
ATOM      2  C   UNL     1       0.755   8.185  20.577  0.00  0.00    +0.000 A 
ATOM      3  C   UNL     1       1.117   6.875  20.923  0.00  0.00    +0.000 A 
ATOM      4  C   UNL     1       2.103   6.173  20.240  0.00  0.00    +0.000 A 
ATOM      5  N   UNL     1       2.437   4.955  20.662  0.00  0.00    +0.000 NA
ATOM      6  C   UNL     1       3.443   4.336  20.025  0.00  0.00    +0.000 A 
ATOM      7  N   UNL     1       4.126   4.819  18.980  0.00  0.00    +0.000 NA
ATOM      8  C   UNL     1       3.781   6.045  18.548  0.00  0.00    +0.000 A 
ATOM      9  N   UNL     1       4.577   6.644  17.547  0.00  0.00    +0.000 N 
ATOM     10  C   UNL     1       2.737   6.786  19.146  0.00  0.00    +0.000 A 
ATOM     11  C   UNL     1       2.326   8.086  18.752  0.00  0.00    +0.000 A 
ATOM     12  H   UNL     1       4.000   7.193  16.919  0.00  0.00    +0.000 HD
ENDROOT
BRANCH   1  14
ATOM     13  C   UNL     1      -0.467  10.747  18.532  0.00  0.00    +0.000 C 
ATOM     14  S   UNL     1       1.156  10.537  19.196  0.00  0.00    +0.000 S 
ATOM     15  O   UNL     1       2.099  10.913  18.157  0.00  0.00    +0.000 OA
ATOM     16  O   UNL     1       1.196  11.177  20.495  0.00  0.00    +0.000 OA
ENDBRANCH   1  14
BRANCH   9  17
ATOM     17  C   UNL     1       5.457   5.707  16.788  0.00  0.00    +0.000 C 
BRANCH  17  18
ATOM     18  C   UNL     1       6.926   5.594  17.295  0.00  0.00    +0.000 C 
ATOM     19  F   UNL     1       7.067   5.731  18.630  0.00  0.00    +0.000 F 
ATOM     20  F   UNL     1       7.452   4.390  16.950  0.00  0.00    +0.000 F 
ATOM     21  F   UNL     1       7.729   6.533  16.725  0.00  0.00    +0.000 F 
ENDBRANCH  17  18
BRANCH  17  22
ATOM     22  C   UNL     1       5.488   6.142  15.302  0.00  0.00    +0.000 C 
BRANCH  22  23
ATOM     23  C   UNL     1       5.974   5.143  14.267  0.00  0.00    +0.000 A 
ATOM     24  C   UNL     1       5.090   4.133  13.849  0.00  0.00    +0.000 A 
ATOM     25  C   UNL     1       5.428   3.271  12.806  0.00  0.00    +0.000 A 
ATOM     26  C   UNL     1       6.658   3.400  12.168  0.00  0.00    +0.000 A 
ATOM     27  C   UNL     1       7.554   4.380  12.587  0.00  0.00    +0.000 A 
ATOM     28  C   UNL     1       7.215   5.249  13.627  0.00  0.00    +0.000 A 
ENDBRANCH  22  23
ENDBRANCH  17  22
ENDBRANCH   9  17
TORSDOF 5
ENDMDL
MODEL 7
REMARK VINA RESULT:      -7.0      3.289      4.850
REMARK  Name = 
REMARK  6 active torsions:
REMARK  status: ('A' for Active; 'I' for Inactive)
REMARK    1  A    between atoms: C_1  and  S_2
REMARK    2  A    between atoms: S_2  and  C_5
REMARK    3  A    between atoms: N_13  and  C_14
REMARK    4  A    between atoms: C_14  and  C_15
REMARK    5  A    between atoms: C_14  and  C_22
REMARK    6  A    between atoms: C_15  and  C_16
REMARK                            x       y       z     vdW  Elec       q    Type
REMARK                         _______ _______ _______ _____ _____    ______ ____
ROOT
ATOM      1  C   UNL     1       1.453   6.683  20.373  0.00  0.00    +0.000 A 
ATOM      2  C   UNL     1       0.726   5.653  20.961  0.00  0.00    +0.000 A 
ATOM      3  C   UNL     1       1.090   4.325  20.696  0.00  0.00    +0.000 A 
ATOM      4  C   UNL     1       2.184   3.999  19.903  0.00  0.00    +0.000 A 
ATOM      5  N   UNL     1       2.506   2.716  19.744  0.00  0.00    +0.000 NA
ATOM      6  C   UNL     1       3.610   2.442  19.033  0.00  0.00    +0.000 A 
ATOM      7  N   UNL     1       4.406   3.339  18.441  0.00  0.00    +0.000 NA
ATOM      8  C   UNL     1       4.074   4.634  18.593  0.00  0.00    +0.000 A 
ATOM      9  N   UNL     1       4.973   5.610  18.108  0.00  0.00    +0.000 N 
ATOM     10  C   UNL     1       2.933   5.036  19.322  0.00  0.00    +0.000 A 
ATOM     11  C   UNL     1       2.528   6.379  19.534  0.00  0.00    +0.000 A 
ATOM     12  H   UNL     1       4.463   6.407  17.741  0.00  0.00    +0.000 HD
ENDROOT
BRANCH   1  14
ATOM     13  C   UNL     1      -0.454   8.483  21.477  0.00  0.00    +0.000 C 
ATOM     14  S   UNL     1       1.217   8.365  20.914  0.00  0.00    +0.000 S 
ATOM     15  O   UNL     1       1.337   9.212  19.740  0.00  0.00    +0.000 OA
ATOM     16  O   UNL     1       2.089   8.559  22.055  0.00  0.00    +0.000 OA
ENDBRANCH   1  14
BRANCH   9  17
ATOM     17  C   UNL     1       5.981   5.115  17.124  0.00  0.00    +0.000 C 
BRANCH  17  18
ATOM     18  C   UNL     1       7.472   5.248  17.556  0.00  0.00    +0.000 C 
ATOM     19  F   UNL     1       7.674   5.195  18.889  0.00  0.00    +0.000 F 
ATOM     20  F   UNL     1       8.215   4.260  16.992  0.00  0.00    +0.000 F 
ATOM     21  F   UNL     1       8.018   6.418  17.130  0.00  0.00    +0.000 F 
ENDBRANCH  17  18
BRANCH  17  22
ATOM     22  C   UNL     1       5.792   5.877  15.789  0.00  0.00    +0.000 C 
BRANCH  22  23
ATOM     23  C   UNL     1       6.085   5.143  14.493  0.00  0.00    +0.000 A 
ATOM     24  C   UNL     1       7.303   5.404  13.840  0.00  0.00    +0.000 A 
ATOM     25  C   UNL     1       7.690   4.666  12.722  0.00  0.00    +0.000 A 
ATOM     26  C   UNL     1       6.863   3.658  12.234  0.00  0.00    +0.000 A 
ATOM     27  C   UNL     1       5.643   3.403  12.856  0.00  0.00    +0.000 A 
ATOM     28  C   UNL     1       5.256   4.138  13.979  0.00  0.00    +0.000 A 
ENDBRANCH  22  23
ENDBRANCH  17  22
ENDBRANCH   9  17
TORSDOF 5
ENDMDL
MODEL 8
REMARK VINA RESULT:      -7.0      5.526      8.129
REMARK  Name = 
REMARK  6 active torsions:
REMARK  status: ('A' for Active; 'I' for Inactive)
REMARK    1  A    between atoms: C_1  and  S_2
REMARK    2  A    between atoms: S_2  and  C_5
REMARK    3  A    between atoms: N_13  and  C_14
REMARK    4  A    between atoms: C_14  and  C_15
REMARK    5  A    between atoms: C_14  and  C_22
REMARK    6  A    between atoms: C_15  and  C_16
REMARK                            x       y       z     vdW  Elec       q    Type
REMARK                         _______ _______ _______ _____ _____    ______ ____
ROOT
ATOM      1  C   UNL     1       6.283   3.931  13.145  0.00  0.00    +0.000 A 
ATOM      2  C   UNL     1       7.326   4.843  13.025  0.00  0.00    +0.000 A 
ATOM      3  C   UNL     1       7.714   5.587  14.148  0.00  0.00    +0.000 A 
ATOM      4  C   UNL     1       7.125   5.411  15.395  0.00  0.00    +0.000 A 
ATOM      5  N   UNL     1       7.587   6.110  16.431  0.00  0.00    +0.000 NA
ATOM      6  C   UNL     1       7.044   5.861  17.632  0.00  0.00    +0.000 A 
ATOM      7  N   UNL     1       6.057   4.993  17.884  0.00  0.00    +0.000 NA
ATOM      8  C   UNL     1       5.585   4.295  16.835  0.00  0.00    +0.000 A 
ATOM      9  N   UNL     1       4.650   3.267  17.090  0.00  0.00    +0.000 N 
ATOM     10  C   UNL     1       6.084   4.477  15.526  0.00  0.00    +0.000 A 
ATOM     11  C   UNL     1       5.643   3.770  14.378  0.00  0.00    +0.000 A 
ATOM     12  H   UNL     1       3.969   3.216  16.339  0.00  0.00    +0.000 HD
ENDROOT
BRANCH   1  14
ATOM     13  C   UNL     1       4.392   3.197  11.150  0.00  0.00    +0.000 C 
ATOM     14  S   UNL     1       5.961   2.763  11.836  0.00  0.00    +0.000 S 
ATOM     15  O   UNL     1       5.814   1.459  12.457  0.00  0.00    +0.000 OA
ATOM     16  O   UNL     1       6.972   2.989  10.823  0.00  0.00    +0.000 OA
ENDBRANCH   1  14
BRANCH   9  17
ATOM     17  C   UNL     1       3.978   3.333  18.422  0.00  0.00    +0.000 C 
BRANCH  17  18
ATOM     18  C   UNL     1       3.741   1.966  19.130  0.00  0.00    +0.000 C 
ATOM     19  F   UNL     1       4.715   1.606  19.991  0.00  0.00    +0.000 F 
ATOM     20  F   UNL     1       2.573   1.991  19.823  0.00  0.00    +0.000 F 
ATOM     21  F   UNL     1       3.624   0.948  18.235  0.00  0.00    +0.000 F 
ENDBRANCH  17  18
BRANCH  17  22
ATOM     22  C   UNL     1       2.610   4.040  18.258  0.00  0.00    +0.000 C 
BRANCH  22  23
ATOM     23  C   UNL     1       2.401   5.376  18.947  0.00  0.00    +0.000 A 
ATOM     24  C   UNL     1       2.588   6.550  18.196  0.00  0.00    +0.000 A 
ATOM     25  C   UNL     1       2.282   7.801  18.732  0.00  0.00    +0.000 A 
ATOM     26  C   UNL     1       1.788   7.899  20.030  0.00  0.00    +0.000 A 
ATOM     27  C   UNL     1       1.620   6.747  20.795  0.00  0.00    +0.000 A 
ATOM     28  C   UNL     1       1.921   5.493  20.258  0.00  0.00    +0.000 A 
ENDBRANCH  22  23
ENDBRANCH  17  22
ENDBRANCH   9  17
TORSDOF 5
ENDMDL
MODEL 9
REMARK VINA RESULT:      -6.9      5.421      7.963
REMARK  Name = 
REMARK  6 active torsions:
REMARK  status: ('A' for Active; 'I' for Inactive)
REMARK    1  A    between atoms: C_1  and  S_2
REMARK    2  A    between atoms: S_2  and  C_5
REMARK    3  A    between atoms: N_13  and  C_14
REMARK    4  A    between atoms: C_14  and  C_15
REMARK    5  A    between atoms: C_14  and  C_22
REMARK    6  A    between atoms: C_15  and  C_16
REMARK                            x       y       z     vdW  Elec       q    Type
REMARK                         _______ _______ _______ _____ _____    ______ ____
ROOT
ATOM      1  C   UNL     1       6.386   4.175  13.431  0.00  0.00    +0.000 A 
ATOM      2  C   UNL     1       7.511   4.992  13.478  0.00  0.00    +0.000 A 
ATOM      3  C   UNL     1       7.896   5.553  14.704  0.00  0.00    +0.000 A 
ATOM      4  C   UNL     1       7.220   5.282  15.889  0.00  0.00    +0.000 A 
ATOM      5  N   UNL     1       7.678   5.803  17.026  0.00  0.00    +0.000 NA
ATOM      6  C   UNL     1       7.045   5.461  18.158  0.00  0.00    +0.000 A 
ATOM      7  N   UNL     1       5.972   4.667  18.249  0.00  0.00    +0.000 NA
ATOM      8  C   UNL     1       5.504   4.150  17.099  0.00  0.00    +0.000 A 
ATOM      9  N   UNL     1       4.468   3.193  17.176  0.00  0.00    +0.000 N 
ATOM     10  C   UNL     1       6.094   4.443  15.850  0.00  0.00    +0.000 A 
ATOM     11  C   UNL     1       5.663   3.927  14.600  0.00  0.00    +0.000 A 
ATOM     12  H   UNL     1       3.832   3.298  16.393  0.00  0.00    +0.000 HD
ENDROOT
BRANCH   1  14
ATOM     13  C   UNL     1       4.324   3.429  11.618  0.00  0.00    +0.000 C 
ATOM     14  S   UNL     1       6.042   3.212  11.970  0.00  0.00    +0.000 S 
ATOM     15  O   UNL     1       6.236   1.817  12.324  0.00  0.00    +0.000 OA
ATOM     16  O   UNL     1       6.800   3.812  10.891  0.00  0.00    +0.000 OA
ENDBRANCH   1  14
BRANCH   9  17
ATOM     17  C   UNL     1       3.727   3.159  18.471  0.00  0.00    +0.000 C 
BRANCH  17  18
ATOM     18  C   UNL     1       3.509   1.746  19.091  0.00  0.00    +0.000 C 
ATOM     19  F   UNL     1       3.854   0.722  18.282  0.00  0.00    +0.000 F 
ATOM     20  F   UNL     1       4.226   1.619  20.238  0.00  0.00    +0.000 F 
ATOM     21  F   UNL     1       2.209   1.542  19.435  0.00  0.00    +0.000 F 
ENDBRANCH  17  18
BRANCH  17  22
ATOM     22  C   UNL     1       2.341   3.821  18.272  0.00  0.00    +0.000 C 
BRANCH  22  23
ATOM     23  C   UNL     1       2.127   5.222  18.817  0.00  0.00    +0.000 A 
ATOM     24  C   UNL     1       1.735   5.362  20.159  0.00  0.00    +0.000 A 
ATOM     25  C   UNL     1       1.653   6.620  20.755  0.00  0.00    +0.000 A 
ATOM     26  C   UNL     1       1.956   7.760  20.017  0.00  0.00    +0.000 A 
ATOM     27  C   UNL     1       2.324   7.640  18.679  0.00  0.00    +0.000 A 
ATOM     28  C   UNL     1       2.412   6.379  18.081  0.00  0.00    +0.000 A 
ENDBRANCH  22  23
ENDBRANCH  17  22
ENDBRANCH   9  17
TORSDOF 5
ENDMDL
