MODEL 1
REMARK VINA RESULT:      -7.9      0.000      0.000
REMARK  Name = 
REMARK  5 active torsions:
REMARK  status: ('A' for Active; 'I' for Inactive)
REMARK    1  A    between atoms: C_1  and  C_2
REMARK    2  A    between atoms: C_6  and  C_7
REMARK    3  A    between atoms: C_11  and  C_12
REMARK    4  A    between atoms: C_14  and  C_15
REMARK    5  A    between atoms: C_20  and  C_21
REMARK                            x       y       z     vdW  Elec       q    Type
REMARK                         _______ _______ _______ _____ _____    ______ ____
ROOT
ATOM      1  C   UNL     1       2.589   5.392  18.003  0.00  0.00    +0.000 C 
ATOM      2  O   UNL     1       1.914   6.361  17.659  0.00  0.00    +0.000 OA
ATOM      3  N   UNL     1       3.969   5.387  17.814  0.00  0.00    +0.000 N 
ATOM      4  C   UNL     1       4.637   6.541  17.238  0.00  0.00    +0.000 C 
ATOM      5  C   UNL     1       6.045   6.033  16.930  0.00  0.00    +0.000 C 
ATOM      6  C   UNL     1       6.331   5.055  18.092  0.00  0.00    +0.000 C 
ATOM      7  C   UNL     1       4.938   4.567  18.539  0.00  0.00    +0.000 C 
ENDROOT
BRANCH   1  13
ATOM      8  C   UNL     1       1.970   4.782  21.150  0.00  0.00    +0.000 C 
ATOM      9  C   UNL     1       1.728   3.990  19.925  0.00  0.00    +0.000 A 
ATOM     10  O   UNL     1       1.151   2.774  20.129  0.00  0.00    +0.000 OA
ATOM     11  C   UNL     1       0.940   2.220  18.914  0.00  0.00    +0.000 A 
ATOM     12  C   UNL     1       1.373   3.067  17.925  0.00  0.00    +0.000 A 
ATOM     13  C   UNL     1       1.963   4.201  18.570  0.00  0.00    +0.000 A 
ENDBRANCH   1  13
BRANCH   5  14
ATOM     14  C   UNL     1       6.125   5.370  15.581  0.00  0.00    +0.000 A 
ATOM     15  N   UNL     1       5.223   4.587  15.026  0.00  0.00    +0.000 NA
ATOM     16  C   UNL     1       5.851   4.118  13.898  0.00  0.00    +0.000 A 
ATOM     17  N   UNL     1       7.069   4.630  13.688  0.00  0.00    +0.000 NA
ATOM     18  N   UNL     1       7.226   5.408  14.766  0.00  0.00    +0.000 N 
ATOM     19  H   UNL     1       8.113   5.876  14.916  0.00  0.00    +0.000 HD
BRANCH  16  20
ATOM     20  C   UNL     1       5.278   3.033  12.999  0.00  0.00    +0.000 C 
ATOM     21  C   UNL     1       5.927   2.722  11.668  0.00  0.00    +0.000 C 
ATOM     22  C   UNL     1       4.643   3.476  11.694  0.00  0.00    +0.000 C 
ENDBRANCH  16  20
ENDBRANCH   5  14
BRANCH   6  23
ATOM     23  C   UNL     1       7.056   5.726  19.239  0.00  0.00    +0.000 C 
ATOM     24  C   UNL     1       8.184   6.690  18.977  0.00  0.00    +0.000 C 
ATOM     25  C   UNL     1       8.481   5.332  19.548  0.00  0.00    +0.000 C 
ENDBRANCH   6  23
TORSDOF 4
ENDMDL
MODEL 2
REMARK VINA RESULT:      -7.6      2.584      5.268
REMARK  Name = 
REMARK  5 active torsions:
REMARK  status: ('A' for Active; 'I' for Inactive)
REMARK    1  A    between atoms: C_1  and  C_2
REMARK    2  A    between atoms: C_6  and  C_7
REMARK    3  A    between atoms: C_11  and  C_12
REMARK    4  A    between atoms: C_14  and  C_15
REMARK    5  A    between atoms: C_20  and  C_21
REMARK                            x       y       z     vdW  Elec       q    Type
REMARK                         _______ _______ _______ _____ _____    ______ ____
ROOT
ATOM      1  C   UNL     1       4.727   4.074  19.144  0.00  0.00    +0.000 C 
ATOM      2  O   UNL     1       5.373   3.230  19.764  0.00  0.00    +0.000 OA
ATOM      3  N   UNL     1       5.314   4.794  18.106  0.00  0.00    +0.000 N 
ATOM      4  C   UNL     1       6.689   4.534  17.717  0.00  0.00    +0.000 C 
ATOM      5  C   UNL     1       7.031   5.698  16.787  0.00  0.00    +0.000 C 
ATOM      6  C   UNL     1       5.702   5.961  16.044  0.00  0.00    +0.000 C 
ATOM      7  C   UNL     1       4.611   5.468  17.016  0.00  0.00    +0.000 C 
ENDROOT
BRANCH   1  13
ATOM      8  C   UNL     1       2.093   2.192  18.726  0.00  0.00    +0.000 C 
ATOM      9  C   UNL     1       2.258   3.544  19.301  0.00  0.00    +0.000 A 
ATOM     10  O   UNL     1       1.108   4.133  19.731  0.00  0.00    +0.000 OA
ATOM     11  C   UNL     1       1.446   5.319  20.284  0.00  0.00    +0.000 A 
ATOM     12  C   UNL     1       2.804   5.502  20.218  0.00  0.00    +0.000 A 
ATOM     13  C   UNL     1       3.347   4.385  19.509  0.00  0.00    +0.000 A 
ENDBRANCH   1  13
BRANCH   5  14
ATOM     14  C   UNL     1       7.521   6.903  17.544  0.00  0.00    +0.000 A 
ATOM     15  N   UNL     1       7.444   8.163  17.167  0.00  0.00    +0.000 NA
ATOM     16  C   UNL     1       8.181   8.830  18.115  0.00  0.00    +0.000 A 
ATOM     17  N   UNL     1       8.648   8.057  19.100  0.00  0.00    +0.000 NA
ATOM     18  N   UNL     1       8.230   6.845  18.715  0.00  0.00    +0.000 N 
ATOM     19  H   UNL     1       8.512   6.029  19.248  0.00  0.00    +0.000 HD
BRANCH  16  20
ATOM     20  C   UNL     1       8.538  10.306  18.024  0.00  0.00    +0.000 C 
ATOM     21  C   UNL     1       9.986  10.740  17.966  0.00  0.00    +0.000 C 
ATOM     22  C   UNL     1       9.219  10.931  19.228  0.00  0.00    +0.000 C 
ENDBRANCH  16  20
ENDBRANCH   5  14
BRANCH   6  23
ATOM     23  C   UNL     1       5.624   5.213  14.730  0.00  0.00    +0.000 C 
ATOM     24  C   UNL     1       6.105   3.789  14.626  0.00  0.00    +0.000 C 
ATOM     25  C   UNL     1       6.898   4.892  13.984  0.00  0.00    +0.000 C 
ENDBRANCH   6  23
TORSDOF 4
ENDMDL
MODEL 3
REMARK VINA RESULT:      -7.6      0.570      1.237
REMARK  Name = 
REMARK  5 active torsions:
REMARK  status: ('A' for Active; 'I' for Inactive)
REMARK    1  A    between atoms: C_1  and  C_2
REMARK    2  A    between atoms: C_6  and  C_7
REMARK    3  A    between atoms: C_11  and  C_12
REMARK    4  A    between atoms: C_14  and  C_15
REMARK    5  A    between atoms: C_20  and  C_21
REMARK                            x       y       z     vdW  Elec       q    Type
REMARK                         _______ _______ _______ _____ _____    ______ ____
ROOT
ATOM      1  C   UNL     1       2.621   5.447  18.133  0.00  0.00    +0.000 C 
ATOM      2  O   UNL     1       1.923   6.394  17.775  0.00  0.00    +0.000 OA
ATOM      3  N   UNL     1       3.998   5.461  17.921  0.00  0.00    +0.000 N 
ATOM      4  C   UNL     1       4.634   6.612  17.303  0.00  0.00    +0.000 C 
ATOM      5  C   UNL     1       6.046   6.121  16.984  0.00  0.00    +0.000 C 
ATOM      6  C   UNL     1       6.370   5.179  18.166  0.00  0.00    +0.000 C 
ATOM      7  C   UNL     1       4.993   4.679  18.650  0.00  0.00    +0.000 C 
ENDROOT
BRANCH   1  13
ATOM      8  C   UNL     1       2.734   2.379  17.023  0.00  0.00    +0.000 C 
ATOM      9  C   UNL     1       2.101   2.973  18.220  0.00  0.00    +0.000 A 
ATOM     10  O   UNL     1       1.426   2.094  19.012  0.00  0.00    +0.000 OA
ATOM     11  C   UNL     1       0.975   2.783  20.083  0.00  0.00    +0.000 A 
ATOM     12  C   UNL     1       1.353   4.099  19.994  0.00  0.00    +0.000 A 
ATOM     13  C   UNL     1       2.026   4.260  18.742  0.00  0.00    +0.000 A 
ENDBRANCH   1  13
BRANCH   5  14
ATOM     14  C   UNL     1       6.116   5.424  15.652  0.00  0.00    +0.000 A 
ATOM     15  N   UNL     1       5.160   4.732  15.067  0.00  0.00    +0.000 NA
ATOM     16  C   UNL     1       5.785   4.173  13.978  0.00  0.00    +0.000 A 
ATOM     17  N   UNL     1       7.059   4.546  13.819  0.00  0.00    +0.000 NA
ATOM     18  N   UNL     1       7.251   5.325  14.890  0.00  0.00    +0.000 N 
ATOM     19  H   UNL     1       8.176   5.698  15.075  0.00  0.00    +0.000 HD
BRANCH  16  20
ATOM     20  C   UNL     1       5.139   3.137  13.072  0.00  0.00    +0.000 C 
ATOM     21  C   UNL     1       5.820   2.714  11.788  0.00  0.00    +0.000 C 
ATOM     22  C   UNL     1       4.634   3.614  11.722  0.00  0.00    +0.000 C 
ENDBRANCH  16  20
ENDBRANCH   5  14
BRANCH   6  23
ATOM     23  C   UNL     1       7.101   5.894  19.283  0.00  0.00    +0.000 C 
ATOM     24  C   UNL     1       8.306   6.748  18.989  0.00  0.00    +0.000 C 
ATOM     25  C   UNL     1       8.480   5.427  19.683  0.00  0.00    +0.000 C 
ENDBRANCH   6  23
TORSDOF 4
ENDMDL
MODEL 4
REMARK VINA RESULT:      -7.0      0.798      1.048
REMARK  Name = 
REMARK  5 active torsions:
REMARK  status: ('A' for Active; 'I' for Inactive)
REMARK    1  A    between atoms: C_1  and  C_2
REMARK    2  A    between atoms: C_6  and  C_7
REMARK    3  A    between atoms: C_11  and  C_12
REMARK    4  A    between atoms: C_14  and  C_15
REMARK    5  A    between atoms: C_20  and  C_21
REMARK                            x       y       z     vdW  Elec       q    Type
REMARK                         _______ _______ _______ _____ _____    ______ ____
ROOT
ATOM      1  C   UNL     1       2.654   5.653  18.044  0.00  0.00    +0.000 C 
ATOM      2  O   UNL     1       2.077   6.593  17.502  0.00  0.00    +0.000 OA
ATOM      3  N   UNL     1       4.032   5.495  17.913  0.00  0.00    +0.000 N 
ATOM      4  C   UNL     1       4.813   6.460  17.160  0.00  0.00    +0.000 C 
ATOM      5  C   UNL     1       6.176   5.785  17.006  0.00  0.00    +0.000 C 
ATOM      6  C   UNL     1       6.347   5.021  18.338  0.00  0.00    +0.000 C 
ATOM      7  C   UNL     1       4.906   4.746  18.814  0.00  0.00    +0.000 C 
ENDROOT
BRANCH   1  13
ATOM      8  C   UNL     1       1.510   5.897  21.093  0.00  0.00    +0.000 C 
ATOM      9  C   UNL     1       1.450   4.802  20.101  0.00  0.00    +0.000 A 
ATOM     10  O   UNL     1       0.814   3.675  20.524  0.00  0.00    +0.000 OA
ATOM     11  C   UNL     1       0.789   2.812  19.483  0.00  0.00    +0.000 A 
ATOM     12  C   UNL     1       1.402   3.371  18.390  0.00  0.00    +0.000 A 
ATOM     13  C   UNL     1       1.910   4.646  18.797  0.00  0.00    +0.000 A 
ENDBRANCH   1  13
BRANCH   5  14
ATOM     14  C   UNL     1       6.226   4.878  15.806  0.00  0.00    +0.000 A 
ATOM     15  N   UNL     1       6.399   5.233  14.549  0.00  0.00    +0.000 NA
ATOM     16  C   UNL     1       6.190   4.067  13.852  0.00  0.00    +0.000 A 
ATOM     17  N   UNL     1       5.971   2.994  14.619  0.00  0.00    +0.000 NA
ATOM     18  N   UNL     1       5.987   3.529  15.846  0.00  0.00    +0.000 N 
ATOM     19  H   UNL     1       5.768   2.946  16.646  0.00  0.00    +0.000 HD
BRANCH  16  20
ATOM     20  C   UNL     1       6.109   3.991  12.336  0.00  0.00    +0.000 C 
ATOM     21  C   UNL     1       5.421   2.822  11.665  0.00  0.00    +0.000 C 
ATOM     22  C   UNL     1       6.909   2.898  11.651  0.00  0.00    +0.000 C 
ENDBRANCH  16  20
ENDBRANCH   5  14
BRANCH   6  23
ATOM     23  C   UNL     1       7.104   5.832  19.369  0.00  0.00    +0.000 C 
ATOM     24  C   UNL     1       8.238   6.734  18.956  0.00  0.00    +0.000 C 
ATOM     25  C   UNL     1       8.531   5.463  19.700  0.00  0.00    +0.000 C 
ENDBRANCH   6  23
TORSDOF 4
ENDMDL
MODEL 5
REMARK VINA RESULT:      -7.0      1.141      1.694
REMARK  Name = 
REMARK  5 active torsions:
REMARK  status: ('A' for Active; 'I' for Inactive)
REMARK    1  A    between atoms: C_1  and  C_2
REMARK    2  A    between atoms: C_6  and  C_7
REMARK    3  A    between atoms: C_11  and  C_12
REMARK    4  A    between atoms: C_14  and  C_15
REMARK    5  A    between atoms: C_20  and  C_21
REMARK                            x       y       z     vdW  Elec       q    Type
REMARK                         _______ _______ _______ _____ _____    ______ ____
ROOT
ATOM      1  C   UNL     1       2.941   5.267  18.184  0.00  0.00    +0.000 C 
ATOM      2  O   UNL     1       1.923   5.790  17.735  0.00  0.00    +0.000 OA
ATOM      3  N   UNL     1       4.199   5.659  17.733  0.00  0.00    +0.000 N 
ATOM      4  C   UNL     1       4.329   6.718  16.747  0.00  0.00    +0.000 C 
ATOM      5  C   UNL     1       5.792   6.635  16.313  0.00  0.00    +0.000 C 
ATOM      6  C   UNL     1       6.526   6.238  17.613  0.00  0.00    +0.000 C 
ATOM      7  C   UNL     1       5.465   5.488  18.443  0.00  0.00    +0.000 C 
ENDROOT
BRANCH   1  13
ATOM      8  C   UNL     1       3.485   2.087  17.679  0.00  0.00    +0.000 C 
ATOM      9  C   UNL     1       3.100   2.842  18.891  0.00  0.00    +0.000 A 
ATOM     10  O   UNL     1       2.923   2.087  20.010  0.00  0.00    +0.000 OA
ATOM     11  C   UNL     1       2.646   2.933  21.027  0.00  0.00    +0.000 A 
ATOM     12  C   UNL     1       2.643   4.229  20.577  0.00  0.00    +0.000 A 
ATOM     13  C   UNL     1       2.863   4.185  19.164  0.00  0.00    +0.000 A 
ENDBRANCH   1  13
BRANCH   5  14
ATOM     14  C   UNL     1       5.998   5.640  15.203  0.00  0.00    +0.000 A 
ATOM     15  N   UNL     1       5.065   4.996  14.531  0.00  0.00    +0.000 NA
ATOM     16  C   UNL     1       5.775   4.098  13.771  0.00  0.00    +0.000 A 
ATOM     17  N   UNL     1       7.103   4.205  13.883  0.00  0.00    +0.000 NA
ATOM     18  N   UNL     1       7.221   5.174  14.799  0.00  0.00    +0.000 N 
ATOM     19  H   UNL     1       8.142   5.422  15.145  0.00  0.00    +0.000 HD
BRANCH  16  20
ATOM     20  C   UNL     1       5.132   2.998  12.941  0.00  0.00    +0.000 C 
ATOM     21  C   UNL     1       5.778   2.536  11.653  0.00  0.00    +0.000 C 
ATOM     22  C   UNL     1       4.559   3.391  11.591  0.00  0.00    +0.000 C 
ENDBRANCH  16  20
ENDBRANCH   5  14
BRANCH   6  23
ATOM     23  C   UNL     1       7.042   7.444  18.370  0.00  0.00    +0.000 C 
ATOM     24  C   UNL     1       7.856   8.500  17.670  0.00  0.00    +0.000 C 
ATOM     25  C   UNL     1       8.522   7.570  18.643  0.00  0.00    +0.000 C 
ENDBRANCH   6  23
TORSDOF 4
ENDMDL
MODEL 6
REMARK VINA RESULT:      -7.0      1.296      1.581
REMARK  Name = 
REMARK  5 active torsions:
REMARK  status: ('A' for Active; 'I' for Inactive)
REMARK    1  A    between atoms: C_1  and  C_2
REMARK    2  A    between atoms: C_6  and  C_7
REMARK    3  A    between atoms: C_11  and  C_12
REMARK    4  A    between atoms: C_14  and  C_15
REMARK    5  A    between atoms: C_20  and  C_21
REMARK                            x       y       z     vdW  Elec       q    Type
REMARK                         _______ _______ _______ _____ _____    ______ ____
ROOT
ATOM      1  C   UNL     1       3.317   4.929  18.369  0.00  0.00    +0.000 C 
ATOM      2  O   UNL     1       2.207   5.307  17.999  0.00  0.00    +0.000 OA
ATOM      3  N   UNL     1       4.473   5.483  17.824  0.00  0.00    +0.000 N 
ATOM      4  C   UNL     1       4.384   6.541  16.833  0.00  0.00    +0.000 C 
ATOM      5  C   UNL     1       5.808   6.652  16.289  0.00  0.00    +0.000 C 
ATOM      6  C   UNL     1       6.685   6.368  17.529  0.00  0.00    +0.000 C 
ATOM      7  C   UNL     1       5.800   5.489  18.436  0.00  0.00    +0.000 C 
ENDROOT
BRANCH   1  13
ATOM      8  C   UNL     1       1.311   4.225  20.847  0.00  0.00    +0.000 C 
ATOM      9  C   UNL     1       2.573   3.604  20.392  0.00  0.00    +0.000 A 
ATOM     10  O   UNL     1       2.999   2.550  21.140  0.00  0.00    +0.000 OA
ATOM     11  C   UNL     1       4.115   2.064  20.552  0.00  0.00    +0.000 A 
ATOM     12  C   UNL     1       4.414   2.793  19.429  0.00  0.00    +0.000 A 
ATOM     13  C   UNL     1       3.459   3.855  19.350  0.00  0.00    +0.000 A 
ENDBRANCH   1  13
BRANCH   5  14
ATOM     14  C   UNL     1       6.061   5.684  15.165  0.00  0.00    +0.000 A 
ATOM     15  N   UNL     1       5.173   4.928  14.552  0.00  0.00    +0.000 NA
ATOM     16  C   UNL     1       5.936   4.120  13.745  0.00  0.00    +0.000 A 
ATOM     17  N   UNL     1       7.246   4.388  13.772  0.00  0.00    +0.000 NA
ATOM     18  N   UNL     1       7.304   5.369  14.681  0.00  0.00    +0.000 N 
ATOM     19  H   UNL     1       8.208   5.728  14.968  0.00  0.00    +0.000 HD
BRANCH  16  20
ATOM     20  C   UNL     1       5.380   2.946  12.955  0.00  0.00    +0.000 C 
ATOM     21  C   UNL     1       5.982   2.570  11.618  0.00  0.00    +0.000 C 
ATOM     22  C   UNL     1       4.663   3.262  11.654  0.00  0.00    +0.000 C 
ENDBRANCH  16  20
ENDBRANCH   5  14
BRANCH   6  23
ATOM     23  C   UNL     1       7.089   7.639  18.246  0.00  0.00    +0.000 C 
ATOM     24  C   UNL     1       7.897   8.697  17.540  0.00  0.00    +0.000 C 
ATOM     25  C   UNL     1       8.540   7.857  18.607  0.00  0.00    +0.000 C 
ENDBRANCH   6  23
TORSDOF 4
ENDMDL
MODEL 7
REMARK VINA RESULT:      -6.6      2.343      5.176
REMARK  Name = 
REMARK  5 active torsions:
REMARK  status: ('A' for Active; 'I' for Inactive)
REMARK    1  A    between atoms: C_1  and  C_2
REMARK    2  A    between atoms: C_6  and  C_7
REMARK    3  A    between atoms: C_11  and  C_12
REMARK    4  A    between atoms: C_14  and  C_15
REMARK    5  A    between atoms: C_20  and  C_21
REMARK                            x       y       z     vdW  Elec       q    Type
REMARK                         _______ _______ _______ _____ _____    ______ ____
ROOT
ATOM      1  C   UNL     1       4.772   4.045  19.186  0.00  0.00    +0.000 C 
ATOM      2  O   UNL     1       5.468   3.538  20.063  0.00  0.00    +0.000 OA
ATOM      3  N   UNL     1       5.346   4.516  18.008  0.00  0.00    +0.000 N 
ATOM      4  C   UNL     1       6.775   4.384  17.783  0.00  0.00    +0.000 C 
ATOM      5  C   UNL     1       7.036   5.264  16.561  0.00  0.00    +0.000 C 
ATOM      6  C   UNL     1       5.760   5.076  15.710  0.00  0.00    +0.000 C 
ATOM      7  C   UNL     1       4.662   4.717  16.732  0.00  0.00    +0.000 C 
ENDROOT
BRANCH   1  13
ATOM      8  C   UNL     1       2.401   1.952  18.374  0.00  0.00    +0.000 C 
ATOM      9  C   UNL     1       2.364   3.291  19.000  0.00  0.00    +0.000 A 
ATOM     10  O   UNL     1       1.118   3.759  19.288  0.00  0.00    +0.000 OA
ATOM     11  C   UNL     1       1.269   4.949  19.911  0.00  0.00    +0.000 A 
ATOM     12  C   UNL     1       2.601   5.255  20.031  0.00  0.00    +0.000 A 
ATOM     13  C   UNL     1       3.333   4.217  19.372  0.00  0.00    +0.000 A 
ENDBRANCH   1  13
BRANCH   5  14
ATOM     14  C   UNL     1       7.275   6.701  16.939  0.00  0.00    +0.000 A 
ATOM     15  N   UNL     1       8.291   7.183  17.626  0.00  0.00    +0.000 NA
ATOM     16  C   UNL     1       7.943   8.495  17.840  0.00  0.00    +0.000 A 
ATOM     17  N   UNL     1       6.800   8.868  17.256  0.00  0.00    +0.000 NA
ATOM     18  N   UNL     1       6.389   7.720  16.703  0.00  0.00    +0.000 N 
ATOM     19  H   UNL     1       5.485   7.684  16.245  0.00  0.00    +0.000 HD
BRANCH  16  20
ATOM     20  C   UNL     1       8.721   9.439  18.743  0.00  0.00    +0.000 C 
ATOM     21  C   UNL     1       8.513  10.935  18.645  0.00  0.00    +0.000 C 
ATOM     22  C   UNL     1       9.756  10.334  18.086  0.00  0.00    +0.000 C 
ENDBRANCH  16  20
ENDBRANCH   5  14
BRANCH   6  23
ATOM     23  C   UNL     1       5.915   3.974  14.683  0.00  0.00    +0.000 C 
ATOM     24  C   UNL     1       6.797   4.166  13.477  0.00  0.00    +0.000 C 
ATOM     25  C   UNL     1       5.304   4.148  13.312  0.00  0.00    +0.000 C 
ENDBRANCH   6  23
TORSDOF 4
ENDMDL
MODEL 8
REMARK VINA RESULT:      -6.5      2.279      5.017
REMARK  Name = 
REMARK  5 active torsions:
REMARK  status: ('A' for Active; 'I' for Inactive)
REMARK    1  A    between atoms: C_1  and  C_2
REMARK    2  A    between atoms: C_6  and  C_7
REMARK    3  A    between atoms: C_11  and  C_12
REMARK    4  A    between atoms: C_14  and  C_15
REMARK    5  A    between atoms: C_20  and  C_21
REMARK                            x       y       z     vdW  Elec       q    Type
REMARK                         _______ _______ _______ _____ _____    ______ ____
ROOT
ATOM      1  C   UNL     1       4.673   3.609  18.832  0.00  0.00    +0.000 C 
ATOM      2  O   UNL     1       5.354   3.109  19.726  0.00  0.00    +0.000 OA
ATOM      3  N   UNL     1       5.275   4.142  17.696  0.00  0.00    +0.000 N 
ATOM      4  C   UNL     1       6.718   4.086  17.534  0.00  0.00    +0.000 C 
ATOM      5  C   UNL     1       6.988   5.014  16.350  0.00  0.00    +0.000 C 
ATOM      6  C   UNL     1       5.763   4.790  15.436  0.00  0.00    +0.000 C 
ATOM      7  C   UNL     1       4.640   4.347  16.396  0.00  0.00    +0.000 C 
ENDROOT
BRANCH   1  13
ATOM      8  C   UNL     1       2.903   6.290  19.411  0.00  0.00    +0.000 C 
ATOM      9  C   UNL     1       2.517   4.877  19.211  0.00  0.00    +0.000 A 
ATOM     10  O   UNL     1       1.180   4.627  19.290  0.00  0.00    +0.000 OA
ATOM     11  C   UNL     1       1.000   3.316  19.017  0.00  0.00    +0.000 A 
ATOM     12  C   UNL     1       2.206   2.715  18.760  0.00  0.00    +0.000 A 
ATOM     13  C   UNL     1       3.220   3.705  18.957  0.00  0.00    +0.000 A 
ENDBRANCH   1  13
BRANCH   5  14
ATOM     14  C   UNL     1       7.138   6.449  16.778  0.00  0.00    +0.000 A 
ATOM     15  N   UNL     1       8.176   6.994  17.380  0.00  0.00    +0.000 NA
ATOM     16  C   UNL     1       7.738   8.256  17.700  0.00  0.00    +0.000 A 
ATOM     17  N   UNL     1       6.509   8.546  17.260  0.00  0.00    +0.000 NA
ATOM     18  N   UNL     1       6.145   7.389  16.692  0.00  0.00    +0.000 N 
ATOM     19  H   UNL     1       5.203   7.289  16.329  0.00  0.00    +0.000 HD
BRANCH  16  20
ATOM     20  C   UNL     1       8.523   9.229  18.567  0.00  0.00    +0.000 C 
ATOM     21  C   UNL     1       8.203  10.708  18.538  0.00  0.00    +0.000 C 
ATOM     22  C   UNL     1       9.433  10.214  17.856  0.00  0.00    +0.000 C 
ENDBRANCH  16  20
ENDBRANCH   5  14
BRANCH   6  23
ATOM     23  C   UNL     1       6.018   3.728  14.387  0.00  0.00    +0.000 C 
ATOM     24  C   UNL     1       6.830   4.042  13.157  0.00  0.00    +0.000 C 
ATOM     25  C   UNL     1       5.347   3.842  13.039  0.00  0.00    +0.000 C 
ENDBRANCH   6  23
TORSDOF 4
ENDMDL
MODEL 9
REMARK VINA RESULT:      -6.5      3.472      5.704
REMARK  Name = 
REMARK  5 active torsions:
REMARK  status: ('A' for Active; 'I' for Inactive)
REMARK    1  A    between atoms: C_1  and  C_2
REMARK    2  A    between atoms: C_6  and  C_7
REMARK    3  A    between atoms: C_11  and  C_12
REMARK    4  A    between atoms: C_14  and  C_15
REMARK    5  A    between atoms: C_20  and  C_21
REMARK                            x       y       z     vdW  Elec       q    Type
REMARK                         _______ _______ _______ _____ _____    ______ ____
ROOT
ATOM      1  C   UNL     1       1.947   7.676  20.210  0.00  0.00    +0.000 C 
ATOM      2  O   UNL     1       2.007   7.763  21.436  0.00  0.00    +0.000 OA
ATOM      3  N   UNL     1       2.366   6.518  19.560  0.00  0.00    +0.000 N 
ATOM      4  C   UNL     1       2.849   5.381  20.325  0.00  0.00    +0.000 C 
ATOM      5  C   UNL     1       3.472   4.469  19.268  0.00  0.00    +0.000 C 
ATOM      6  C   UNL     1       2.553   4.667  18.041  0.00  0.00    +0.000 C 
ATOM      7  C   UNL     1       1.961   6.080  18.226  0.00  0.00    +0.000 C 
ENDROOT
BRANCH   1  13
ATOM      8  C   UNL     1      -0.343   9.874  20.976  0.00  0.00    +0.000 C 
ATOM      9  C   UNL     1       0.498   9.704  19.772  0.00  0.00    +0.000 A 
ATOM     10  O   UNL     1       0.284  10.617  18.784  0.00  0.00    +0.000 OA
ATOM     11  C   UNL     1       1.174  10.360  17.799  0.00  0.00    +0.000 A 
ATOM     12  C   UNL     1       1.963   9.291  18.141  0.00  0.00    +0.000 A 
ATOM     13  C   UNL     1       1.485   8.798  19.397  0.00  0.00    +0.000 A 
ENDBRANCH   1  13
BRANCH   5  14
ATOM     14  C   UNL     1       4.905   4.828  18.983  0.00  0.00    +0.000 A 
ATOM     15  N   UNL     1       5.361   5.981  18.538  0.00  0.00    +0.000 NA
ATOM     16  C   UNL     1       6.688   5.729  18.287  0.00  0.00    +0.000 A 
ATOM     17  N   UNL     1       7.093   4.500  18.625  0.00  0.00    +0.000 NA
ATOM     18  N   UNL     1       5.951   3.946  19.051  0.00  0.00    +0.000 N 
ATOM     19  H   UNL     1       5.941   2.964  19.307  0.00  0.00    +0.000 HD
BRANCH  16  20
ATOM     20  C   UNL     1       7.619   6.710  17.591  0.00  0.00    +0.000 C 
ATOM     21  C   UNL     1       8.313   7.797  18.382  0.00  0.00    +0.000 C 
ATOM     22  C   UNL     1       7.164   8.156  17.504  0.00  0.00    +0.000 C 
ENDBRANCH  16  20
ENDBRANCH   5  14
BRANCH   6  23
ATOM     23  C   UNL     1       1.451   3.631  17.979  0.00  0.00    +0.000 C 
ATOM     24  C   UNL     1       1.137   2.770  19.174  0.00  0.00    +0.000 C 
ATOM     25  C   UNL     1       1.813   2.165  17.977  0.00  0.00    +0.000 C 
ENDBRANCH   6  23
TORSDOF 4
ENDMDL
