MODEL 1
REMARK VINA RESULT:      -8.2      0.000      0.000
REMARK  Name = 
REMARK  5 active torsions:
REMARK  status: ('A' for Active; 'I' for Inactive)
REMARK    1  A    between atoms: C_2  and  C_16
REMARK    2  A    between atoms: N_3  and  C_4
REMARK    3  A    between atoms: C_10  and  N_11
REMARK    4  A    between atoms: C_20  and  S_21
REMARK    5  A    between atoms: S_21  and  N_24
REMARK                            x       y       z     vdW  Elec       q    Type
REMARK                         _______ _______ _______ _____ _____    ______ ____
ROOT
ATOM      1  O   UNL     1       1.131   9.819  22.474  0.00  0.00    +0.000 OA
ATOM      2  C   UNL     1       0.859  10.154  21.325  0.00  0.00    +0.000 C 
ATOM      3  N   UNL     1       0.097  11.245  20.939  0.00  0.00    +0.000 N 
ATOM      4  H   UNL     1      -0.241  11.280  19.974  0.00  0.00    +0.000 HD
ENDROOT
BRANCH   3   5
ATOM      5  C   UNL     1      -0.517  12.165  21.832  0.00  0.00    +0.000 A 
ATOM      6  C   UNL     1      -1.649  11.778  22.566  0.00  0.00    +0.000 A 
ATOM      7  C   UNL     1      -2.343  12.681  23.358  0.00  0.00    +0.000 A 
ATOM      8 CL   UNL     1      -3.798  12.197  24.139  0.00  0.00    +0.000 Cl
ATOM      9  C   UNL     1      -1.880  13.979  23.494  0.00  0.00    +0.000 A 
ATOM     10  C   UNL     1      -0.717  14.376  22.831  0.00  0.00    +0.000 A 
ATOM     11  C   UNL     1      -0.024  13.485  21.984  0.00  0.00    +0.000 A 
BRANCH  11  12
ATOM     12  N   UNL     1       1.111  13.963  21.265  0.00  0.00    +0.000 N 
ATOM     13  C   UNL     1       1.171  14.956  20.313  0.00  0.00    +0.000 A 
ATOM     14  N   UNL     1       2.380  15.049  19.813  0.00  0.00    +0.000 NA
ATOM     15  C   UNL     1       3.064  14.101  20.505  0.00  0.00    +0.000 A 
ATOM     16  N   UNL     1       2.357  13.432  21.419  0.00  0.00    +0.000 NA
ENDBRANCH  11  12
ENDBRANCH   3   5
BRANCH   2  17
ATOM     17  C   UNL     1       1.339   9.257  20.252  0.00  0.00    +0.000 A 
ATOM     18  C   UNL     1       1.332   9.773  18.949  0.00  0.00    +0.000 A 
ATOM     19  C   UNL     1       1.721   8.979  17.876  0.00  0.00    +0.000 A 
ATOM     20  C   UNL     1       2.114   7.659  18.103  0.00  0.00    +0.000 A 
ATOM     21  C   UNL     1       2.097   7.128  19.402  0.00  0.00    +0.000 A 
ATOM     22  C   UNL     1       1.729   7.938  20.491  0.00  0.00    +0.000 A 
BRANCH  21  23
ATOM     23  S   UNL     1       2.802   5.516  19.713  0.00  0.00    +0.000 S 
ATOM     24  O   UNL     1       4.241   5.683  19.624  0.00  0.00    +0.000 OA
ATOM     25  O   UNL     1       2.192   5.022  20.927  0.00  0.00    +0.000 OA
BRANCH  23  26
ATOM     26  N   UNL     1       2.331   4.513  18.448  0.00  0.00    +0.000 NA
ATOM     27  C   UNL     1       1.276   3.493  18.638  0.00  0.00    +0.000 C 
ATOM     28  C   UNL     1       1.900   2.132  18.952  0.00  0.00    +0.000 C 
ATOM     29  O   UNL     1       2.881   1.739  17.979  0.00  0.00    +0.000 OA
ATOM     30  C   UNL     1       3.897   2.731  17.768  0.00  0.00    +0.000 C 
ATOM     31  C   UNL     1       3.300   4.091  17.413  0.00  0.00    +0.000 C 
ENDBRANCH  23  26
ENDBRANCH  21  23
ENDBRANCH   2  17
TORSDOF 5
ENDMDL
MODEL 2
REMARK VINA RESULT:      -8.1      4.807      9.320
REMARK  Name = 
REMARK  5 active torsions:
REMARK  status: ('A' for Active; 'I' for Inactive)
REMARK    1  A    between atoms: C_2  and  C_16
REMARK    2  A    between atoms: N_3  and  C_4
REMARK    3  A    between atoms: C_10  and  N_11
REMARK    4  A    between atoms: C_20  and  S_21
REMARK    5  A    between atoms: S_21  and  N_24
REMARK                            x       y       z     vdW  Elec       q    Type
REMARK                         _______ _______ _______ _____ _____    ______ ____
ROOT
ATOM      1  O   UNL     1       2.500   8.433  17.249  0.00  0.00    +0.000 OA
ATOM      2  C   UNL     1       2.240   7.985  18.362  0.00  0.00    +0.000 C 
ATOM      3  N   UNL     1       2.644   6.764  18.878  0.00  0.00    +0.000 N 
ATOM      4  H   UNL     1       2.174   6.417  19.718  0.00  0.00    +0.000 HD
ENDROOT
BRANCH   3   5
ATOM      5  C   UNL     1       3.431   5.808  18.182  0.00  0.00    +0.000 A 
ATOM      6  C   UNL     1       4.268   6.219  17.134  0.00  0.00    +0.000 A 
ATOM      7  C   UNL     1       4.963   5.302  16.358  0.00  0.00    +0.000 A 
ATOM      8 CL   UNL     1       5.877   5.842  15.004  0.00  0.00    +0.000 Cl
ATOM      9  C   UNL     1       4.895   3.952  16.656  0.00  0.00    +0.000 A 
ATOM     10  C   UNL     1       4.125   3.517  17.737  0.00  0.00    +0.000 A 
ATOM     11  C   UNL     1       3.375   4.429  18.509  0.00  0.00    +0.000 A 
BRANCH  11  12
ATOM     12  N   UNL     1       2.539   3.925  19.549  0.00  0.00    +0.000 N 
ATOM     13  C   UNL     1       2.902   3.250  20.693  0.00  0.00    +0.000 A 
ATOM     14  N   UNL     1       1.841   2.867  21.363  0.00  0.00    +0.000 NA
ATOM     15  C   UNL     1       0.819   3.350  20.610  0.00  0.00    +0.000 A 
ATOM     16  N   UNL     1       1.180   4.025  19.515  0.00  0.00    +0.000 NA
ENDBRANCH  11  12
ENDBRANCH   3   5
BRANCH   2  17
ATOM     17  C   UNL     1       1.346   8.808  19.205  0.00  0.00    +0.000 A 
ATOM     18  C   UNL     1       1.550   8.743  20.590  0.00  0.00    +0.000 A 
ATOM     19  C   UNL     1       0.721   9.448  21.456  0.00  0.00    +0.000 A 
ATOM     20  C   UNL     1      -0.323  10.217  20.938  0.00  0.00    +0.000 A 
ATOM     21  C   UNL     1      -0.549  10.263  19.554  0.00  0.00    +0.000 A 
ATOM     22  C   UNL     1       0.304   9.572  18.675  0.00  0.00    +0.000 A 
BRANCH  21  23
ATOM     23  S   UNL     1      -1.744  11.412  18.886  0.00  0.00    +0.000 S 
ATOM     24  O   UNL     1      -2.430  11.986  20.028  0.00  0.00    +0.000 OA
ATOM     25  O   UNL     1      -1.033  12.256  17.953  0.00  0.00    +0.000 OA
BRANCH  23  26
ATOM     26  N   UNL     1      -2.871  10.512  18.020  0.00  0.00    +0.000 NA
ATOM     27  C   UNL     1      -2.505   9.863  16.742  0.00  0.00    +0.000 C 
ATOM     28  C   UNL     1      -2.903  10.749  15.560  0.00  0.00    +0.000 C 
ATOM     29  O   UNL     1      -4.284  11.141  15.607  0.00  0.00    +0.000 OA
ATOM     30  C   UNL     1      -4.657  11.751  16.852  0.00  0.00    +0.000 C 
ATOM     31  C   UNL     1      -4.306  10.866  18.047  0.00  0.00    +0.000 C 
ENDBRANCH  23  26
ENDBRANCH  21  23
ENDBRANCH   2  17
TORSDOF 5
ENDMDL
MODEL 3
REMARK VINA RESULT:      -8.1      4.593      9.495
REMARK  Name = 
REMARK  5 active torsions:
REMARK  status: ('A' for Active; 'I' for Inactive)
REMARK    1  A    between atoms: C_2  and  C_16
REMARK    2  A    between atoms: N_3  and  C_4
REMARK    3  A    between atoms: C_10  and  N_11
REMARK    4  A    between atoms: C_20  and  S_21
REMARK    5  A    between atoms: S_21  and  N_24
REMARK                            x       y       z     vdW  Elec       q    Type
REMARK                         _______ _______ _______ _____ _____    ______ ____
ROOT
ATOM      1  O   UNL     1       4.180   7.393  17.242  0.00  0.00    +0.000 OA
ATOM      2  C   UNL     1       3.931   6.280  17.694  0.00  0.00    +0.000 C 
ATOM      3  N   UNL     1       4.400   5.067  17.216  0.00  0.00    +0.000 N 
ATOM      4  H   UNL     1       3.939   4.211  17.537  0.00  0.00    +0.000 HD
ENDROOT
BRANCH   3   5
ATOM      5  C   UNL     1       5.254   4.912  16.092  0.00  0.00    +0.000 A 
ATOM      6  C   UNL     1       4.741   4.407  14.887  0.00  0.00    +0.000 A 
ATOM      7  C   UNL     1       5.565   4.134  13.805  0.00  0.00    +0.000 A 
ATOM      8 CL   UNL     1       4.913   3.396  12.394  0.00  0.00    +0.000 Cl
ATOM      9  C   UNL     1       6.917   4.427  13.874  0.00  0.00    +0.000 A 
ATOM     10  C   UNL     1       7.446   4.995  15.036  0.00  0.00    +0.000 A 
ATOM     11  C   UNL     1       6.632   5.237  16.163  0.00  0.00    +0.000 A 
BRANCH  11  12
ATOM     12  N   UNL     1       7.238   5.741  17.351  0.00  0.00    +0.000 N 
ATOM     13  C   UNL     1       7.692   7.014  17.613  0.00  0.00    +0.000 A 
ATOM     14  N   UNL     1       8.271   7.069  18.788  0.00  0.00    +0.000 NA
ATOM     15  C   UNL     1       8.134   5.799  19.250  0.00  0.00    +0.000 A 
ATOM     16  N   UNL     1       7.491   4.956  18.437  0.00  0.00    +0.000 NA
ENDBRANCH  11  12
ENDBRANCH   3   5
BRANCH   2  17
ATOM     17  C   UNL     1       2.975   6.233  18.822  0.00  0.00    +0.000 A 
ATOM     18  C   UNL     1       2.614   4.962  19.289  0.00  0.00    +0.000 A 
ATOM     19  C   UNL     1       1.684   4.828  20.314  0.00  0.00    +0.000 A 
ATOM     20  C   UNL     1       1.104   5.969  20.873  0.00  0.00    +0.000 A 
ATOM     21  C   UNL     1       1.442   7.243  20.390  0.00  0.00    +0.000 A 
ATOM     22  C   UNL     1       2.402   7.382  19.372  0.00  0.00    +0.000 A 
BRANCH  21  23
ATOM     23  S   UNL     1       0.864   8.700  21.248  0.00  0.00    +0.000 S 
ATOM     24  O   UNL     1      -0.523   8.442  21.588  0.00  0.00    +0.000 OA
ATOM     25  O   UNL     1       1.833   8.986  22.281  0.00  0.00    +0.000 OA
BRANCH  23  26
ATOM     26  N   UNL     1       0.887   9.970  20.146  0.00  0.00    +0.000 NA
ATOM     27  C   UNL     1       0.939  11.375  20.605  0.00  0.00    +0.000 C 
ATOM     28  C   UNL     1      -0.469  11.974  20.654  0.00  0.00    +0.000 C 
ATOM     29  O   UNL     1      -1.173  11.823  19.412  0.00  0.00    +0.000 OA
ATOM     30  C   UNL     1      -1.210  10.466  18.943  0.00  0.00    +0.000 C 
ATOM     31  C   UNL     1       0.188   9.859  18.847  0.00  0.00    +0.000 C 
ENDBRANCH  23  26
ENDBRANCH  21  23
ENDBRANCH   2  17
TORSDOF 5
ENDMDL
MODEL 4
REMARK VINA RESULT:      -8.0      3.471      4.665
REMARK  Name = 
REMARK  5 active torsions:
REMARK  status: ('A' for Active; 'I' for Inactive)
REMARK    1  A    between atoms: C_2  and  C_16
REMARK    2  A    between atoms: N_3  and  C_4
REMARK    3  A    between atoms: C_10  and  N_11
REMARK    4  A    between atoms: C_20  and  S_21
REMARK    5  A    between atoms: S_21  and  N_24
REMARK                            x       y       z     vdW  Elec       q    Type
REMARK                         _______ _______ _______ _____ _____    ______ ____
ROOT
ATOM      1  O   UNL     1       2.357   9.815  17.473  0.00  0.00    +0.000 OA
ATOM      2  C   UNL     1       1.836   9.542  18.549  0.00  0.00    +0.000 C 
ATOM      3  N   UNL     1       1.146  10.411  19.379  0.00  0.00    +0.000 N 
ATOM      4  H   UNL     1       0.962  10.115  20.342  0.00  0.00    +0.000 HD
ENDROOT
BRANCH   3   5
ATOM      5  C   UNL     1       0.938  11.792  19.118  0.00  0.00    +0.000 A 
ATOM      6  C   UNL     1       1.934  12.724  19.446  0.00  0.00    +0.000 A 
ATOM      7  C   UNL     1       1.723  14.089  19.313  0.00  0.00    +0.000 A 
ATOM      8 CL   UNL     1       2.925  15.199  19.847  0.00  0.00    +0.000 Cl
ATOM      9  C   UNL     1       0.534  14.555  18.779  0.00  0.00    +0.000 A 
ATOM     10  C   UNL     1      -0.451  13.649  18.379  0.00  0.00    +0.000 A 
ATOM     11  C   UNL     1      -0.273  12.260  18.549  0.00  0.00    +0.000 A 
BRANCH  11  12
ATOM     12  N   UNL     1      -1.342  11.383  18.201  0.00  0.00    +0.000 N 
ATOM     13  C   UNL     1      -2.678  11.486  18.519  0.00  0.00    +0.000 A 
ATOM     14  N   UNL     1      -3.339  10.435  18.095  0.00  0.00    +0.000 NA
ATOM     15  C   UNL     1      -2.374   9.699  17.485  0.00  0.00    +0.000 A 
ATOM     16  N   UNL     1      -1.150  10.235  17.491  0.00  0.00    +0.000 NA
ENDBRANCH  11  12
ENDBRANCH   3   5
BRANCH   2  17
ATOM     17  C   UNL     1       2.028   8.158  19.036  0.00  0.00    +0.000 A 
ATOM     18  C   UNL     1       1.362   7.809  20.219  0.00  0.00    +0.000 A 
ATOM     19  C   UNL     1       1.528   6.543  20.771  0.00  0.00    +0.000 A 
ATOM     20  C   UNL     1       2.369   5.622  20.143  0.00  0.00    +0.000 A 
ATOM     21  C   UNL     1       3.059   5.977  18.974  0.00  0.00    +0.000 A 
ATOM     22  C   UNL     1       2.872   7.247  18.400  0.00  0.00    +0.000 A 
BRANCH  21  23
ATOM     23  S   UNL     1       3.959   4.731  18.061  0.00  0.00    +0.000 S 
ATOM     24  O   UNL     1       4.557   3.859  19.055  0.00  0.00    +0.000 OA
ATOM     25  O   UNL     1       3.050   4.203  17.070  0.00  0.00    +0.000 OA
BRANCH  23  26
ATOM     26  N   UNL     1       5.212   5.512  17.255  0.00  0.00    +0.000 NA
ATOM     27  C   UNL     1       5.447   5.284  15.812  0.00  0.00    +0.000 C 
ATOM     28  C   UNL     1       6.522   4.213  15.609  0.00  0.00    +0.000 C 
ATOM     29  O   UNL     1       7.730   4.504  16.328  0.00  0.00    +0.000 OA
ATOM     30  C   UNL     1       7.512   4.751  17.725  0.00  0.00    +0.000 C 
ATOM     31  C   UNL     1       6.472   5.846  17.954  0.00  0.00    +0.000 C 
ENDBRANCH  23  26
ENDBRANCH  21  23
ENDBRANCH   2  17
TORSDOF 5
ENDMDL
MODEL 5
REMARK VINA RESULT:      -7.9      3.960      9.579
REMARK  Name = 
REMARK  5 active torsions:
REMARK  status: ('A' for Active; 'I' for Inactive)
REMARK    1  A    between atoms: C_2  and  C_16
REMARK    2  A    between atoms: N_3  and  C_4
REMARK    3  A    between atoms: C_10  and  N_11
REMARK    4  A    between atoms: C_20  and  S_21
REMARK    5  A    between atoms: S_21  and  N_24
REMARK                            x       y       z     vdW  Elec       q    Type
REMARK                         _______ _______ _______ _____ _____    ______ ____
ROOT
ATOM      1  O   UNL     1       2.790   8.404  17.858  0.00  0.00    +0.000 OA
ATOM      2  C   UNL     1       2.365   7.834  18.858  0.00  0.00    +0.000 C 
ATOM      3  N   UNL     1       2.585   6.514  19.216  0.00  0.00    +0.000 N 
ATOM      4  H   UNL     1       1.993   6.105  19.944  0.00  0.00    +0.000 HD
ENDROOT
BRANCH   3   5
ATOM      5  C   UNL     1       3.346   5.582  18.459  0.00  0.00    +0.000 A 
ATOM      6  C   UNL     1       4.087   6.020  17.351  0.00  0.00    +0.000 A 
ATOM      7  C   UNL     1       4.748   5.126  16.521  0.00  0.00    +0.000 A 
ATOM      8 CL   UNL     1       5.537   5.695  15.101  0.00  0.00    +0.000 Cl
ATOM      9  C   UNL     1       4.746   3.774  16.820  0.00  0.00    +0.000 A 
ATOM     10  C   UNL     1       4.075   3.315  17.956  0.00  0.00    +0.000 A 
ATOM     11  C   UNL     1       3.359   4.203  18.786  0.00  0.00    +0.000 A 
BRANCH  11  12
ATOM     12  N   UNL     1       2.622   3.672  19.886  0.00  0.00    +0.000 N 
ATOM     13  C   UNL     1       3.096   3.038  21.012  0.00  0.00    +0.000 A 
ATOM     14  N   UNL     1       2.104   2.610  21.756  0.00  0.00    +0.000 NA
ATOM     15  C   UNL     1       1.010   3.024  21.066  0.00  0.00    +0.000 A 
ATOM     16  N   UNL     1       1.260   3.698  19.940  0.00  0.00    +0.000 NA
ENDBRANCH  11  12
ENDBRANCH   3   5
BRANCH   2  17
ATOM     17  C   UNL     1       1.468   8.624  19.729  0.00  0.00    +0.000 A 
ATOM     18  C   UNL     1       1.334   8.190  21.055  0.00  0.00    +0.000 A 
ATOM     19  C   UNL     1       0.473   8.849  21.926  0.00  0.00    +0.000 A 
ATOM     20  C   UNL     1      -0.265   9.943  21.470  0.00  0.00    +0.000 A 
ATOM     21  C   UNL     1      -0.155  10.365  20.136  0.00  0.00    +0.000 A 
ATOM     22  C   UNL     1       0.735   9.717  19.261  0.00  0.00    +0.000 A 
BRANCH  21  23
ATOM     23  S   UNL     1      -0.932  11.889  19.619  0.00  0.00    +0.000 S 
ATOM     24  O   UNL     1      -0.895  11.886  18.168  0.00  0.00    +0.000 OA
ATOM     25  O   UNL     1      -2.192  11.973  20.322  0.00  0.00    +0.000 OA
BRANCH  23  26
ATOM     26  N   UNL     1       0.045  13.151  20.147  0.00  0.00    +0.000 NA
ATOM     27  C   UNL     1      -0.431  14.551  20.102  0.00  0.00    +0.000 C 
ATOM     28  C   UNL     1       0.057  15.241  18.826  0.00  0.00    +0.000 C 
ATOM     29  O   UNL     1       1.478  15.133  18.652  0.00  0.00    +0.000 OA
ATOM     30  C   UNL     1       1.956  13.781  18.718  0.00  0.00    +0.000 C 
ATOM     31  C   UNL     1       1.516  13.083  20.003  0.00  0.00    +0.000 C 
ENDBRANCH  23  26
ENDBRANCH  21  23
ENDBRANCH   2  17
TORSDOF 5
ENDMDL
MODEL 6
REMARK VINA RESULT:      -7.8      3.897      9.674
REMARK  Name = 
REMARK  5 active torsions:
REMARK  status: ('A' for Active; 'I' for Inactive)
REMARK    1  A    between atoms: C_2  and  C_16
REMARK    2  A    between atoms: N_3  and  C_4
REMARK    3  A    between atoms: C_10  and  N_11
REMARK    4  A    between atoms: C_20  and  S_21
REMARK    5  A    between atoms: S_21  and  N_24
REMARK                            x       y       z     vdW  Elec       q    Type
REMARK                         _______ _______ _______ _____ _____    ______ ____
ROOT
ATOM      1  O   UNL     1       2.255   8.191  17.749  0.00  0.00    +0.000 OA
ATOM      2  C   UNL     1       2.206   7.758  18.896  0.00  0.00    +0.000 C 
ATOM      3  N   UNL     1       2.749   6.570  19.358  0.00  0.00    +0.000 N 
ATOM      4  H   UNL     1       2.443   6.221  20.270  0.00  0.00    +0.000 HD
ENDROOT
BRANCH   3   5
ATOM      5  C   UNL     1       3.456   5.633  18.556  0.00  0.00    +0.000 A 
ATOM      6  C   UNL     1       4.168   6.073  17.430  0.00  0.00    +0.000 A 
ATOM      7  C   UNL     1       4.774   5.178  16.559  0.00  0.00    +0.000 A 
ATOM      8 CL   UNL     1       5.528   5.754  15.124  0.00  0.00    +0.000 Cl
ATOM      9  C   UNL     1       4.745   3.821  16.833  0.00  0.00    +0.000 A 
ATOM     10  C   UNL     1       4.103   3.357  17.983  0.00  0.00    +0.000 A 
ATOM     11  C   UNL     1       3.442   4.248  18.855  0.00  0.00    +0.000 A 
BRANCH  11  12
ATOM     12  N   UNL     1       2.731   3.715  19.971  0.00  0.00    +0.000 N 
ATOM     13  C   UNL     1       3.193   2.890  20.972  0.00  0.00    +0.000 A 
ATOM     14  N   UNL     1       2.216   2.539  21.773  0.00  0.00    +0.000 NA
ATOM     15  C   UNL     1       1.147   3.194  21.249  0.00  0.00    +0.000 A 
ATOM     16  N   UNL     1       1.402   3.945  20.175  0.00  0.00    +0.000 NA
ENDBRANCH  11  12
ENDBRANCH   3   5
BRANCH   2  17
ATOM     17  C   UNL     1       1.424   8.558  19.863  0.00  0.00    +0.000 A 
ATOM     18  C   UNL     1       1.428   8.120  21.194  0.00  0.00    +0.000 A 
ATOM     19  C   UNL     1       0.680   8.787  22.157  0.00  0.00    +0.000 A 
ATOM     20  C   UNL     1      -0.084   9.896  21.789  0.00  0.00    +0.000 A 
ATOM     21  C   UNL     1      -0.115  10.323  20.453  0.00  0.00    +0.000 A 
ATOM     22  C   UNL     1       0.662   9.665  19.483  0.00  0.00    +0.000 A 
BRANCH  21  23
ATOM     23  S   UNL     1      -0.918  11.863  20.029  0.00  0.00    +0.000 S 
ATOM     24  O   UNL     1      -1.638  11.613  18.794  0.00  0.00    +0.000 OA
ATOM     25  O   UNL     1      -1.618  12.306  21.213  0.00  0.00    +0.000 OA
BRANCH  23  26
ATOM     26  N   UNL     1       0.293  12.980  19.691  0.00  0.00    +0.000 NA
ATOM     27  C   UNL     1       1.245  13.410  20.739  0.00  0.00    +0.000 C 
ATOM     28  C   UNL     1       0.776  14.716  21.383  0.00  0.00    +0.000 C 
ATOM     29  O   UNL     1       0.516  15.744  20.415  0.00  0.00    +0.000 OA
ATOM     30  C   UNL     1      -0.388  15.332  19.379  0.00  0.00    +0.000 C 
ATOM     31  C   UNL     1       0.080  14.050  18.692  0.00  0.00    +0.000 C 
ENDBRANCH  23  26
ENDBRANCH  21  23
ENDBRANCH   2  17
TORSDOF 5
ENDMDL
MODEL 7
REMARK VINA RESULT:      -7.8      2.251      3.096
REMARK  Name = 
REMARK  5 active torsions:
REMARK  status: ('A' for Active; 'I' for Inactive)
REMARK    1  A    between atoms: C_2  and  C_16
REMARK    2  A    between atoms: N_3  and  C_4
REMARK    3  A    between atoms: C_10  and  N_11
REMARK    4  A    between atoms: C_20  and  S_21
REMARK    5  A    between atoms: S_21  and  N_24
REMARK                            x       y       z     vdW  Elec       q    Type
REMARK                         _______ _______ _______ _____ _____    ______ ____
ROOT
ATOM      1  O   UNL     1       0.029   9.489  21.523  0.00  0.00    +0.000 OA
ATOM      2  C   UNL     1       0.332   9.937  20.421  0.00  0.00    +0.000 C 
ATOM      3  N   UNL     1      -0.130  11.111  19.849  0.00  0.00    +0.000 N 
ATOM      4  H   UNL     1       0.020  11.251  18.846  0.00  0.00    +0.000 HD
ENDROOT
BRANCH   3   5
ATOM      5  C   UNL     1      -1.060  12.000  20.453  0.00  0.00    +0.000 A 
ATOM      6  C   UNL     1      -0.762  12.587  21.693  0.00  0.00    +0.000 A 
ATOM      7  C   UNL     1      -1.690  13.367  22.367  0.00  0.00    +0.000 A 
ATOM      8 CL   UNL     1      -1.329  13.961  23.942  0.00  0.00    +0.000 Cl
ATOM      9  C   UNL     1      -2.917  13.641  21.786  0.00  0.00    +0.000 A 
ATOM     10  C   UNL     1      -3.216  13.128  20.521  0.00  0.00    +0.000 A 
ATOM     11  C   UNL     1      -2.303  12.295  19.840  0.00  0.00    +0.000 A 
BRANCH  11  12
ATOM     12  N   UNL     1      -2.691  11.729  18.590  0.00  0.00    +0.000 N 
ATOM     13  C   UNL     1      -3.911  11.206  18.223  0.00  0.00    +0.000 A 
ATOM     14  N   UNL     1      -3.854  10.697  17.015  0.00  0.00    +0.000 NA
ATOM     15  C   UNL     1      -2.572  10.948  16.643  0.00  0.00    +0.000 A 
ATOM     16  N   UNL     1      -1.827  11.597  17.543  0.00  0.00    +0.000 NA
ENDBRANCH  11  12
ENDBRANCH   3   5
BRANCH   2  17
ATOM     17  C   UNL     1       1.227   9.096  19.597  0.00  0.00    +0.000 A 
ATOM     18  C   UNL     1       1.633   9.626  18.365  0.00  0.00    +0.000 A 
ATOM     19  C   UNL     1       2.435   8.880  17.509  0.00  0.00    +0.000 A 
ATOM     20  C   UNL     1       2.830   7.594  17.880  0.00  0.00    +0.000 A 
ATOM     21  C   UNL     1       2.404   7.047  19.101  0.00  0.00    +0.000 A 
ATOM     22  C   UNL     1       1.615   7.810  19.980  0.00  0.00    +0.000 A 
BRANCH  21  23
ATOM     23  S   UNL     1       3.085   5.494  19.666  0.00  0.00    +0.000 S 
ATOM     24  O   UNL     1       4.523   5.681  19.715  0.00  0.00    +0.000 OA
ATOM     25  O   UNL     1       2.350   5.125  20.853  0.00  0.00    +0.000 OA
BRANCH  23  26
ATOM     26  N   UNL     1       2.766   4.348  18.477  0.00  0.00    +0.000 NA
ATOM     27  C   UNL     1       1.377   3.944  18.165  0.00  0.00    +0.000 C 
ATOM     28  C   UNL     1       1.008   2.669  18.926  0.00  0.00    +0.000 C 
ATOM     29  O   UNL     1       1.954   1.610  18.715  0.00  0.00    +0.000 OA
ATOM     30  C   UNL     1       3.308   1.997  18.992  0.00  0.00    +0.000 C 
ATOM     31  C   UNL     1       3.714   3.245  18.212  0.00  0.00    +0.000 C 
ENDBRANCH  23  26
ENDBRANCH  21  23
ENDBRANCH   2  17
TORSDOF 5
ENDMDL
MODEL 8
REMARK VINA RESULT:      -7.8      4.027      9.346
REMARK  Name = 
REMARK  5 active torsions:
REMARK  status: ('A' for Active; 'I' for Inactive)
REMARK    1  A    between atoms: C_2  and  C_16
REMARK    2  A    between atoms: N_3  and  C_4
REMARK    3  A    between atoms: C_10  and  N_11
REMARK    4  A    between atoms: C_20  and  S_21
REMARK    5  A    between atoms: S_21  and  N_24
REMARK                            x       y       z     vdW  Elec       q    Type
REMARK                         _______ _______ _______ _____ _____    ______ ____
ROOT
ATOM      1  O   UNL     1       2.240   8.179  17.707  0.00  0.00    +0.000 OA
ATOM      2  C   UNL     1       2.243   7.782  18.868  0.00  0.00    +0.000 C 
ATOM      3  N   UNL     1       2.806   6.608  19.341  0.00  0.00    +0.000 N 
ATOM      4  H   UNL     1       2.542   6.288  20.277  0.00  0.00    +0.000 HD
ENDROOT
BRANCH   3   5
ATOM      5  C   UNL     1       3.476   5.646  18.538  0.00  0.00    +0.000 A 
ATOM      6  C   UNL     1       4.204   6.060  17.411  0.00  0.00    +0.000 A 
ATOM      7  C   UNL     1       4.774   5.144  16.539  0.00  0.00    +0.000 A 
ATOM      8 CL   UNL     1       5.547   5.692  15.103  0.00  0.00    +0.000 Cl
ATOM      9  C   UNL     1       4.694   3.788  16.811  0.00  0.00    +0.000 A 
ATOM     10  C   UNL     1       4.036   3.348  17.962  0.00  0.00    +0.000 A 
ATOM     11  C   UNL     1       3.410   4.262  18.836  0.00  0.00    +0.000 A 
BRANCH  11  12
ATOM     12  N   UNL     1       2.680   3.756  19.952  0.00  0.00    +0.000 N 
ATOM     13  C   UNL     1       3.129   2.964  20.985  0.00  0.00    +0.000 A 
ATOM     14  N   UNL     1       2.138   2.627  21.777  0.00  0.00    +0.000 NA
ATOM     15  C   UNL     1       1.076   3.258  21.213  0.00  0.00    +0.000 A 
ATOM     16  N   UNL     1       1.347   3.981  20.122  0.00  0.00    +0.000 NA
ENDBRANCH  11  12
ENDBRANCH   3   5
BRANCH   2  17
ATOM     17  C   UNL     1       1.506   8.614  19.845  0.00  0.00    +0.000 A 
ATOM     18  C   UNL     1       0.848   7.936  20.881  0.00  0.00    +0.000 A 
ATOM     19  C   UNL     1       0.093   8.639  21.812  0.00  0.00    +0.000 A 
ATOM     20  C   UNL     1      -0.014  10.027  21.706  0.00  0.00    +0.000 A 
ATOM     21  C   UNL     1       0.619  10.708  20.655  0.00  0.00    +0.000 A 
ATOM     22  C   UNL     1       1.405  10.002  19.727  0.00  0.00    +0.000 A 
BRANCH  21  23
ATOM     23  S   UNL     1       0.657  12.495  20.648  0.00  0.00    +0.000 S 
ATOM     24  O   UNL     1       0.350  12.908  22.005  0.00  0.00    +0.000 OA
ATOM     25  O   UNL     1       1.902  12.882  20.025  0.00  0.00    +0.000 OA
BRANCH  23  26
ATOM     26  N   UNL     1      -0.603  13.016  19.664  0.00  0.00    +0.000 NA
ATOM     27  C   UNL     1      -1.831  13.602  20.247  0.00  0.00    +0.000 C 
ATOM     28  C   UNL     1      -2.918  12.533  20.387  0.00  0.00    +0.000 C 
ATOM     29  O   UNL     1      -3.166  11.837  19.156  0.00  0.00    +0.000 OA
ATOM     30  C   UNL     1      -1.979  11.285  18.568  0.00  0.00    +0.000 C 
ATOM     31  C   UNL     1      -0.892  12.342  18.380  0.00  0.00    +0.000 C 
ENDBRANCH  23  26
ENDBRANCH  21  23
ENDBRANCH   2  17
TORSDOF 5
ENDMDL
MODEL 9
REMARK VINA RESULT:      -7.8      3.931      9.467
REMARK  Name = 
REMARK  5 active torsions:
REMARK  status: ('A' for Active; 'I' for Inactive)
REMARK    1  A    between atoms: C_2  and  C_16
REMARK    2  A    between atoms: N_3  and  C_4
REMARK    3  A    between atoms: C_10  and  N_11
REMARK    4  A    between atoms: C_20  and  S_21
REMARK    5  A    between atoms: S_21  and  N_24
REMARK                            x       y       z     vdW  Elec       q    Type
REMARK                         _______ _______ _______ _____ _____    ______ ____
ROOT
ATOM      1  O   UNL     1       2.383   8.442  17.328  0.00  0.00    +0.000 OA
ATOM      2  C   UNL     1       2.222   8.014  18.466  0.00  0.00    +0.000 C 
ATOM      3  N   UNL     1       2.704   6.821  18.979  0.00  0.00    +0.000 N 
ATOM      4  H   UNL     1       2.310   6.480  19.860  0.00  0.00    +0.000 HD
ENDROOT
BRANCH   3   5
ATOM      5  C   UNL     1       3.470   5.872  18.249  0.00  0.00    +0.000 A 
ATOM      6  C   UNL     1       4.312   6.302  17.212  0.00  0.00    +0.000 A 
ATOM      7  C   UNL     1       4.985   5.398  16.402  0.00  0.00    +0.000 A 
ATOM      8 CL   UNL     1       5.905   5.965  15.063  0.00  0.00    +0.000 Cl
ATOM      9  C   UNL     1       4.892   4.040  16.656  0.00  0.00    +0.000 A 
ATOM     10  C   UNL     1       4.117   3.585  17.725  0.00  0.00    +0.000 A 
ATOM     11  C   UNL     1       3.388   4.485  18.530  0.00  0.00    +0.000 A 
BRANCH  11  12
ATOM     12  N   UNL     1       2.546   3.963  19.556  0.00  0.00    +0.000 N 
ATOM     13  C   UNL     1       2.903   3.280  20.697  0.00  0.00    +0.000 A 
ATOM     14  N   UNL     1       1.839   2.881  21.352  0.00  0.00    +0.000 NA
ATOM     15  C   UNL     1       0.821   3.362  20.593  0.00  0.00    +0.000 A 
ATOM     16  N   UNL     1       1.186   4.051  19.508  0.00  0.00    +0.000 NA
ENDBRANCH  11  12
ENDBRANCH   3   5
BRANCH   2  17
ATOM     17  C   UNL     1       1.365   8.829  19.355  0.00  0.00    +0.000 A 
ATOM     18  C   UNL     1       1.377   8.500  20.717  0.00  0.00    +0.000 A 
ATOM     19  C   UNL     1       0.564   9.185  21.613  0.00  0.00    +0.000 A 
ATOM     20  C   UNL     1      -0.274  10.199  21.146  0.00  0.00    +0.000 A 
ATOM     21  C   UNL     1      -0.312  10.514  19.778  0.00  0.00    +0.000 A 
ATOM     22  C   UNL     1       0.530   9.841  18.875  0.00  0.00    +0.000 A 
BRANCH  21  23
ATOM     23  S   UNL     1      -1.219  11.949  19.220  0.00  0.00    +0.000 S 
ATOM     24  O   UNL     1      -1.340  11.812  17.781  0.00  0.00    +0.000 OA
ATOM     25  O   UNL     1      -2.397  12.045  20.052  0.00  0.00    +0.000 OA
BRANCH  23  26
ATOM     26  N   UNL     1      -0.257  13.295  19.522  0.00  0.00    +0.000 NA
ATOM     27  C   UNL     1       1.196  13.267  19.248  0.00  0.00    +0.000 C 
ATOM     28  C   UNL     1       1.974  12.928  20.522  0.00  0.00    +0.000 C 
ATOM     29  O   UNL     1       1.633  13.789  21.619  0.00  0.00    +0.000 OA
ATOM     30  C   UNL     1       0.222  13.843  21.880  0.00  0.00    +0.000 C 
ATOM     31  C   UNL     1      -0.573  14.220  20.631  0.00  0.00    +0.000 C 
ENDBRANCH  23  26
ENDBRANCH  21  23
ENDBRANCH   2  17
TORSDOF 5
ENDMDL
