MODEL 1
REMARK VINA RESULT:      -8.5      0.000      0.000
REMARK  Name = 
REMARK  3 active torsions:
REMARK  status: ('A' for Active; 'I' for Inactive)
REMARK    1  A    between atoms: C_2  and  C_16
REMARK    2  A    between atoms: N_3  and  C_4
REMARK    3  A    between atoms: C_4  and  C_5
REMARK                            x       y       z     vdW  Elec       q    Type
REMARK                         _______ _______ _______ _____ _____    ______ ____
ROOT
ATOM      1  O   UNL     1       7.311   8.938  17.185  0.00  0.00    +0.000 OA
ATOM      2  C   UNL     1       8.175   8.737  18.035  0.00  0.00    +0.000 C 
ATOM      3  N   UNL     1       8.452   7.479  18.520  0.00  0.00    +0.000 N 
ATOM      4  H   UNL     1       9.034   7.337  19.340  0.00  0.00    +0.000 HD
ENDROOT
BRANCH   2   5
ATOM      5  C   UNL     1       8.936   9.882  18.600  0.00  0.00    +0.000 A 
ATOM      6  C   UNL     1       8.990  10.000  19.993  0.00  0.00    +0.000 A 
ATOM      7  C   UNL     1       9.638  11.085  20.584  0.00  0.00    +0.000 A 
ATOM      8  C   UNL     1      10.224  12.083  19.794  0.00  0.00    +0.000 A 
ATOM      9  C   UNL     1      10.853  13.193  20.382  0.00  0.00    +0.000 A 
ATOM     10  C   UNL     1      11.411  14.196  19.591  0.00  0.00    +0.000 A 
ATOM     11  C   UNL     1      11.350  14.102  18.204  0.00  0.00    +0.000 A 
ATOM     12  C   UNL     1      10.734  13.000  17.605  0.00  0.00    +0.000 A 
ATOM     13  C   UNL     1      10.165  11.977  18.383  0.00  0.00    +0.000 A 
ATOM     14  C   UNL     1       9.525  10.866  17.796  0.00  0.00    +0.000 A 
ENDBRANCH   2   5
BRANCH   3  15
ATOM     15  C   UNL     1       7.671   6.349  18.048  0.00  0.00    +0.000 C 
BRANCH  15  16
ATOM     16  C   UNL     1       6.834   5.697  19.152  0.00  0.00    +0.000 C 
ATOM     17  O   UNL     1       7.340   5.431  20.245  0.00  0.00    +0.000 OA
ATOM     18  N   UNL     1       5.499   5.439  18.864  0.00  0.00    +0.000 N 
ATOM     19  C   UNL     1       4.825   5.765  17.590  0.00  0.00    +0.000 C 
ATOM     20  C   UNL     1       4.319   4.491  16.894  0.00  0.00    +0.000 C 
ATOM     21  C   UNL     1       3.609   3.645  17.902  0.00  0.00    +0.000 A 
ATOM     22  S   UNL     1       2.548   2.393  17.467  0.00  0.00    +0.000 S 
ATOM     23  C   UNL     1       2.250   2.010  19.107  0.00  0.00    +0.000 A 
ATOM     24  C   UNL     1       2.957   2.825  19.968  0.00  0.00    +0.000 A 
ATOM     25  C   UNL     1       3.764   3.779  19.271  0.00  0.00    +0.000 A 
ATOM     26  C   UNL     1       4.655   4.819  19.896  0.00  0.00    +0.000 C 
ENDBRANCH  15  16
ENDBRANCH   3  15
TORSDOF 3
ENDMDL
MODEL 2
REMARK VINA RESULT:      -8.3      1.643      2.443
REMARK  Name = 
REMARK  3 active torsions:
REMARK  status: ('A' for Active; 'I' for Inactive)
REMARK    1  A    between atoms: C_2  and  C_16
REMARK    2  A    between atoms: N_3  and  C_4
REMARK    3  A    between atoms: C_4  and  C_5
REMARK                            x       y       z     vdW  Elec       q    Type
REMARK                         _______ _______ _______ _____ _____    ______ ____
ROOT
ATOM      1  O   UNL     1       8.591   7.326  19.025  0.00  0.00    +0.000 OA
ATOM      2  C   UNL     1       8.204   8.148  18.198  0.00  0.00    +0.000 C 
ATOM      3  N   UNL     1       7.493   7.785  17.076  0.00  0.00    +0.000 N 
ATOM      4  H   UNL     1       7.331   8.434  16.313  0.00  0.00    +0.000 HD
ENDROOT
BRANCH   2   5
ATOM      5  C   UNL     1       8.535   9.586  18.375  0.00  0.00    +0.000 A 
ATOM      6  C   UNL     1       7.968  10.497  17.477  0.00  0.00    +0.000 A 
ATOM      7  C   UNL     1       8.286  11.853  17.554  0.00  0.00    +0.000 A 
ATOM      8  C   UNL     1       9.193  12.320  18.514  0.00  0.00    +0.000 A 
ATOM      9  C   UNL     1       9.540  13.680  18.579  0.00  0.00    +0.000 A 
ATOM     10  C   UNL     1      10.463  14.136  19.518  0.00  0.00    +0.000 A 
ATOM     11  C   UNL     1      11.049  13.240  20.408  0.00  0.00    +0.000 A 
ATOM     12  C   UNL     1      10.708  11.885  20.361  0.00  0.00    +0.000 A 
ATOM     13  C   UNL     1       9.780  11.405  19.421  0.00  0.00    +0.000 A 
ATOM     14  C   UNL     1       9.436  10.038  19.347  0.00  0.00    +0.000 A 
ENDBRANCH   2   5
BRANCH   3  15
ATOM     15  C   UNL     1       7.224   6.379  16.832  0.00  0.00    +0.000 C 
BRANCH  15  16
ATOM     16  C   UNL     1       5.761   6.104  16.472  0.00  0.00    +0.000 C 
ATOM     17  O   UNL     1       5.179   6.804  15.640  0.00  0.00    +0.000 OA
ATOM     18  N   UNL     1       5.143   5.035  17.112  0.00  0.00    +0.000 N 
ATOM     19  C   UNL     1       5.793   4.137  18.089  0.00  0.00    +0.000 C 
ATOM     20  C   UNL     1       5.106   4.229  19.461  0.00  0.00    +0.000 C 
ATOM     21  C   UNL     1       3.627   4.145  19.262  0.00  0.00    +0.000 A 
ATOM     22  S   UNL     1       2.550   3.777  20.522  0.00  0.00    +0.000 S 
ATOM     23  C   UNL     1       1.204   3.904  19.473  0.00  0.00    +0.000 A 
ATOM     24  C   UNL     1       1.578   4.229  18.185  0.00  0.00    +0.000 A 
ATOM     25  C   UNL     1       2.994   4.382  18.054  0.00  0.00    +0.000 A 
ATOM     26  C   UNL     1       3.741   4.729  16.794  0.00  0.00    +0.000 C 
ENDBRANCH  15  16
ENDBRANCH   3  15
TORSDOF 3
ENDMDL
MODEL 3
REMARK VINA RESULT:      -8.1      0.784      1.399
REMARK  Name = 
REMARK  3 active torsions:
REMARK  status: ('A' for Active; 'I' for Inactive)
REMARK    1  A    between atoms: C_2  and  C_16
REMARK    2  A    between atoms: N_3  and  C_4
REMARK    3  A    between atoms: C_4  and  C_5
REMARK                            x       y       z     vdW  Elec       q    Type
REMARK                         _______ _______ _______ _____ _____    ______ ____
ROOT
ATOM      1  O   UNL     1       6.890   8.346  16.862  0.00  0.00    +0.000 OA
ATOM      2  C   UNL     1       7.779   8.435  17.705  0.00  0.00    +0.000 C 
ATOM      3  N   UNL     1       8.284   7.336  18.363  0.00  0.00    +0.000 N 
ATOM      4  H   UNL     1       8.884   7.428  19.175  0.00  0.00    +0.000 HD
ENDROOT
BRANCH   2   5
ATOM      5  C   UNL     1       8.320   9.770  18.068  0.00  0.00    +0.000 A 
ATOM      6  C   UNL     1       7.826  10.881  17.376  0.00  0.00    +0.000 A 
ATOM      7  C   UNL     1       8.337  12.154  17.629  0.00  0.00    +0.000 A 
ATOM      8  C   UNL     1       9.365  12.338  18.563  0.00  0.00    +0.000 A 
ATOM      9  C   UNL     1       9.903  13.614  18.802  0.00  0.00    +0.000 A 
ATOM     10  C   UNL     1      10.944  13.787  19.713  0.00  0.00    +0.000 A 
ATOM     11  C   UNL     1      11.458  12.690  20.398  0.00  0.00    +0.000 A 
ATOM     12  C   UNL     1      10.927  11.416  20.176  0.00  0.00    +0.000 A 
ATOM     13  C   UNL     1       9.878  11.219  19.262  0.00  0.00    +0.000 A 
ATOM     14  C   UNL     1       9.341   9.938  19.012  0.00  0.00    +0.000 A 
ENDBRANCH   2   5
BRANCH   3  15
ATOM     15  C   UNL     1       7.720   6.025  18.089  0.00  0.00    +0.000 C 
BRANCH  15  16
ATOM     16  C   UNL     1       6.787   5.531  19.199  0.00  0.00    +0.000 C 
ATOM     17  O   UNL     1       7.215   5.356  20.342  0.00  0.00    +0.000 OA
ATOM     18  N   UNL     1       5.458   5.310  18.855  0.00  0.00    +0.000 N 
ATOM     19  C   UNL     1       4.877   5.534  17.516  0.00  0.00    +0.000 C 
ATOM     20  C   UNL     1       4.343   4.221  16.921  0.00  0.00    +0.000 C 
ATOM     21  C   UNL     1       3.533   3.518  17.963  0.00  0.00    +0.000 A 
ATOM     22  S   UNL     1       2.433   2.280  17.589  0.00  0.00    +0.000 S 
ATOM     23  C   UNL     1       2.021   2.083  19.239  0.00  0.00    +0.000 A 
ATOM     24  C   UNL     1       2.721   2.948  20.055  0.00  0.00    +0.000 A 
ATOM     25  C   UNL     1       3.616   3.785  19.318  0.00  0.00    +0.000 A 
ATOM     26  C   UNL     1       4.525   4.840  19.890  0.00  0.00    +0.000 C 
ENDBRANCH  15  16
ENDBRANCH   3  15
TORSDOF 3
ENDMDL
MODEL 4
REMARK VINA RESULT:      -8.1      7.299     10.285
REMARK  Name = 
REMARK  3 active torsions:
REMARK  status: ('A' for Active; 'I' for Inactive)
REMARK    1  A    between atoms: C_2  and  C_16
REMARK    2  A    between atoms: N_3  and  C_4
REMARK    3  A    between atoms: C_4  and  C_5
REMARK                            x       y       z     vdW  Elec       q    Type
REMARK                         _______ _______ _______ _____ _____    ______ ____
ROOT
ATOM      1  O   UNL     1       2.414   9.572  17.406  0.00  0.00    +0.000 OA
ATOM      2  C   UNL     1       2.131   8.707  18.231  0.00  0.00    +0.000 C 
ATOM      3  N   UNL     1       1.369   8.974  19.346  0.00  0.00    +0.000 N 
ATOM      4  H   UNL     1       1.286   8.309  20.109  0.00  0.00    +0.000 HD
ENDROOT
BRANCH   2   5
ATOM      5  C   UNL     1       2.647   7.324  18.058  0.00  0.00    +0.000 A 
ATOM      6  C   UNL     1       3.936   7.174  17.534  0.00  0.00    +0.000 A 
ATOM      7  C   UNL     1       4.455   5.902  17.292  0.00  0.00    +0.000 A 
ATOM      8  C   UNL     1       3.688   4.758  17.548  0.00  0.00    +0.000 A 
ATOM      9  C   UNL     1       4.194   3.475  17.279  0.00  0.00    +0.000 A 
ATOM     10  C   UNL     1       3.417   2.341  17.511  0.00  0.00    +0.000 A 
ATOM     11  C   UNL     1       2.126   2.474  18.015  0.00  0.00    +0.000 A 
ATOM     12  C   UNL     1       1.613   3.744  18.294  0.00  0.00    +0.000 A 
ATOM     13  C   UNL     1       2.379   4.900  18.068  0.00  0.00    +0.000 A 
ATOM     14  C   UNL     1       1.871   6.190  18.328  0.00  0.00    +0.000 A 
ENDBRANCH   2   5
BRANCH   3  15
ATOM     15  C   UNL     1       0.917  10.333  19.587  0.00  0.00    +0.000 C 
BRANCH  15  16
ATOM     16  C   UNL     1       0.412  10.551  21.016  0.00  0.00    +0.000 C 
ATOM     17  O   UNL     1       0.732   9.773  21.918  0.00  0.00    +0.000 OA
ATOM     18  N   UNL     1      -0.398  11.659  21.238  0.00  0.00    +0.000 N 
ATOM     19  C   UNL     1      -0.788  12.647  20.210  0.00  0.00    +0.000 C 
ATOM     20  C   UNL     1      -2.312  12.659  20.010  0.00  0.00    +0.000 C 
ATOM     21  C   UNL     1      -2.971  12.699  21.352  0.00  0.00    +0.000 A 
ATOM     22  S   UNL     1      -4.593  13.154  21.565  0.00  0.00    +0.000 S 
ATOM     23  C   UNL     1      -4.488  12.915  23.256  0.00  0.00    +0.000 A 
ATOM     24  C   UNL     1      -3.233  12.490  23.643  0.00  0.00    +0.000 A 
ATOM     25  C   UNL     1      -2.342  12.351  22.534  0.00  0.00    +0.000 A 
ATOM     26  C   UNL     1      -0.902  11.912  22.595  0.00  0.00    +0.000 C 
ENDBRANCH  15  16
ENDBRANCH   3  15
TORSDOF 3
ENDMDL
MODEL 5
REMARK VINA RESULT:      -7.9      7.977     10.781
REMARK  Name = 
REMARK  3 active torsions:
REMARK  status: ('A' for Active; 'I' for Inactive)
REMARK    1  A    between atoms: C_2  and  C_16
REMARK    2  A    between atoms: N_3  and  C_4
REMARK    3  A    between atoms: C_4  and  C_5
REMARK                            x       y       z     vdW  Elec       q    Type
REMARK                         _______ _______ _______ _____ _____    ______ ____
ROOT
ATOM      1  O   UNL     1       1.582   9.575  18.488  0.00  0.00    +0.000 OA
ATOM      2  C   UNL     1       1.490   8.841  19.469  0.00  0.00    +0.000 C 
ATOM      3  N   UNL     1       0.901   9.252  20.644  0.00  0.00    +0.000 N 
ATOM      4  H   UNL     1       0.984   8.714  21.500  0.00  0.00    +0.000 HD
ENDROOT
BRANCH   2   5
ATOM      5  C   UNL     1       2.058   7.468  19.421  0.00  0.00    +0.000 A 
ATOM      6  C   UNL     1       2.786   7.108  18.281  0.00  0.00    +0.000 A 
ATOM      7  C   UNL     1       3.294   5.815  18.149  0.00  0.00    +0.000 A 
ATOM      8  C   UNL     1       3.066   4.854  19.143  0.00  0.00    +0.000 A 
ATOM      9  C   UNL     1       3.550   3.542  19.004  0.00  0.00    +0.000 A 
ATOM     10  C   UNL     1       3.299   2.583  19.983  0.00  0.00    +0.000 A 
ATOM     11  C   UNL     1       2.562   2.921  21.114  0.00  0.00    +0.000 A 
ATOM     12  C   UNL     1       2.080   4.224  21.270  0.00  0.00    +0.000 A 
ATOM     13  C   UNL     1       2.323   5.207  20.295  0.00  0.00    +0.000 A 
ATOM     14  C   UNL     1       1.830   6.522  20.428  0.00  0.00    +0.000 A 
ENDBRANCH   2   5
BRANCH   3  15
ATOM     15  C   UNL     1       0.408  10.614  20.750  0.00  0.00    +0.000 C 
BRANCH  15  16
ATOM     16  C   UNL     1      -0.231  10.915  22.109  0.00  0.00    +0.000 C 
ATOM     17  O   UNL     1       0.086  10.263  23.107  0.00  0.00    +0.000 OA
ATOM     18  N   UNL     1      -1.158  11.950  22.155  0.00  0.00    +0.000 N 
ATOM     19  C   UNL     1      -1.554  12.790  21.007  0.00  0.00    +0.000 C 
ATOM     20  C   UNL     1      -3.051  12.627  20.695  0.00  0.00    +0.000 C 
ATOM     21  C   UNL     1      -3.819  12.727  21.974  0.00  0.00    +0.000 A 
ATOM     22  S   UNL     1      -5.489  13.031  22.021  0.00  0.00    +0.000 S 
ATOM     23  C   UNL     1      -5.501  12.966  23.731  0.00  0.00    +0.000 A 
ATOM     24  C   UNL     1      -4.248  12.711  24.250  0.00  0.00    +0.000 A 
ATOM     25  C   UNL     1      -3.259  12.559  23.229  0.00  0.00    +0.000 A 
ATOM     26  C   UNL     1      -1.794  12.278  23.439  0.00  0.00    +0.000 C 
ENDBRANCH  15  16
ENDBRANCH   3  15
TORSDOF 3
ENDMDL
MODEL 6
REMARK VINA RESULT:      -7.9      7.338      9.746
REMARK  Name = 
REMARK  3 active torsions:
REMARK  status: ('A' for Active; 'I' for Inactive)
REMARK    1  A    between atoms: C_2  and  C_16
REMARK    2  A    between atoms: N_3  and  C_4
REMARK    3  A    between atoms: C_4  and  C_5
REMARK                            x       y       z     vdW  Elec       q    Type
REMARK                         _______ _______ _______ _____ _____    ______ ____
ROOT
ATOM      1  O   UNL     1       2.077   9.706  17.515  0.00  0.00    +0.000 OA
ATOM      2  C   UNL     1       2.049   8.746  18.280  0.00  0.00    +0.000 C 
ATOM      3  N   UNL     1       1.465   8.813  19.525  0.00  0.00    +0.000 N 
ATOM      4  H   UNL     1       1.597   8.084  20.219  0.00  0.00    +0.000 HD
ENDROOT
BRANCH   2   5
ATOM      5  C   UNL     1       2.694   7.466  17.884  0.00  0.00    +0.000 A 
ATOM      6  C   UNL     1       2.125   6.280  18.359  0.00  0.00    +0.000 A 
ATOM      7  C   UNL     1       2.718   5.050  18.073  0.00  0.00    +0.000 A 
ATOM      8  C   UNL     1       3.901   4.985  17.325  0.00  0.00    +0.000 A 
ATOM      9  C   UNL     1       4.519   3.752  17.057  0.00  0.00    +0.000 A 
ATOM     10  C   UNL     1       5.710   3.695  16.335  0.00  0.00    +0.000 A 
ATOM     11  C   UNL     1       6.298   4.868  15.870  0.00  0.00    +0.000 A 
ATOM     12  C   UNL     1       5.690   6.101  16.123  0.00  0.00    +0.000 A 
ATOM     13  C   UNL     1       4.489   6.181  16.848  0.00  0.00    +0.000 A 
ATOM     14  C   UNL     1       3.871   7.418  17.127  0.00  0.00    +0.000 A 
ENDBRANCH   2   5
BRANCH   3  15
ATOM     15  C   UNL     1       0.898  10.072  19.974  0.00  0.00    +0.000 C 
BRANCH  15  16
ATOM     16  C   UNL     1      -0.001   9.919  21.205  0.00  0.00    +0.000 C 
ATOM     17  O   UNL     1      -0.340   8.799  21.595  0.00  0.00    +0.000 OA
ATOM     18  N   UNL     1      -0.391  11.086  21.852  0.00  0.00    +0.000 N 
ATOM     19  C   UNL     1       0.010  12.452  21.458  0.00  0.00    +0.000 C 
ATOM     20  C   UNL     1      -1.215  13.293  21.064  0.00  0.00    +0.000 C 
ATOM     21  C   UNL     1      -2.274  13.112  22.104  0.00  0.00    +0.000 A 
ATOM     22  S   UNL     1      -3.585  14.177  22.274  0.00  0.00    +0.000 S 
ATOM     23  C   UNL     1      -4.219  13.265  23.575  0.00  0.00    +0.000 A 
ATOM     24  C   UNL     1      -3.440  12.164  23.865  0.00  0.00    +0.000 A 
ATOM     25  C   UNL     1      -2.305  12.060  23.002  0.00  0.00    +0.000 A 
ATOM     26  C   UNL     1      -1.248  10.987  23.042  0.00  0.00    +0.000 C 
ENDBRANCH  15  16
ENDBRANCH   3  15
TORSDOF 3
ENDMDL
MODEL 7
REMARK VINA RESULT:      -7.9      7.420     10.566
REMARK  Name = 
REMARK  3 active torsions:
REMARK  status: ('A' for Active; 'I' for Inactive)
REMARK    1  A    between atoms: C_2  and  C_16
REMARK    2  A    between atoms: N_3  and  C_4
REMARK    3  A    between atoms: C_4  and  C_5
REMARK                            x       y       z     vdW  Elec       q    Type
REMARK                         _______ _______ _______ _____ _____    ______ ____
ROOT
ATOM      1  O   UNL     1       1.669   8.997  22.102  0.00  0.00    +0.000 OA
ATOM      2  C   UNL     1       1.512   8.912  20.887  0.00  0.00    +0.000 C 
ATOM      3  N   UNL     1       1.098   9.978  20.121  0.00  0.00    +0.000 N 
ATOM      4  H   UNL     1       0.800   9.862  19.158  0.00  0.00    +0.000 HD
ENDROOT
BRANCH   2   5
ATOM      5  C   UNL     1       1.736   7.611  20.203  0.00  0.00    +0.000 A 
ATOM      6  C   UNL     1       2.271   7.643  18.911  0.00  0.00    +0.000 A 
ATOM      7  C   UNL     1       2.449   6.460  18.193  0.00  0.00    +0.000 A 
ATOM      8  C   UNL     1       2.076   5.227  18.745  0.00  0.00    +0.000 A 
ATOM      9  C   UNL     1       2.226   4.035  18.017  0.00  0.00    +0.000 A 
ATOM     10  C   UNL     1       1.830   2.815  18.560  0.00  0.00    +0.000 A 
ATOM     11  C   UNL     1       1.280   2.768  19.838  0.00  0.00    +0.000 A 
ATOM     12  C   UNL     1       1.132   3.945  20.577  0.00  0.00    +0.000 A 
ATOM     13  C   UNL     1       1.525   5.186  20.048  0.00  0.00    +0.000 A 
ATOM     14  C   UNL     1       1.367   6.387  20.773  0.00  0.00    +0.000 A 
ENDBRANCH   2   5
BRANCH   3  15
ATOM     15  C   UNL     1       0.792  11.241  20.771  0.00  0.00    +0.000 C 
BRANCH  15  16
ATOM     16  C   UNL     1      -0.705  11.433  21.031  0.00  0.00    +0.000 C 
ATOM     17  O   UNL     1      -1.199  11.105  22.112  0.00  0.00    +0.000 OA
ATOM     18  N   UNL     1      -1.456  11.999  20.007  0.00  0.00    +0.000 N 
ATOM     19  C   UNL     1      -0.919  12.446  18.705  0.00  0.00    +0.000 C 
ATOM     20  C   UNL     1      -1.546  11.650  17.549  0.00  0.00    +0.000 C 
ATOM     21  C   UNL     1      -3.027  11.598  17.751  0.00  0.00    +0.000 A 
ATOM     22  S   UNL     1      -4.111  11.201  16.506  0.00  0.00    +0.000 S 
ATOM     23  C   UNL     1      -5.452  11.365  17.557  0.00  0.00    +0.000 A 
ATOM     24  C   UNL     1      -5.070  11.711  18.837  0.00  0.00    +0.000 A 
ATOM     25  C   UNL     1      -3.651  11.839  18.963  0.00  0.00    +0.000 A 
ATOM     26  C   UNL     1      -2.896  12.208  20.213  0.00  0.00    +0.000 C 
ENDBRANCH  15  16
ENDBRANCH   3  15
TORSDOF 3
ENDMDL
MODEL 8
REMARK VINA RESULT:      -7.8      7.306     10.255
REMARK  Name = 
REMARK  3 active torsions:
REMARK  status: ('A' for Active; 'I' for Inactive)
REMARK    1  A    between atoms: C_2  and  C_16
REMARK    2  A    between atoms: N_3  and  C_4
REMARK    3  A    between atoms: C_4  and  C_5
REMARK                            x       y       z     vdW  Elec       q    Type
REMARK                         _______ _______ _______ _____ _____    ______ ____
ROOT
ATOM      1  O   UNL     1       2.147   9.287  17.521  0.00  0.00    +0.000 OA
ATOM      2  C   UNL     1       1.934   8.761  18.610  0.00  0.00    +0.000 C 
ATOM      3  N   UNL     1       1.309   9.426  19.640  0.00  0.00    +0.000 N 
ATOM      4  H   UNL     1       1.295   9.057  20.585  0.00  0.00    +0.000 HD
ENDROOT
BRANCH   2   5
ATOM      5  C   UNL     1       2.392   7.369  18.860  0.00  0.00    +0.000 A 
ATOM      6  C   UNL     1       3.208   6.771  17.893  0.00  0.00    +0.000 A 
ATOM      7  C   UNL     1       3.621   5.447  18.040  0.00  0.00    +0.000 A 
ATOM      8  C   UNL     1       3.209   4.689  19.144  0.00  0.00    +0.000 A 
ATOM      9  C   UNL     1       3.598   3.346  19.284  0.00  0.00    +0.000 A 
ATOM     10  C   UNL     1       3.164   2.590  20.371  0.00  0.00    +0.000 A 
ATOM     11  C   UNL     1       2.338   3.164  21.333  0.00  0.00    +0.000 A 
ATOM     12  C   UNL     1       1.949   4.501  21.211  0.00  0.00    +0.000 A 
ATOM     13  C   UNL     1       2.376   5.282  20.123  0.00  0.00    +0.000 A 
ATOM     14  C   UNL     1       1.979   6.628  19.975  0.00  0.00    +0.000 A 
ENDBRANCH   2   5
BRANCH   3  15
ATOM     15  C   UNL     1       0.923  10.814  19.455  0.00  0.00    +0.000 C 
BRANCH  15  16
ATOM     16  C   UNL     1      -0.321  11.201  20.261  0.00  0.00    +0.000 C 
ATOM     17  O   UNL     1      -0.399  10.926  21.461  0.00  0.00    +0.000 OA
ATOM     18  N   UNL     1      -1.328  11.878  19.582  0.00  0.00    +0.000 N 
ATOM     19  C   UNL     1      -1.280  12.269  18.158  0.00  0.00    +0.000 C 
ATOM     20  C   UNL     1      -2.400  11.582  17.361  0.00  0.00    +0.000 C 
ATOM     21  C   UNL     1      -3.683  11.725  18.117  0.00  0.00    +0.000 A 
ATOM     22  S   UNL     1      -5.203  11.497  17.397  0.00  0.00    +0.000 S 
ATOM     23  C   UNL     1      -6.004  11.822  18.874  0.00  0.00    +0.000 A 
ATOM     24  C   UNL     1      -5.118  12.094  19.896  0.00  0.00    +0.000 A 
ATOM     25  C   UNL     1      -3.756  12.030  19.465  0.00  0.00    +0.000 A 
ATOM     26  C   UNL     1      -2.538  12.275  20.316  0.00  0.00    +0.000 C 
ENDBRANCH  15  16
ENDBRANCH   3  15
TORSDOF 3
ENDMDL
MODEL 9
REMARK VINA RESULT:      -7.8      7.364     10.310
REMARK  Name = 
REMARK  3 active torsions:
REMARK  status: ('A' for Active; 'I' for Inactive)
REMARK    1  A    between atoms: C_2  and  C_16
REMARK    2  A    between atoms: N_3  and  C_4
REMARK    3  A    between atoms: C_4  and  C_5
REMARK                            x       y       z     vdW  Elec       q    Type
REMARK                         _______ _______ _______ _____ _____    ______ ____
ROOT
ATOM      1  O   UNL     1       2.082   8.988  17.289  0.00  0.00    +0.000 OA
ATOM      2  C   UNL     1       1.989   8.563  18.437  0.00  0.00    +0.000 C 
ATOM      3  N   UNL     1       1.464   9.318  19.462  0.00  0.00    +0.000 N 
ATOM      4  H   UNL     1       1.550   9.036  20.433  0.00  0.00    +0.000 HD
ENDROOT
BRANCH   2   5
ATOM      5  C   UNL     1       2.488   7.201  18.764  0.00  0.00    +0.000 A 
ATOM      6  C   UNL     1       3.409   6.620  17.886  0.00  0.00    +0.000 A 
ATOM      7  C   UNL     1       3.870   5.322  18.104  0.00  0.00    +0.000 A 
ATOM      8  C   UNL     1       3.402   4.573  19.192  0.00  0.00    +0.000 A 
ATOM      9  C   UNL     1       3.839   3.254  19.403  0.00  0.00    +0.000 A 
ATOM     10  C   UNL     1       3.351   2.504  20.471  0.00  0.00    +0.000 A 
ATOM     11  C   UNL     1       2.422   3.062  21.344  0.00  0.00    +0.000 A 
ATOM     12  C   UNL     1       1.983   4.375  21.152  0.00  0.00    +0.000 A 
ATOM     13  C   UNL     1       2.462   5.148  20.081  0.00  0.00    +0.000 A 
ATOM     14  C   UNL     1       2.018   6.469  19.862  0.00  0.00    +0.000 A 
ENDBRANCH   2   5
BRANCH   3  15
ATOM     15  C   UNL     1       1.042  10.681  19.193  0.00  0.00    +0.000 C 
BRANCH  15  16
ATOM     16  C   UNL     1       0.349  11.341  20.389  0.00  0.00    +0.000 C 
ATOM     17  O   UNL     1       0.782  11.174  21.532  0.00  0.00    +0.000 OA
ATOM     18  N   UNL     1      -0.762  12.131  20.118  0.00  0.00    +0.000 N 
ATOM     19  C   UNL     1      -1.308  12.399  18.771  0.00  0.00    +0.000 C 
ATOM     20  C   UNL     1      -2.743  11.861  18.643  0.00  0.00    +0.000 C 
ATOM     21  C   UNL     1      -3.523  12.284  19.846  0.00  0.00    +0.000 A 
ATOM     22  S   UNL     1      -5.219  12.273  19.892  0.00  0.00    +0.000 S 
ATOM     23  C   UNL     1      -5.228  12.844  21.505  0.00  0.00    +0.000 A 
ATOM     24  C   UNL     1      -3.952  13.033  21.995  0.00  0.00    +0.000 A 
ATOM     25  C   UNL     1      -2.947  12.698  21.035  0.00  0.00    +0.000 A 
ATOM     26  C   UNL     1      -1.457  12.788  21.234  0.00  0.00    +0.000 C 
ENDBRANCH  15  16
ENDBRANCH   3  15
TORSDOF 3
ENDMDL
