MODEL 1
REMARK VINA RESULT:      -8.9      0.000      0.000
REMARK  Name = 
REMARK  4 active torsions:
REMARK  status: ('A' for Active; 'I' for Inactive)
REMARK    1  A    between atoms: O_1  and  C_2
REMARK    2  A    between atoms: C_7  and  C_8
REMARK    3  A    between atoms: C_11  and  C_12
REMARK    4  A    between atoms: C_18  and  C_19
REMARK                            x       y       z     vdW  Elec       q    Type
REMARK                         _______ _______ _______ _____ _____    ______ ____
ROOT
ATOM      1  C   UNL     1       5.239   4.201  15.926  0.00  0.00    +0.000 A 
ATOM      2  N   UNL     1       5.214   2.992  16.515  0.00  0.00    +0.000 NA
ATOM      3  N   UNL     1       4.434   2.791  17.614  0.00  0.00    +0.000 NA
ATOM      4  C   UNL     1       3.710   3.813  18.124  0.00  0.00    +0.000 A 
ATOM      5  C   UNL     1       3.854   5.086  17.554  0.00  0.00    +0.000 A 
ATOM      6  N   UNL     1       4.612   5.282  16.434  0.00  0.00    +0.000 NA
ENDROOT
BRANCH   1  12
ATOM      7  C   UNL     1       7.098   5.183  14.513  0.00  0.00    +0.000 A 
ATOM      8  C   UNL     1       7.775   5.314  13.295  0.00  0.00    +0.000 A 
ATOM      9  C   UNL     1       7.346   4.601  12.183  0.00  0.00    +0.000 A 
ATOM     10  C   UNL     1       6.247   3.751  12.288  0.00  0.00    +0.000 A 
ATOM     11  C   UNL     1       5.571   3.630  13.509  0.00  0.00    +0.000 A 
ATOM     12  C   UNL     1       5.973   4.350  14.653  0.00  0.00    +0.000 A 
BRANCH   7  13
ATOM     13  O   UNL     1       7.588   5.866  15.597  0.00  0.00    +0.000 OA
ATOM     14  H   UNL     1       6.860   6.130  16.179  0.00  0.00    +0.000 HD
ENDBRANCH   7  13
ENDBRANCH   1  12
BRANCH   4  15
ATOM     15  C   UNL     1       2.823   3.411  19.238  0.00  0.00    +0.000 A 
ATOM     16  C   UNL     1       3.364   3.060  20.491  0.00  0.00    +0.000 A 
ATOM     17  C   UNL     1       2.546   2.741  21.578  0.00  0.00    +0.000 A 
ATOM     18  C   UNL     1       1.162   2.774  21.439  0.00  0.00    +0.000 A 
ATOM     19  C   UNL     1       0.599   3.070  20.203  0.00  0.00    +0.000 A 
ATOM     20  C   UNL     1       1.423   3.347  19.107  0.00  0.00    +0.000 A 
ENDBRANCH   4  15
BRANCH   5  21
ATOM     21  C   UNL     1       3.235   6.339  18.066  0.00  0.00    +0.000 A 
ATOM     22  C   UNL     1       2.768   6.470  19.388  0.00  0.00    +0.000 A 
ATOM     23  C   UNL     1       2.094   7.617  19.819  0.00  0.00    +0.000 A 
ATOM     24  C   UNL     1       1.936   8.697  18.958  0.00  0.00    +0.000 A 
ATOM     25  C   UNL     1       2.454   8.628  17.669  0.00  0.00    +0.000 A 
ATOM     26  C   UNL     1       3.088   7.461  17.227  0.00  0.00    +0.000 A 
ENDBRANCH   5  21
TORSDOF 4
ENDMDL
MODEL 2
REMARK VINA RESULT:      -8.1      2.686      7.178
REMARK  Name = 
REMARK  4 active torsions:
REMARK  status: ('A' for Active; 'I' for Inactive)
REMARK    1  A    between atoms: O_1  and  C_2
REMARK    2  A    between atoms: C_7  and  C_8
REMARK    3  A    between atoms: C_11  and  C_12
REMARK    4  A    between atoms: C_18  and  C_19
REMARK                            x       y       z     vdW  Elec       q    Type
REMARK                         _______ _______ _______ _____ _____    ______ ____
ROOT
ATOM      1  C   UNL     1       2.355   7.954  18.521  0.00  0.00    +0.000 A 
ATOM      2  N   UNL     1       3.387   8.472  17.831  0.00  0.00    +0.000 NA
ATOM      3  N   UNL     1       4.282   7.642  17.226  0.00  0.00    +0.000 NA
ATOM      4  C   UNL     1       4.146   6.302  17.344  0.00  0.00    +0.000 A 
ATOM      5  C   UNL     1       3.126   5.801  18.168  0.00  0.00    +0.000 A 
ATOM      6  N   UNL     1       2.211   6.633  18.750  0.00  0.00    +0.000 NA
ENDROOT
BRANCH   1  12
ATOM      7  C   UNL     1       0.988   8.960  20.401  0.00  0.00    +0.000 A 
ATOM      8  C   UNL     1      -0.001   9.834  20.868  0.00  0.00    +0.000 A 
ATOM      9  C   UNL     1      -0.678  10.655  19.975  0.00  0.00    +0.000 A 
ATOM     10  C   UNL     1      -0.364  10.609  18.619  0.00  0.00    +0.000 A 
ATOM     11  C   UNL     1       0.623   9.728  18.158  0.00  0.00    +0.000 A 
ATOM     12  C   UNL     1       1.321   8.873  19.037  0.00  0.00    +0.000 A 
BRANCH   7  13
ATOM     13  O   UNL     1       1.667   8.207  21.324  0.00  0.00    +0.000 OA
ATOM     14  H   UNL     1       1.978   8.771  22.048  0.00  0.00    +0.000 HD
ENDBRANCH   7  13
ENDBRANCH   1  12
BRANCH   4  15
ATOM     15  C   UNL     1       5.118   5.534  16.535  0.00  0.00    +0.000 A 
ATOM     16  C   UNL     1       4.743   5.001  15.285  0.00  0.00    +0.000 A 
ATOM     17  C   UNL     1       5.660   4.328  14.472  0.00  0.00    +0.000 A 
ATOM     18  C   UNL     1       6.979   4.180  14.888  0.00  0.00    +0.000 A 
ATOM     19  C   UNL     1       7.367   4.653  16.136  0.00  0.00    +0.000 A 
ATOM     20  C   UNL     1       6.435   5.288  16.964  0.00  0.00    +0.000 A 
ENDBRANCH   4  15
BRANCH   5  21
ATOM     21  C   UNL     1       2.914   4.369  18.509  0.00  0.00    +0.000 A 
ATOM     22  C   UNL     1       3.899   3.584  19.138  0.00  0.00    +0.000 A 
ATOM     23  C   UNL     1       3.719   2.213  19.354  0.00  0.00    +0.000 A 
ATOM     24  C   UNL     1       2.515   1.607  19.015  0.00  0.00    +0.000 A 
ATOM     25  C   UNL     1       1.494   2.372  18.462  0.00  0.00    +0.000 A 
ATOM     26  C   UNL     1       1.694   3.733  18.206  0.00  0.00    +0.000 A 
ENDBRANCH   5  21
TORSDOF 4
ENDMDL
MODEL 3
REMARK VINA RESULT:      -8.1      2.739      7.144
REMARK  Name = 
REMARK  4 active torsions:
REMARK  status: ('A' for Active; 'I' for Inactive)
REMARK    1  A    between atoms: O_1  and  C_2
REMARK    2  A    between atoms: C_7  and  C_8
REMARK    3  A    between atoms: C_11  and  C_12
REMARK    4  A    between atoms: C_18  and  C_19
REMARK                            x       y       z     vdW  Elec       q    Type
REMARK                         _______ _______ _______ _____ _____    ______ ____
ROOT
ATOM      1  C   UNL     1       2.342   8.061  18.536  0.00  0.00    +0.000 A 
ATOM      2  N   UNL     1       3.362   8.625  17.865  0.00  0.00    +0.000 NA
ATOM      3  N   UNL     1       4.298   7.834  17.267  0.00  0.00    +0.000 NA
ATOM      4  C   UNL     1       4.213   6.489  17.374  0.00  0.00    +0.000 A 
ATOM      5  C   UNL     1       3.203   5.943  18.180  0.00  0.00    +0.000 A 
ATOM      6  N   UNL     1       2.247   6.734  18.755  0.00  0.00    +0.000 NA
ENDROOT
BRANCH   1  12
ATOM      7  C   UNL     1       0.926   9.015  20.407  0.00  0.00    +0.000 A 
ATOM      8  C   UNL     1      -0.104   9.845  20.867  0.00  0.00    +0.000 A 
ATOM      9  C   UNL     1      -0.816  10.628  19.967  0.00  0.00    +0.000 A 
ATOM     10  C   UNL     1      -0.497  10.588  18.612  0.00  0.00    +0.000 A 
ATOM     11  C   UNL     1       0.530   9.750  18.159  0.00  0.00    +0.000 A 
ATOM     12  C   UNL     1       1.265   8.934  19.045  0.00  0.00    +0.000 A 
BRANCH   7  13
ATOM     13  O   UNL     1       1.637   8.300  21.337  0.00  0.00    +0.000 OA
ATOM     14  H   UNL     1       1.781   8.838  22.130  0.00  0.00    +0.000 HD
ENDBRANCH   7  13
ENDBRANCH   1  12
BRANCH   4  15
ATOM     15  C   UNL     1       5.226   5.766  16.573  0.00  0.00    +0.000 A 
ATOM     16  C   UNL     1       6.350   5.188  17.197  0.00  0.00    +0.000 A 
ATOM     17  C   UNL     1       7.286   4.445  16.473  0.00  0.00    +0.000 A 
ATOM     18  C   UNL     1       7.116   4.255  15.106  0.00  0.00    +0.000 A 
ATOM     19  C   UNL     1       6.043   4.853  14.454  0.00  0.00    +0.000 A 
ATOM     20  C   UNL     1       5.132   5.631  15.175  0.00  0.00    +0.000 A 
ENDBRANCH   4  15
BRANCH   5  21
ATOM     21  C   UNL     1       3.042   4.500  18.508  0.00  0.00    +0.000 A 
ATOM     22  C   UNL     1       3.615   3.914  19.653  0.00  0.00    +0.000 A 
ATOM     23  C   UNL     1       3.542   2.536  19.887  0.00  0.00    +0.000 A 
ATOM     24  C   UNL     1       2.827   1.720  19.020  0.00  0.00    +0.000 A 
ATOM     25  C   UNL     1       2.185   2.281  17.921  0.00  0.00    +0.000 A 
ATOM     26  C   UNL     1       2.298   3.652  17.665  0.00  0.00    +0.000 A 
ENDBRANCH   5  21
TORSDOF 4
ENDMDL
MODEL 4
REMARK VINA RESULT:      -8.1      2.464      6.815
REMARK  Name = 
REMARK  4 active torsions:
REMARK  status: ('A' for Active; 'I' for Inactive)
REMARK    1  A    between atoms: O_1  and  C_2
REMARK    2  A    between atoms: C_7  and  C_8
REMARK    3  A    between atoms: C_11  and  C_12
REMARK    4  A    between atoms: C_18  and  C_19
REMARK                            x       y       z     vdW  Elec       q    Type
REMARK                         _______ _______ _______ _____ _____    ______ ____
ROOT
ATOM      1  C   UNL     1       3.639   3.811  18.256  0.00  0.00    +0.000 A 
ATOM      2  N   UNL     1       3.358   3.241  17.071  0.00  0.00    +0.000 NA
ATOM      3  N   UNL     1       4.146   3.503  15.991  0.00  0.00    +0.000 NA
ATOM      4  C   UNL     1       5.191   4.353  16.107  0.00  0.00    +0.000 A 
ATOM      5  C   UNL     1       5.381   5.018  17.328  0.00  0.00    +0.000 A 
ATOM      6  N   UNL     1       4.609   4.734  18.419  0.00  0.00    +0.000 NA
ENDROOT
BRANCH   1  12
ATOM      7  C   UNL     1       3.415   2.647  20.495  0.00  0.00    +0.000 A 
ATOM      8  C   UNL     1       2.657   2.257  21.605  0.00  0.00    +0.000 A 
ATOM      9  C   UNL     1       1.318   2.619  21.691  0.00  0.00    +0.000 A 
ATOM     10  C   UNL     1       0.739   3.375  20.676  0.00  0.00    +0.000 A 
ATOM     11  C   UNL     1       1.503   3.756  19.565  0.00  0.00    +0.000 A 
ATOM     12  C   UNL     1       2.861   3.395  19.440  0.00  0.00    +0.000 A 
BRANCH   7  13
ATOM     13  O   UNL     1       4.745   2.312  20.476  0.00  0.00    +0.000 OA
ATOM     14  H   UNL     1       4.901   1.542  21.044  0.00  0.00    +0.000 HD
ENDBRANCH   7  13
ENDBRANCH   1  12
BRANCH   4  15
ATOM     15  C   UNL     1       6.023   4.441  14.886  0.00  0.00    +0.000 A 
ATOM     16  C   UNL     1       5.646   3.754  13.715  0.00  0.00    +0.000 A 
ATOM     17  C   UNL     1       6.378   3.872  12.530  0.00  0.00    +0.000 A 
ATOM     18  C   UNL     1       7.503   4.689  12.487  0.00  0.00    +0.000 A 
ATOM     19  C   UNL     1       7.927   5.341  13.639  0.00  0.00    +0.000 A 
ATOM     20  C   UNL     1       7.216   5.186  14.833  0.00  0.00    +0.000 A 
ENDBRANCH   4  15
BRANCH   5  21
ATOM     21  C   UNL     1       6.396   6.075  17.589  0.00  0.00    +0.000 A 
ATOM     22  C   UNL     1       7.514   5.865  18.418  0.00  0.00    +0.000 A 
ATOM     23  C   UNL     1       8.398   6.902  18.736  0.00  0.00    +0.000 A 
ATOM     24  C   UNL     1       8.229   8.159  18.169  0.00  0.00    +0.000 A 
ATOM     25  C   UNL     1       7.178   8.377  17.285  0.00  0.00    +0.000 A 
ATOM     26  C   UNL     1       6.270   7.350  17.005  0.00  0.00    +0.000 A 
ENDBRANCH   5  21
TORSDOF 4
ENDMDL
MODEL 5
REMARK VINA RESULT:      -8.0      2.532      7.227
REMARK  Name = 
REMARK  4 active torsions:
REMARK  status: ('A' for Active; 'I' for Inactive)
REMARK    1  A    between atoms: O_1  and  C_2
REMARK    2  A    between atoms: C_7  and  C_8
REMARK    3  A    between atoms: C_11  and  C_12
REMARK    4  A    between atoms: C_18  and  C_19
REMARK                            x       y       z     vdW  Elec       q    Type
REMARK                         _______ _______ _______ _____ _____    ______ ____
ROOT
ATOM      1  C   UNL     1       2.704   7.634  18.565  0.00  0.00    +0.000 A 
ATOM      2  N   UNL     1       3.587   8.251  17.759  0.00  0.00    +0.000 NA
ATOM      3  N   UNL     1       4.438   7.510  16.995  0.00  0.00    +0.000 NA
ATOM      4  C   UNL     1       4.410   6.161  17.068  0.00  0.00    +0.000 A 
ATOM      5  C   UNL     1       3.557   5.557  18.005  0.00  0.00    +0.000 A 
ATOM      6  N   UNL     1       2.683   6.299  18.750  0.00  0.00    +0.000 NA
ENDROOT
BRANCH   1  12
ATOM      7  C   UNL     1       1.076   9.572  18.676  0.00  0.00    +0.000 A 
ATOM      8  C   UNL     1       0.129  10.341  19.362  0.00  0.00    +0.000 A 
ATOM      9  C   UNL     1      -0.230  10.002  20.660  0.00  0.00    +0.000 A 
ATOM     10  C   UNL     1       0.349   8.893  21.271  0.00  0.00    +0.000 A 
ATOM     11  C   UNL     1       1.301   8.131  20.580  0.00  0.00    +0.000 A 
ATOM     12  C   UNL     1       1.697   8.455  19.266  0.00  0.00    +0.000 A 
BRANCH   7  13
ATOM     13  O   UNL     1       1.362   9.912  17.378  0.00  0.00    +0.000 OA
ATOM     14  H   UNL     1       0.547  10.158  16.914  0.00  0.00    +0.000 HD
ENDBRANCH   7  13
ENDBRANCH   1  12
BRANCH   4  15
ATOM     15  C   UNL     1       5.303   5.495  16.094  0.00  0.00    +0.000 A 
ATOM     16  C   UNL     1       4.765   4.762  15.017  0.00  0.00    +0.000 A 
ATOM     17  C   UNL     1       5.585   4.180  14.046  0.00  0.00    +0.000 A 
ATOM     18  C   UNL     1       6.966   4.325  14.126  0.00  0.00    +0.000 A 
ATOM     19  C   UNL     1       7.528   5.001  15.202  0.00  0.00    +0.000 A 
ATOM     20  C   UNL     1       6.706   5.546  16.193  0.00  0.00    +0.000 A 
ENDBRANCH   4  15
BRANCH   5  21
ATOM     21  C   UNL     1       3.493   4.101  18.306  0.00  0.00    +0.000 A 
ATOM     22  C   UNL     1       2.593   3.232  17.659  0.00  0.00    +0.000 A 
ATOM     23  C   UNL     1       2.474   1.888  18.032  0.00  0.00    +0.000 A 
ATOM     24  C   UNL     1       3.309   1.361  19.010  0.00  0.00    +0.000 A 
ATOM     25  C   UNL     1       4.261   2.176  19.613  0.00  0.00    +0.000 A 
ATOM     26  C   UNL     1       4.346   3.530  19.270  0.00  0.00    +0.000 A 
ENDBRANCH   5  21
TORSDOF 4
ENDMDL
MODEL 6
REMARK VINA RESULT:      -8.0      2.615      7.170
REMARK  Name = 
REMARK  4 active torsions:
REMARK  status: ('A' for Active; 'I' for Inactive)
REMARK    1  A    between atoms: O_1  and  C_2
REMARK    2  A    between atoms: C_7  and  C_8
REMARK    3  A    between atoms: C_11  and  C_12
REMARK    4  A    between atoms: C_18  and  C_19
REMARK                            x       y       z     vdW  Elec       q    Type
REMARK                         _______ _______ _______ _____ _____    ______ ____
ROOT
ATOM      1  C   UNL     1       2.597   7.756  18.612  0.00  0.00    +0.000 A 
ATOM      2  N   UNL     1       3.494   8.378  17.825  0.00  0.00    +0.000 NA
ATOM      3  N   UNL     1       4.352   7.641  17.065  0.00  0.00    +0.000 NA
ATOM      4  C   UNL     1       4.318   6.291  17.124  0.00  0.00    +0.000 A 
ATOM      5  C   UNL     1       3.450   5.682  18.043  0.00  0.00    +0.000 A 
ATOM      6  N   UNL     1       2.569   6.419  18.784  0.00  0.00    +0.000 NA
ENDROOT
BRANCH   1  12
ATOM      7  C   UNL     1       0.986   9.707  18.726  0.00  0.00    +0.000 A 
ATOM      8  C   UNL     1       0.032  10.474  19.406  0.00  0.00    +0.000 A 
ATOM      9  C   UNL     1      -0.357  10.115  20.691  0.00  0.00    +0.000 A 
ATOM     10  C   UNL     1       0.200   8.989  21.293  0.00  0.00    +0.000 A 
ATOM     11  C   UNL     1       1.159   8.231  20.608  0.00  0.00    +0.000 A 
ATOM     12  C   UNL     1       1.584   8.575  19.307  0.00  0.00    +0.000 A 
BRANCH   7  13
ATOM     13  O   UNL     1       1.300  10.068  17.440  0.00  0.00    +0.000 OA
ATOM     14  H   UNL     1       0.728  10.795  17.151  0.00  0.00    +0.000 HD
ENDBRANCH   7  13
ENDBRANCH   1  12
BRANCH   4  15
ATOM     15  C   UNL     1       5.221   5.632  16.155  0.00  0.00    +0.000 A 
ATOM     16  C   UNL     1       6.617   5.660  16.347  0.00  0.00    +0.000 A 
ATOM     17  C   UNL     1       7.488   4.991  15.483  0.00  0.00    +0.000 A 
ATOM     18  C   UNL     1       6.981   4.269  14.407  0.00  0.00    +0.000 A 
ATOM     19  C   UNL     1       5.612   4.263  14.164  0.00  0.00    +0.000 A 
ATOM     20  C   UNL     1       4.749   4.969  15.007  0.00  0.00    +0.000 A 
ENDBRANCH   4  15
BRANCH   5  21
ATOM     21  C   UNL     1       3.376   4.224  18.328  0.00  0.00    +0.000 A 
ATOM     22  C   UNL     1       4.165   3.602  19.315  0.00  0.00    +0.000 A 
ATOM     23  C   UNL     1       4.157   2.214  19.494  0.00  0.00    +0.000 A 
ATOM     24  C   UNL     1       3.301   1.419  18.741  0.00  0.00    +0.000 A 
ATOM     25  C   UNL     1       2.454   2.013  17.812  0.00  0.00    +0.000 A 
ATOM     26  C   UNL     1       2.496   3.396  17.603  0.00  0.00    +0.000 A 
ENDBRANCH   5  21
TORSDOF 4
ENDMDL
MODEL 7
REMARK VINA RESULT:      -8.0      3.034      7.479
REMARK  Name = 
REMARK  4 active torsions:
REMARK  status: ('A' for Active; 'I' for Inactive)
REMARK    1  A    between atoms: O_1  and  C_2
REMARK    2  A    between atoms: C_7  and  C_8
REMARK    3  A    between atoms: C_11  and  C_12
REMARK    4  A    between atoms: C_18  and  C_19
REMARK                            x       y       z     vdW  Elec       q    Type
REMARK                         _______ _______ _______ _____ _____    ______ ____
ROOT
ATOM      1  C   UNL     1       1.623   8.638  19.247  0.00  0.00    +0.000 A 
ATOM      2  N   UNL     1       2.559   8.970  18.340  0.00  0.00    +0.000 NA
ATOM      3  N   UNL     1       3.317   7.997  17.762  0.00  0.00    +0.000 NA
ATOM      4  C   UNL     1       3.146   6.705  18.121  0.00  0.00    +0.000 A 
ATOM      5  C   UNL     1       2.243   6.411  19.155  0.00  0.00    +0.000 A 
ATOM      6  N   UNL     1       1.461   7.383  19.713  0.00  0.00    +0.000 NA
ENDROOT
BRANCH   1  12
ATOM      7  C   UNL     1      -0.176  10.389  18.908  0.00  0.00    +0.000 A 
ATOM      8  C   UNL     1      -1.021  11.391  19.399  0.00  0.00    +0.000 A 
ATOM      9  C   UNL     1      -1.001  11.715  20.750  0.00  0.00    +0.000 A 
ATOM     10  C   UNL     1      -0.143  11.034  21.611  0.00  0.00    +0.000 A 
ATOM     11  C   UNL     1       0.704  10.037  21.111  0.00  0.00    +0.000 A 
ATOM     12  C   UNL     1       0.717   9.693  19.743  0.00  0.00    +0.000 A 
BRANCH   7  13
ATOM     13  O   UNL     1      -0.268  10.066  17.578  0.00  0.00    +0.000 OA
ATOM     14  H   UNL     1      -0.468  10.860  17.059  0.00  0.00    +0.000 HD
ENDBRANCH   7  13
ENDBRANCH   1  12
BRANCH   4  15
ATOM     15  C   UNL     1       3.952   5.756  17.323  0.00  0.00    +0.000 A 
ATOM     16  C   UNL     1       4.856   6.229  16.350  0.00  0.00    +0.000 A 
ATOM     17  C   UNL     1       5.676   5.357  15.628  0.00  0.00    +0.000 A 
ATOM     18  C   UNL     1       5.618   3.988  15.869  0.00  0.00    +0.000 A 
ATOM     19  C   UNL     1       4.702   3.488  16.788  0.00  0.00    +0.000 A 
ATOM     20  C   UNL     1       3.854   4.360  17.477  0.00  0.00    +0.000 A 
ENDBRANCH   4  15
BRANCH   5  21
ATOM     21  C   UNL     1       2.027   5.068  19.758  0.00  0.00    +0.000 A 
ATOM     22  C   UNL     1       1.256   4.069  19.132  0.00  0.00    +0.000 A 
ATOM     23  C   UNL     1       0.977   2.853  19.764  0.00  0.00    +0.000 A 
ATOM     24  C   UNL     1       1.526   2.573  21.010  0.00  0.00    +0.000 A 
ATOM     25  C   UNL     1       2.353   3.509  21.621  0.00  0.00    +0.000 A 
ATOM     26  C   UNL     1       2.594   4.743  21.006  0.00  0.00    +0.000 A 
ENDBRANCH   5  21
TORSDOF 4
ENDMDL
MODEL 8
REMARK VINA RESULT:      -8.0      2.910      7.221
REMARK  Name = 
REMARK  4 active torsions:
REMARK  status: ('A' for Active; 'I' for Inactive)
REMARK    1  A    between atoms: O_1  and  C_2
REMARK    2  A    between atoms: C_7  and  C_8
REMARK    3  A    between atoms: C_11  and  C_12
REMARK    4  A    between atoms: C_18  and  C_19
REMARK                            x       y       z     vdW  Elec       q    Type
REMARK                         _______ _______ _______ _____ _____    ______ ____
ROOT
ATOM      1  C   UNL     1       2.058   8.265  18.823  0.00  0.00    +0.000 A 
ATOM      2  N   UNL     1       2.958   8.639  17.895  0.00  0.00    +0.000 NA
ATOM      3  N   UNL     1       3.895   7.748  17.464  0.00  0.00    +0.000 NA
ATOM      4  C   UNL     1       3.935   6.503  17.990  0.00  0.00    +0.000 A 
ATOM      5  C   UNL     1       3.057   6.190  19.038  0.00  0.00    +0.000 A 
ATOM      6  N   UNL     1       2.098   7.072  19.450  0.00  0.00    +0.000 NA
ENDROOT
BRANCH   1  12
ATOM      7  C   UNL     1       0.600   9.503  20.485  0.00  0.00    +0.000 A 
ATOM      8  C   UNL     1      -0.444  10.386  20.782  0.00  0.00    +0.000 A 
ATOM      9  C   UNL     1      -1.146  11.000  19.752  0.00  0.00    +0.000 A 
ATOM     10  C   UNL     1      -0.801  10.739  18.428  0.00  0.00    +0.000 A 
ATOM     11  C   UNL     1       0.241   9.849  18.139  0.00  0.00    +0.000 A 
ATOM     12  C   UNL     1       0.966   9.199  19.160  0.00  0.00    +0.000 A 
BRANCH   7  13
ATOM     13  O   UNL     1       1.300   8.960  21.533  0.00  0.00    +0.000 OA
ATOM     14  H   UNL     1       0.685   8.584  22.181  0.00  0.00    +0.000 HD
ENDBRANCH   7  13
ENDBRANCH   1  12
BRANCH   4  15
ATOM     15  C   UNL     1       4.923   5.616  17.337  0.00  0.00    +0.000 A 
ATOM     16  C   UNL     1       4.535   4.770  16.279  0.00  0.00    +0.000 A 
ATOM     17  C   UNL     1       5.461   3.971  15.604  0.00  0.00    +0.000 A 
ATOM     18  C   UNL     1       6.804   4.006  15.965  0.00  0.00    +0.000 A 
ATOM     19  C   UNL     1       7.209   4.795  17.036  0.00  0.00    +0.000 A 
ATOM     20  C   UNL     1       6.272   5.560  17.737  0.00  0.00    +0.000 A 
ENDBRANCH   4  15
BRANCH   5  21
ATOM     21  C   UNL     1       3.052   4.918  19.812  0.00  0.00    +0.000 A 
ATOM     22  C   UNL     1       3.915   3.846  19.516  0.00  0.00    +0.000 A 
ATOM     23  C   UNL     1       3.822   2.621  20.187  0.00  0.00    +0.000 A 
ATOM     24  C   UNL     1       2.911   2.464  21.225  0.00  0.00    +0.000 A 
ATOM     25  C   UNL     1       2.097   3.530  21.591  0.00  0.00    +0.000 A 
ATOM     26  C   UNL     1       2.162   4.739  20.889  0.00  0.00    +0.000 A 
ENDBRANCH   5  21
TORSDOF 4
ENDMDL
MODEL 9
REMARK VINA RESULT:      -7.9      3.218      7.216
REMARK  Name = 
REMARK  4 active torsions:
REMARK  status: ('A' for Active; 'I' for Inactive)
REMARK    1  A    between atoms: O_1  and  C_2
REMARK    2  A    between atoms: C_7  and  C_8
REMARK    3  A    between atoms: C_11  and  C_12
REMARK    4  A    between atoms: C_18  and  C_19
REMARK                            x       y       z     vdW  Elec       q    Type
REMARK                         _______ _______ _______ _____ _____    ______ ____
ROOT
ATOM      1  C   UNL     1       1.473   8.996  18.117  0.00  0.00    +0.000 A 
ATOM      2  N   UNL     1       2.614   9.416  17.540  0.00  0.00    +0.000 NA
ATOM      3  N   UNL     1       3.630   8.533  17.330  0.00  0.00    +0.000 NA
ATOM      4  C   UNL     1       3.500   7.247  17.725  0.00  0.00    +0.000 A 
ATOM      5  C   UNL     1       2.344   6.875  18.428  0.00  0.00    +0.000 A 
ATOM      6  N   UNL     1       1.312   7.753  18.613  0.00  0.00    +0.000 NA
ENDROOT
BRANCH   1  12
ATOM      7  C   UNL     1       0.395  11.148  18.908  0.00  0.00    +0.000 A 
ATOM      8  C   UNL     1      -0.697  12.021  18.976  0.00  0.00    +0.000 A 
ATOM      9  C   UNL     1      -1.879  11.705  18.318  0.00  0.00    +0.000 A 
ATOM     10  C   UNL     1      -1.968  10.523  17.587  0.00  0.00    +0.000 A 
ATOM     11  C   UNL     1      -0.873   9.651  17.530  0.00  0.00    +0.000 A 
ATOM     12  C   UNL     1       0.337   9.936  18.196  0.00  0.00    +0.000 A 
BRANCH   7  13
ATOM     13  O   UNL     1       1.559  11.525  19.530  0.00  0.00    +0.000 OA
ATOM     14  H   UNL     1       2.167  10.772  19.579  0.00  0.00    +0.000 HD
ENDBRANCH   7  13
ENDBRANCH   1  12
BRANCH   4  15
ATOM     15  C   UNL     1       4.632   6.385  17.320  0.00  0.00    +0.000 A 
ATOM     16  C   UNL     1       5.366   5.669  18.287  0.00  0.00    +0.000 A 
ATOM     17  C   UNL     1       6.398   4.798  17.926  0.00  0.00    +0.000 A 
ATOM     18  C   UNL     1       6.714   4.615  16.584  0.00  0.00    +0.000 A 
ATOM     19  C   UNL     1       6.039   5.342  15.610  0.00  0.00    +0.000 A 
ATOM     20  C   UNL     1       5.037   6.245  15.980  0.00  0.00    +0.000 A 
ENDBRANCH   4  15
BRANCH   5  21
ATOM     21  C   UNL     1       2.095   5.543  19.043  0.00  0.00    +0.000 A 
ATOM     22  C   UNL     1       1.764   4.406  18.282  0.00  0.00    +0.000 A 
ATOM     23  C   UNL     1       1.430   3.189  18.886  0.00  0.00    +0.000 A 
ATOM     24  C   UNL     1       1.493   3.058  20.268  0.00  0.00    +0.000 A 
ATOM     25  C   UNL     1       1.890   4.143  21.043  0.00  0.00    +0.000 A 
ATOM     26  C   UNL     1       2.180   5.370  20.438  0.00  0.00    +0.000 A 
ENDBRANCH   5  21
TORSDOF 4
ENDMDL
