MODEL 1
REMARK VINA RESULT:      -9.5      0.000      0.000
REMARK  Name = 
REMARK  9 active torsions:
REMARK  status: ('A' for Active; 'I' for Inactive)
REMARK    1  A    between atoms: C_1  and  N_2
REMARK    2  A    between atoms: N_2  and  C_3
REMARK    3  A    between atoms: C_3  and  C_4
REMARK    4  A    between atoms: C_8  and  C_9
REMARK    5  A    between atoms: N_15  and  C_16
REMARK    6  A    between atoms: C_20  and  C_21
REMARK    7  A    between atoms: C_21  and  C_22
REMARK    8  A    between atoms: C_22  and  C_23
REMARK    9  A    between atoms: N_27  and  C_28
REMARK                            x       y       z     vdW  Elec       q    Type
REMARK                         _______ _______ _______ _____ _____    ______ ____
ROOT
ATOM      1  C   UNL     1      -0.142  11.480  19.199  0.00  0.00    +0.000 A 
ATOM      2  C   UNL     1       0.630  10.617  18.415  0.00  0.00    +0.000 A 
ATOM      3  C   UNL     1       1.110   9.463  19.003  0.00  0.00    +0.000 A 
ATOM      4  C   UNL     1       0.857   9.123  20.327  0.00  0.00    +0.000 A 
ATOM      5  C   UNL     1       0.117   9.969  21.144  0.00  0.00    +0.000 A 
ATOM      6  C   UNL     1      -0.386  11.150  20.554  0.00  0.00    +0.000 A 
ATOM      7  C   UNL     1       1.481   7.792  20.619  0.00  0.00    +0.000 C 
ATOM      8  N   UNL     1       2.149   7.456  19.370  0.00  0.00    +0.000 N 
ATOM      9  C   UNL     1       1.936   8.420  18.390  0.00  0.00    +0.000 C 
ATOM     10  O   UNL     1       2.294   8.481  17.230  0.00  0.00    +0.000 OA
ENDROOT
BRANCH   8  11
ATOM     11  C   UNL     1       2.960   6.304  19.241  0.00  0.00    +0.000 A 
ATOM     12  C   UNL     1       2.927   5.278  20.187  0.00  0.00    +0.000 A 
ATOM     13  C   UNL     1       3.705   4.136  20.021  0.00  0.00    +0.000 A 
ATOM     14  C   UNL     1       4.542   4.020  18.912  0.00  0.00    +0.000 A 
ATOM     15  C   UNL     1       4.612   5.021  17.925  0.00  0.00    +0.000 A 
ATOM     16  C   UNL     1       3.797   6.153  18.127  0.00  0.00    +0.000 A 
BRANCH  15  17
ATOM     17  C   UNL     1       5.542   4.859  16.626  0.00  0.00    +0.000 C 
ATOM     18  C   UNL     1       5.229   5.887  15.476  0.00  0.00    +0.000 C 
ATOM     19  C   UNL     1       5.505   4.772  14.455  0.00  0.00    +0.000 C 
ATOM     20  C   UNL     1       5.174   3.757  15.561  0.00  0.00    +0.000 C 
BRANCH  17  21
ATOM     21  C   UNL     1       7.028   4.855  17.061  0.00  0.00    +0.000 C 
BRANCH  21  22
ATOM     22  C   UNL     1       7.563   6.196  17.503  0.00  0.00    +0.000 C 
ATOM     23  N   UNL     1       7.471   7.258  16.720  0.00  0.00    +0.000 NA
ATOM     24  N   UNL     1       8.019   8.318  17.426  0.00  0.00    +0.000 N 
ATOM     25  C   UNL     1       8.237   7.882  18.804  0.00  0.00    +0.000 C 
ATOM     26  N   UNL     1       8.124   6.444  18.744  0.00  0.00    +0.000 N 
ATOM     27  C   UNL     1       8.024   5.664  19.942  0.00  0.00    +0.000 C 
ATOM     28  H   UNL     1       7.425   9.143  17.377  0.00  0.00    +0.000 HD
ENDBRANCH  21  22
ENDBRANCH  17  21
ENDBRANCH  15  17
ENDBRANCH   8  11
BRANCH   5  29
ATOM     29  C   UNL     1      -0.144   9.681  22.599  0.00  0.00    +0.000 C 
ATOM     30  F   UNL     1       0.982   9.439  23.324  0.00  0.00    +0.000 F 
ATOM     31  F   UNL     1      -0.776  10.712  23.225  0.00  0.00    +0.000 F 
ATOM     32  F   UNL     1      -0.940   8.591  22.776  0.00  0.00    +0.000 F 
ENDBRANCH   5  29
BRANCH   1  33
ATOM     33  C   UNL     1      -0.721  12.730  18.579  0.00  0.00    +0.000 C 
BRANCH  33  35
ATOM     34  C   UNL     1      -2.484  11.616  17.400  0.00  0.00    +0.000 C 
ATOM     35  N   UNL     1      -1.305  12.460  17.270  0.00  0.00    +0.000 NA
ATOM     36  H   UNL     1      -1.571  13.338  16.828  0.00  0.00    +0.000 HD
ENDBRANCH  33  35
ENDBRANCH   1  33
TORSDOF 7
ENDMDL
MODEL 2
REMARK VINA RESULT:      -9.2      1.363      2.729
REMARK  Name = 
REMARK  9 active torsions:
REMARK  status: ('A' for Active; 'I' for Inactive)
REMARK    1  A    between atoms: C_1  and  N_2
REMARK    2  A    between atoms: N_2  and  C_3
REMARK    3  A    between atoms: C_3  and  C_4
REMARK    4  A    between atoms: C_8  and  C_9
REMARK    5  A    between atoms: N_15  and  C_16
REMARK    6  A    between atoms: C_20  and  C_21
REMARK    7  A    between atoms: C_21  and  C_22
REMARK    8  A    between atoms: C_22  and  C_23
REMARK    9  A    between atoms: N_27  and  C_28
REMARK                            x       y       z     vdW  Elec       q    Type
REMARK                         _______ _______ _______ _____ _____    ______ ____
ROOT
ATOM      1  C   UNL     1      -0.312  11.525  19.339  0.00  0.00    +0.000 A 
ATOM      2  C   UNL     1       0.507  10.685  18.578  0.00  0.00    +0.000 A 
ATOM      3  C   UNL     1       0.991   9.538  19.175  0.00  0.00    +0.000 A 
ATOM      4  C   UNL     1       0.698   9.182  20.488  0.00  0.00    +0.000 A 
ATOM      5  C   UNL     1      -0.089  10.006  21.283  0.00  0.00    +0.000 A 
ATOM      6  C   UNL     1      -0.597  11.180  20.683  0.00  0.00    +0.000 A 
ATOM      7  C   UNL     1       1.342   7.864  20.792  0.00  0.00    +0.000 C 
ATOM      8  N   UNL     1       2.061   7.552  19.567  0.00  0.00    +0.000 N 
ATOM      9  C   UNL     1       1.862   8.518  18.586  0.00  0.00    +0.000 C 
ATOM     10  O   UNL     1       2.260   8.595  17.440  0.00  0.00    +0.000 OA
ENDROOT
BRANCH   8  11
ATOM     11  C   UNL     1       2.902   6.419  19.460  0.00  0.00    +0.000 A 
ATOM     12  C   UNL     1       2.433   5.133  19.731  0.00  0.00    +0.000 A 
ATOM     13  C   UNL     1       3.267   4.029  19.584  0.00  0.00    +0.000 A 
ATOM     14  C   UNL     1       4.589   4.205  19.180  0.00  0.00    +0.000 A 
ATOM     15  C   UNL     1       5.115   5.478  18.889  0.00  0.00    +0.000 A 
ATOM     16  C   UNL     1       4.232   6.565  19.039  0.00  0.00    +0.000 A 
BRANCH  15  17
ATOM     17  C   UNL     1       6.625   5.668  18.379  0.00  0.00    +0.000 C 
ATOM     18  C   UNL     1       7.661   5.961  19.527  0.00  0.00    +0.000 C 
ATOM     19  C   UNL     1       8.387   6.927  18.576  0.00  0.00    +0.000 C 
ATOM     20  C   UNL     1       7.062   7.071  17.808  0.00  0.00    +0.000 C 
BRANCH  17  21
ATOM     21  C   UNL     1       7.018   4.465  17.486  0.00  0.00    +0.000 C 
BRANCH  21  22
ATOM     22  C   UNL     1       6.724   4.646  16.015  0.00  0.00    +0.000 C 
ATOM     23  N   UNL     1       7.658   5.073  15.182  0.00  0.00    +0.000 NA
ATOM     24  N   UNL     1       7.080   5.097  13.921  0.00  0.00    +0.000 N 
ATOM     25  C   UNL     1       5.788   4.418  14.001  0.00  0.00    +0.000 C 
ATOM     26  N   UNL     1       5.516   4.336  15.416  0.00  0.00    +0.000 N 
ATOM     27  C   UNL     1       4.457   3.509  15.914  0.00  0.00    +0.000 C 
ATOM     28  H   UNL     1       7.691   4.673  13.226  0.00  0.00    +0.000 HD
ENDBRANCH  21  22
ENDBRANCH  17  21
ENDBRANCH  15  17
ENDBRANCH   8  11
BRANCH   5  29
ATOM     29  C   UNL     1      -0.395   9.702  22.725  0.00  0.00    +0.000 C 
ATOM     30  F   UNL     1      -1.091   8.547  22.909  0.00  0.00    +0.000 F 
ATOM     31  F   UNL     1       0.731   9.582  23.479  0.00  0.00    +0.000 F 
ATOM     32  F   UNL     1      -1.138  10.679  23.314  0.00  0.00    +0.000 F 
ENDBRANCH   5  29
BRANCH   1  33
ATOM     33  C   UNL     1      -0.896  12.766  18.707  0.00  0.00    +0.000 C 
BRANCH  33  35
ATOM     34  C   UNL     1      -0.353  15.025  19.293  0.00  0.00    +0.000 C 
ATOM     35  N   UNL     1       0.096  13.830  18.593  0.00  0.00    +0.000 NA
ATOM     36  H   UNL     1       0.977  13.518  18.996  0.00  0.00    +0.000 HD
ENDBRANCH  33  35
ENDBRANCH   1  33
TORSDOF 7
ENDMDL
MODEL 3
REMARK VINA RESULT:      -9.1      1.321      2.640
REMARK  Name = 
REMARK  9 active torsions:
REMARK  status: ('A' for Active; 'I' for Inactive)
REMARK    1  A    between atoms: C_1  and  N_2
REMARK    2  A    between atoms: N_2  and  C_3
REMARK    3  A    between atoms: C_3  and  C_4
REMARK    4  A    between atoms: C_8  and  C_9
REMARK    5  A    between atoms: N_15  and  C_16
REMARK    6  A    between atoms: C_20  and  C_21
REMARK    7  A    between atoms: C_21  and  C_22
REMARK    8  A    between atoms: C_22  and  C_23
REMARK    9  A    between atoms: N_27  and  C_28
REMARK                            x       y       z     vdW  Elec       q    Type
REMARK                         _______ _______ _______ _____ _____    ______ ____
ROOT
ATOM      1  C   UNL     1      -0.410  11.385  19.427  0.00  0.00    +0.000 A 
ATOM      2  C   UNL     1       0.395  10.552  18.646  0.00  0.00    +0.000 A 
ATOM      3  C   UNL     1       0.932   9.427  19.240  0.00  0.00    +0.000 A 
ATOM      4  C   UNL     1       0.704   9.088  20.570  0.00  0.00    +0.000 A 
ATOM      5  C   UNL     1      -0.068   9.907  21.385  0.00  0.00    +0.000 A 
ATOM      6  C   UNL     1      -0.630  11.058  20.787  0.00  0.00    +0.000 A 
ATOM      7  C   UNL     1       1.392   7.791  20.869  0.00  0.00    +0.000 C 
ATOM      8  N   UNL     1       2.065   7.474  19.618  0.00  0.00    +0.000 N 
ATOM      9  C   UNL     1       1.801   8.417  18.631  0.00  0.00    +0.000 C 
ATOM     10  O   UNL     1       2.147   8.483  17.467  0.00  0.00    +0.000 OA
ENDROOT
BRANCH   8  11
ATOM     11  C   UNL     1       2.927   6.359  19.494  0.00  0.00    +0.000 A 
ATOM     12  C   UNL     1       2.487   5.061  19.759  0.00  0.00    +0.000 A 
ATOM     13  C   UNL     1       3.342   3.976  19.595  0.00  0.00    +0.000 A 
ATOM     14  C   UNL     1       4.656   4.182  19.180  0.00  0.00    +0.000 A 
ATOM     15  C   UNL     1       5.153   5.467  18.894  0.00  0.00    +0.000 A 
ATOM     16  C   UNL     1       4.250   6.536  19.061  0.00  0.00    +0.000 A 
BRANCH  15  17
ATOM     17  C   UNL     1       6.654   5.692  18.371  0.00  0.00    +0.000 C 
ATOM     18  C   UNL     1       7.691   6.019  19.509  0.00  0.00    +0.000 C 
ATOM     19  C   UNL     1       8.385   6.996  18.546  0.00  0.00    +0.000 C 
ATOM     20  C   UNL     1       7.051   7.102  17.787  0.00  0.00    +0.000 C 
BRANCH  17  21
ATOM     21  C   UNL     1       7.070   4.494  17.483  0.00  0.00    +0.000 C 
BRANCH  21  22
ATOM     22  C   UNL     1       6.752   4.652  16.015  0.00  0.00    +0.000 C 
ATOM     23  N   UNL     1       7.652   5.126  15.170  0.00  0.00    +0.000 NA
ATOM     24  N   UNL     1       7.061   5.114  13.915  0.00  0.00    +0.000 N 
ATOM     25  C   UNL     1       5.808   4.367  14.011  0.00  0.00    +0.000 C 
ATOM     26  N   UNL     1       5.555   4.276  15.430  0.00  0.00    +0.000 N 
ATOM     27  C   UNL     1       4.548   3.395  15.941  0.00  0.00    +0.000 C 
ATOM     28  H   UNL     1       7.686   4.721  13.215  0.00  0.00    +0.000 HD
ENDBRANCH  21  22
ENDBRANCH  17  21
ENDBRANCH  15  17
ENDBRANCH   8  11
BRANCH   5  29
ATOM     29  C   UNL     1      -0.305   9.622  22.844  0.00  0.00    +0.000 C 
ATOM     30  F   UNL     1      -0.998  10.598  23.491  0.00  0.00    +0.000 F 
ATOM     31  F   UNL     1      -1.009   8.473  23.038  0.00  0.00    +0.000 F 
ATOM     32  F   UNL     1       0.857   9.470  23.537  0.00  0.00    +0.000 F 
ENDBRANCH   5  29
BRANCH   1  33
ATOM     33  C   UNL     1      -1.051  12.601  18.800  0.00  0.00    +0.000 C 
BRANCH  33  35
ATOM     34  C   UNL     1      -3.353  12.302  19.395  0.00  0.00    +0.000 C 
ATOM     35  N   UNL     1      -2.391  12.307  18.302  0.00  0.00    +0.000 NA
ATOM     36  H   UNL     1      -2.664  13.013  17.621  0.00  0.00    +0.000 HD
ENDBRANCH  33  35
ENDBRANCH   1  33
TORSDOF 7
ENDMDL
MODEL 4
REMARK VINA RESULT:      -9.0      0.880      1.224
REMARK  Name = 
REMARK  9 active torsions:
REMARK  status: ('A' for Active; 'I' for Inactive)
REMARK    1  A    between atoms: C_1  and  N_2
REMARK    2  A    between atoms: N_2  and  C_3
REMARK    3  A    between atoms: C_3  and  C_4
REMARK    4  A    between atoms: C_8  and  C_9
REMARK    5  A    between atoms: N_15  and  C_16
REMARK    6  A    between atoms: C_20  and  C_21
REMARK    7  A    between atoms: C_21  and  C_22
REMARK    8  A    between atoms: C_22  and  C_23
REMARK    9  A    between atoms: N_27  and  C_28
REMARK                            x       y       z     vdW  Elec       q    Type
REMARK                         _______ _______ _______ _____ _____    ______ ____
ROOT
ATOM      1  C   UNL     1       0.456  11.642  19.396  0.00  0.00    +0.000 A 
ATOM      2  C   UNL     1       1.174  10.755  18.589  0.00  0.00    +0.000 A 
ATOM      3  C   UNL     1       1.459   9.503  19.097  0.00  0.00    +0.000 A 
ATOM      4  C   UNL     1       1.062   9.088  20.364  0.00  0.00    +0.000 A 
ATOM      5  C   UNL     1       0.372   9.952  21.205  0.00  0.00    +0.000 A 
ATOM      6  C   UNL     1       0.066  11.234  20.696  0.00  0.00    +0.000 A 
ATOM      7  C   UNL     1       1.492   7.668  20.571  0.00  0.00    +0.000 C 
ATOM      8  N   UNL     1       2.209   7.354  19.344  0.00  0.00    +0.000 N 
ATOM      9  C   UNL     1       2.194   8.416  18.447  0.00  0.00    +0.000 C 
ATOM     10  O   UNL     1       2.647   8.527  17.323  0.00  0.00    +0.000 OA
ENDROOT
BRANCH   8  11
ATOM     11  C   UNL     1       2.878   6.120  19.162  0.00  0.00    +0.000 A 
ATOM     12  C   UNL     1       2.629   5.025  19.990  0.00  0.00    +0.000 A 
ATOM     13  C   UNL     1       3.271   3.810  19.771  0.00  0.00    +0.000 A 
ATOM     14  C   UNL     1       4.186   3.686  18.728  0.00  0.00    +0.000 A 
ATOM     15  C   UNL     1       4.473   4.755  17.858  0.00  0.00    +0.000 A 
ATOM     16  C   UNL     1       3.791   5.962  18.109  0.00  0.00    +0.000 A 
BRANCH  15  17
ATOM     17  C   UNL     1       5.494   4.591  16.630  0.00  0.00    +0.000 C 
ATOM     18  C   UNL     1       5.248   5.602  15.448  0.00  0.00    +0.000 C 
ATOM     19  C   UNL     1       5.609   4.479  14.462  0.00  0.00    +0.000 C 
ATOM     20  C   UNL     1       5.213   3.472  15.555  0.00  0.00    +0.000 C 
BRANCH  17  21
ATOM     21  C   UNL     1       6.946   4.611  17.167  0.00  0.00    +0.000 C 
BRANCH  21  22
ATOM     22  C   UNL     1       7.485   5.986  17.483  0.00  0.00    +0.000 C 
ATOM     23  N   UNL     1       7.379   6.976  16.613  0.00  0.00    +0.000 NA
ATOM     24  N   UNL     1       7.937   8.093  17.216  0.00  0.00    +0.000 N 
ATOM     25  C   UNL     1       8.177   7.777  18.623  0.00  0.00    +0.000 C 
ATOM     26  N   UNL     1       8.065   6.339  18.689  0.00  0.00    +0.000 N 
ATOM     27  C   UNL     1       7.986   5.666  19.951  0.00  0.00    +0.000 C 
ATOM     28  H   UNL     1       7.340   8.910  17.106  0.00  0.00    +0.000 HD
ENDBRANCH  21  22
ENDBRANCH  17  21
ENDBRANCH  15  17
ENDBRANCH   8  11
BRANCH   5  29
ATOM     29  C   UNL     1      -0.036   9.579  22.606  0.00  0.00    +0.000 C 
ATOM     30  F   UNL     1      -0.891   8.522  22.668  0.00  0.00    +0.000 F 
ATOM     31  F   UNL     1       1.029   9.243  23.383  0.00  0.00    +0.000 F 
ATOM     32  F   UNL     1      -0.664  10.600  23.252  0.00  0.00    +0.000 F 
ENDBRANCH   5  29
BRANCH   1  33
ATOM     33  C   UNL     1       0.086  13.005  18.859  0.00  0.00    +0.000 C 
BRANCH  33  35
ATOM     34  C   UNL     1      -0.619  15.193  19.532  0.00  0.00    +0.000 C 
ATOM     35  N   UNL     1       0.185  14.034  19.889  0.00  0.00    +0.000 NA
ATOM     36  H   UNL     1      -0.144  13.660  20.777  0.00  0.00    +0.000 HD
ENDBRANCH  33  35
ENDBRANCH   1  33
TORSDOF 7
ENDMDL
MODEL 5
REMARK VINA RESULT:      -9.0      0.715      1.169
REMARK  Name = 
REMARK  9 active torsions:
REMARK  status: ('A' for Active; 'I' for Inactive)
REMARK    1  A    between atoms: C_1  and  N_2
REMARK    2  A    between atoms: N_2  and  C_3
REMARK    3  A    between atoms: C_3  and  C_4
REMARK    4  A    between atoms: C_8  and  C_9
REMARK    5  A    between atoms: N_15  and  C_16
REMARK    6  A    between atoms: C_20  and  C_21
REMARK    7  A    between atoms: C_21  and  C_22
REMARK    8  A    between atoms: C_22  and  C_23
REMARK    9  A    between atoms: N_27  and  C_28
REMARK                            x       y       z     vdW  Elec       q    Type
REMARK                         _______ _______ _______ _____ _____    ______ ____
ROOT
ATOM      1  C   UNL     1       0.075  11.350  19.066  0.00  0.00    +0.000 A 
ATOM      2  C   UNL     1       0.866  10.540  18.247  0.00  0.00    +0.000 A 
ATOM      3  C   UNL     1       1.349   9.359  18.776  0.00  0.00    +0.000 A 
ATOM      4  C   UNL     1       1.081   8.942  20.075  0.00  0.00    +0.000 A 
ATOM      5  C   UNL     1       0.322   9.735  20.928  0.00  0.00    +0.000 A 
ATOM      6  C   UNL     1      -0.185  10.942  20.398  0.00  0.00    +0.000 A 
ATOM      7  C   UNL     1       1.715   7.604  20.300  0.00  0.00    +0.000 C 
ATOM      8  N   UNL     1       2.403   7.344  19.045  0.00  0.00    +0.000 N 
ATOM      9  C   UNL     1       2.194   8.360  18.118  0.00  0.00    +0.000 C 
ATOM     10  O   UNL     1       2.567   8.489  16.967  0.00  0.00    +0.000 OA
ENDROOT
BRANCH   8  11
ATOM     11  C   UNL     1       3.227   6.208  18.863  0.00  0.00    +0.000 A 
ATOM     12  C   UNL     1       3.255   5.170  19.795  0.00  0.00    +0.000 A 
ATOM     13  C   UNL     1       4.045   4.045  19.578  0.00  0.00    +0.000 A 
ATOM     14  C   UNL     1       4.832   3.958  18.431  0.00  0.00    +0.000 A 
ATOM     15  C   UNL     1       4.839   4.973  17.455  0.00  0.00    +0.000 A 
ATOM     16  C   UNL     1       4.015   6.087  17.709  0.00  0.00    +0.000 A 
BRANCH  15  17
ATOM     17  C   UNL     1       5.712   4.844  16.113  0.00  0.00    +0.000 C 
ATOM     18  C   UNL     1       4.910   5.142  14.792  0.00  0.00    +0.000 C 
ATOM     19  C   UNL     1       5.705   4.022  14.101  0.00  0.00    +0.000 C 
ATOM     20  C   UNL     1       5.943   3.414  15.493  0.00  0.00    +0.000 C 
BRANCH  17  21
ATOM     21  C   UNL     1       6.999   5.693  16.259  0.00  0.00    +0.000 C 
BRANCH  21  22
ATOM     22  C   UNL     1       7.495   5.854  17.676  0.00  0.00    +0.000 C 
ATOM     23  N   UNL     1       7.861   4.805  18.393  0.00  0.00    +0.000 NA
ATOM     24  N   UNL     1       8.289   5.294  19.618  0.00  0.00    +0.000 N 
ATOM     25  C   UNL     1       8.388   6.749  19.517  0.00  0.00    +0.000 C 
ATOM     26  N   UNL     1       7.661   7.072  18.312  0.00  0.00    +0.000 N 
ATOM     27  C   UNL     1       7.745   8.380  17.733  0.00  0.00    +0.000 C 
ATOM     28  H   UNL     1       9.171   4.870  19.898  0.00  0.00    +0.000 HD
ENDBRANCH  21  22
ENDBRANCH  17  21
ENDBRANCH  15  17
ENDBRANCH   8  11
BRANCH   5  29
ATOM     29  C   UNL     1       0.044   9.363  22.360  0.00  0.00    +0.000 C 
ATOM     30  F   UNL     1       1.142   8.943  23.044  0.00  0.00    +0.000 F 
ATOM     31  F   UNL     1      -0.465  10.404  23.075  0.00  0.00    +0.000 F 
ATOM     32  F   UNL     1      -0.866   8.356  22.466  0.00  0.00    +0.000 F 
ENDBRANCH   5  29
BRANCH   1  33
ATOM     33  C   UNL     1      -0.508  12.627  18.510  0.00  0.00    +0.000 C 
BRANCH  33  35
ATOM     34  C   UNL     1      -2.613  11.772  17.750  0.00  0.00    +0.000 C 
ATOM     35  N   UNL     1      -1.350  12.372  17.346  0.00  0.00    +0.000 NA
ATOM     36  H   UNL     1      -1.537  13.248  16.862  0.00  0.00    +0.000 HD
ENDBRANCH  33  35
ENDBRANCH   1  33
TORSDOF 7
ENDMDL
MODEL 6
REMARK VINA RESULT:      -9.0      2.747      8.289
REMARK  Name = 
REMARK  9 active torsions:
REMARK  status: ('A' for Active; 'I' for Inactive)
REMARK    1  A    between atoms: C_1  and  N_2
REMARK    2  A    between atoms: N_2  and  C_3
REMARK    3  A    between atoms: C_3  and  C_4
REMARK    4  A    between atoms: C_8  and  C_9
REMARK    5  A    between atoms: N_15  and  C_16
REMARK    6  A    between atoms: C_20  and  C_21
REMARK    7  A    between atoms: C_21  and  C_22
REMARK    8  A    between atoms: C_22  and  C_23
REMARK    9  A    between atoms: N_27  and  C_28
REMARK                            x       y       z     vdW  Elec       q    Type
REMARK                         _______ _______ _______ _____ _____    ______ ____
ROOT
ATOM      1  C   UNL     1       3.989   4.583  17.693  0.00  0.00    +0.000 A 
ATOM      2  C   UNL     1       3.653   5.938  17.622  0.00  0.00    +0.000 A 
ATOM      3  C   UNL     1       2.846   6.458  18.614  0.00  0.00    +0.000 A 
ATOM      4  C   UNL     1       2.360   5.700  19.674  0.00  0.00    +0.000 A 
ATOM      5  C   UNL     1       2.649   4.344  19.762  0.00  0.00    +0.000 A 
ATOM      6  C   UNL     1       3.481   3.800  18.758  0.00  0.00    +0.000 A 
ATOM      7  C   UNL     1       1.563   6.584  20.584  0.00  0.00    +0.000 C 
ATOM      8  N   UNL     1       1.598   7.874  19.911  0.00  0.00    +0.000 N 
ATOM      9  C   UNL     1       2.361   7.834  18.748  0.00  0.00    +0.000 C 
ATOM     10  O   UNL     1       2.650   8.700  17.945  0.00  0.00    +0.000 OA
ENDROOT
BRANCH   8  11
ATOM     11  C   UNL     1       0.871   8.989  20.391  0.00  0.00    +0.000 A 
ATOM     12  C   UNL     1       1.037   9.464  21.693  0.00  0.00    +0.000 A 
ATOM     13  C   UNL     1       0.339  10.585  22.132  0.00  0.00    +0.000 A 
ATOM     14  C   UNL     1      -0.549  11.231  21.275  0.00  0.00    +0.000 A 
ATOM     15  C   UNL     1      -0.752  10.799  19.951  0.00  0.00    +0.000 A 
ATOM     16  C   UNL     1      -0.016   9.669  19.544  0.00  0.00    +0.000 A 
BRANCH  15  17
ATOM     17  C   UNL     1      -1.742  11.578  18.954  0.00  0.00    +0.000 C 
ATOM     18  C   UNL     1      -2.939  12.305  19.672  0.00  0.00    +0.000 C 
ATOM     19  C   UNL     1      -3.839  11.913  18.489  0.00  0.00    +0.000 C 
ATOM     20  C   UNL     1      -2.863  10.760  18.206  0.00  0.00    +0.000 C 
BRANCH  17  21
ATOM     21  C   UNL     1      -0.914  12.511  18.038  0.00  0.00    +0.000 C 
BRANCH  21  22
ATOM     22  C   UNL     1       0.003  13.464  18.768  0.00  0.00    +0.000 C 
ATOM     23  N   UNL     1      -0.483  14.408  19.556  0.00  0.00    +0.000 NA
ATOM     24  N   UNL     1       0.608  15.078  20.090  0.00  0.00    +0.000 N 
ATOM     25  C   UNL     1       1.812  14.318  19.761  0.00  0.00    +0.000 C 
ATOM     26  N   UNL     1       1.385  13.403  18.728  0.00  0.00    +0.000 N 
ATOM     27  C   UNL     1       2.221  12.313  18.321  0.00  0.00    +0.000 C 
ATOM     28  H   UNL     1       0.504  15.213  21.093  0.00  0.00    +0.000 HD
ENDBRANCH  21  22
ENDBRANCH  17  21
ENDBRANCH  15  17
ENDBRANCH   8  11
BRANCH   5  29
ATOM     29  C   UNL     1       2.108   3.460  20.855  0.00  0.00    +0.000 C 
ATOM     30  F   UNL     1       0.749   3.407  20.899  0.00  0.00    +0.000 F 
ATOM     31  F   UNL     1       2.527   2.171  20.732  0.00  0.00    +0.000 F 
ATOM     32  F   UNL     1       2.504   3.867  22.093  0.00  0.00    +0.000 F 
ENDBRANCH   5  29
BRANCH   1  33
ATOM     33  C   UNL     1       4.907   3.989  16.651  0.00  0.00    +0.000 C 
BRANCH  33  35
ATOM     34  C   UNL     1       7.094   4.620  15.903  0.00  0.00    +0.000 C 
ATOM     35  N   UNL     1       6.310   4.128  17.027  0.00  0.00    +0.000 NA
ATOM     36  H   UNL     1       6.391   4.782  17.802  0.00  0.00    +0.000 HD
ENDBRANCH  33  35
ENDBRANCH   1  33
TORSDOF 7
ENDMDL
MODEL 7
REMARK VINA RESULT:      -9.0      2.631      8.700
REMARK  Name = 
REMARK  9 active torsions:
REMARK  status: ('A' for Active; 'I' for Inactive)
REMARK    1  A    between atoms: C_1  and  N_2
REMARK    2  A    between atoms: N_2  and  C_3
REMARK    3  A    between atoms: C_3  and  C_4
REMARK    4  A    between atoms: C_8  and  C_9
REMARK    5  A    between atoms: N_15  and  C_16
REMARK    6  A    between atoms: C_20  and  C_21
REMARK    7  A    between atoms: C_21  and  C_22
REMARK    8  A    between atoms: C_22  and  C_23
REMARK    9  A    between atoms: N_27  and  C_28
REMARK                            x       y       z     vdW  Elec       q    Type
REMARK                         _______ _______ _______ _____ _____    ______ ____
ROOT
ATOM      1  C   UNL     1       3.847   4.747  17.599  0.00  0.00    +0.000 A 
ATOM      2  C   UNL     1       3.502   6.099  17.681  0.00  0.00    +0.000 A 
ATOM      3  C   UNL     1       2.733   6.507  18.752  0.00  0.00    +0.000 A 
ATOM      4  C   UNL     1       2.294   5.641  19.747  0.00  0.00    +0.000 A 
ATOM      5  C   UNL     1       2.593   4.285  19.685  0.00  0.00    +0.000 A 
ATOM      6  C   UNL     1       3.387   3.854  18.598  0.00  0.00    +0.000 A 
ATOM      7  C   UNL     1       1.530   6.421  20.774  0.00  0.00    +0.000 C 
ATOM      8  N   UNL     1       1.532   7.773  20.235  0.00  0.00    +0.000 N 
ATOM      9  C   UNL     1       2.247   7.858  19.046  0.00  0.00    +0.000 C 
ATOM     10  O   UNL     1       2.499   8.804  18.324  0.00  0.00    +0.000 OA
ENDROOT
BRANCH   8  11
ATOM     11  C   UNL     1       0.819   8.826  20.856  0.00  0.00    +0.000 A 
ATOM     12  C   UNL     1       0.718   8.922  22.244  0.00  0.00    +0.000 A 
ATOM     13  C   UNL     1       0.044   9.987  22.834  0.00  0.00    +0.000 A 
ATOM     14  C   UNL     1      -0.554  10.960  22.035  0.00  0.00    +0.000 A 
ATOM     15  C   UNL     1      -0.480  10.916  20.630  0.00  0.00    +0.000 A 
ATOM     16  C   UNL     1       0.223   9.828  20.076  0.00  0.00    +0.000 A 
BRANCH  15  17
ATOM     17  C   UNL     1      -1.131  12.066  19.717  0.00  0.00    +0.000 C 
ATOM     18  C   UNL     1      -0.219  12.535  18.523  0.00  0.00    +0.000 C 
ATOM     19  C   UNL     1      -0.718  13.970  18.753  0.00  0.00    +0.000 C 
ATOM     20  C   UNL     1      -1.037  13.563  20.201  0.00  0.00    +0.000 C 
BRANCH  17  21
ATOM     21  C   UNL     1      -2.548  11.625  19.275  0.00  0.00    +0.000 C 
BRANCH  21  22
ATOM     22  C   UNL     1      -2.647  11.159  17.842  0.00  0.00    +0.000 C 
ATOM     23  N   UNL     1      -1.754  10.329  17.331  0.00  0.00    +0.000 NA
ATOM     24  N   UNL     1      -2.147  10.078  16.025  0.00  0.00    +0.000 N 
ATOM     25  C   UNL     1      -3.490  10.627  15.843  0.00  0.00    +0.000 C 
ATOM     26  N   UNL     1      -3.676  11.497  16.980  0.00  0.00    +0.000 N 
ATOM     27  C   UNL     1      -4.970  12.026  17.296  0.00  0.00    +0.000 C 
ATOM     28  H   UNL     1      -2.109   9.084  15.811  0.00  0.00    +0.000 HD
ENDBRANCH  21  22
ENDBRANCH  17  21
ENDBRANCH  15  17
ENDBRANCH   8  11
BRANCH   5  29
ATOM     29  C   UNL     1       2.101   3.290  20.702  0.00  0.00    +0.000 C 
ATOM     30  F   UNL     1       2.511   3.553  21.973  0.00  0.00    +0.000 F 
ATOM     31  F   UNL     1       0.743   3.232  20.753  0.00  0.00    +0.000 F 
ATOM     32  F   UNL     1       2.521   2.024  20.432  0.00  0.00    +0.000 F 
ENDBRANCH   5  29
BRANCH   1  33
ATOM     33  C   UNL     1       4.725   4.270  16.466  0.00  0.00    +0.000 C 
BRANCH  33  35
ATOM     34  C   UNL     1       6.921   4.659  17.341  0.00  0.00    +0.000 C 
ATOM     35  N   UNL     1       5.938   5.073  16.350  0.00  0.00    +0.000 NA
ATOM     36  H   UNL     1       6.334   4.959  15.419  0.00  0.00    +0.000 HD
ENDBRANCH  33  35
ENDBRANCH   1  33
TORSDOF 7
ENDMDL
MODEL 8
REMARK VINA RESULT:      -8.8      2.659      8.794
REMARK  Name = 
REMARK  9 active torsions:
REMARK  status: ('A' for Active; 'I' for Inactive)
REMARK    1  A    between atoms: C_1  and  N_2
REMARK    2  A    between atoms: N_2  and  C_3
REMARK    3  A    between atoms: C_3  and  C_4
REMARK    4  A    between atoms: C_8  and  C_9
REMARK    5  A    between atoms: N_15  and  C_16
REMARK    6  A    between atoms: C_20  and  C_21
REMARK    7  A    between atoms: C_21  and  C_22
REMARK    8  A    between atoms: C_22  and  C_23
REMARK    9  A    between atoms: N_27  and  C_28
REMARK                            x       y       z     vdW  Elec       q    Type
REMARK                         _______ _______ _______ _____ _____    ______ ____
ROOT
ATOM      1  C   UNL     1       3.886   4.588  17.602  0.00  0.00    +0.000 A 
ATOM      2  C   UNL     1       3.598   5.956  17.596  0.00  0.00    +0.000 A 
ATOM      3  C   UNL     1       2.822   6.459  18.622  0.00  0.00    +0.000 A 
ATOM      4  C   UNL     1       2.323   5.671  19.654  0.00  0.00    +0.000 A 
ATOM      5  C   UNL     1       2.565   4.303  19.677  0.00  0.00    +0.000 A 
ATOM      6  C   UNL     1       3.364   3.776  18.638  0.00  0.00    +0.000 A 
ATOM      7  C   UNL     1       1.570   6.542  20.613  0.00  0.00    +0.000 C 
ATOM      8  N   UNL     1       1.643   7.858  19.997  0.00  0.00    +0.000 N 
ATOM      9  C   UNL     1       2.389   7.843  18.824  0.00  0.00    +0.000 C 
ATOM     10  O   UNL     1       2.698   8.734  18.056  0.00  0.00    +0.000 OA
ENDROOT
BRANCH   8  11
ATOM     11  C   UNL     1       0.962   8.976  20.537  0.00  0.00    +0.000 A 
ATOM     12  C   UNL     1       0.657   9.059  21.896  0.00  0.00    +0.000 A 
ATOM     13  C   UNL     1       0.020  10.183  22.411  0.00  0.00    +0.000 A 
ATOM     14  C   UNL     1      -0.335  11.231  21.564  0.00  0.00    +0.000 A 
ATOM     15  C   UNL     1      -0.048  11.203  20.186  0.00  0.00    +0.000 A 
ATOM     16  C   UNL     1       0.609  10.052  19.710  0.00  0.00    +0.000 A 
BRANCH  15  17
ATOM     17  C   UNL     1      -0.418  12.435  19.224  0.00  0.00    +0.000 C 
ATOM     18  C   UNL     1       0.772  13.432  18.966  0.00  0.00    +0.000 C 
ATOM     19  C   UNL     1      -0.238  14.590  19.003  0.00  0.00    +0.000 C 
ATOM     20  C   UNL     1      -1.155  13.684  19.841  0.00  0.00    +0.000 C 
BRANCH  17  21
ATOM     21  C   UNL     1      -1.061  11.891  17.925  0.00  0.00    +0.000 C 
BRANCH  21  22
ATOM     22  C   UNL     1      -2.547  11.634  18.013  0.00  0.00    +0.000 C 
ATOM     23  N   UNL     1      -3.243  12.013  19.071  0.00  0.00    +0.000 NA
ATOM     24  N   UNL     1      -4.561  11.662  18.824  0.00  0.00    +0.000 N 
ATOM     25  C   UNL     1      -4.667  11.255  17.424  0.00  0.00    +0.000 C 
ATOM     26  N   UNL     1      -3.300  11.053  17.007  0.00  0.00    +0.000 N 
ATOM     27  C   UNL     1      -2.970  10.893  15.622  0.00  0.00    +0.000 C 
ATOM     28  H   UNL     1      -5.196  12.425  19.048  0.00  0.00    +0.000 HD
ENDBRANCH  21  22
ENDBRANCH  17  21
ENDBRANCH  15  17
ENDBRANCH   8  11
BRANCH   5  29
ATOM     29  C   UNL     1       2.006   3.391  20.738  0.00  0.00    +0.000 C 
ATOM     30  F   UNL     1       2.471   3.652  21.990  0.00  0.00    +0.000 F 
ATOM     31  F   UNL     1       0.650   3.465  20.821  0.00  0.00    +0.000 F 
ATOM     32  F   UNL     1       2.297   2.082  20.500  0.00  0.00    +0.000 F 
ENDBRANCH   5  29
BRANCH   1  33
ATOM     33  C   UNL     1       4.769   4.009  16.521  0.00  0.00    +0.000 C 
BRANCH  33  35
ATOM     34  C   UNL     1       7.081   4.624  16.649  0.00  0.00    +0.000 C 
ATOM     35  N   UNL     1       5.782   4.963  16.085  0.00  0.00    +0.000 NA
ATOM     36  H   UNL     1       5.846   4.952  15.069  0.00  0.00    +0.000 HD
ENDBRANCH  33  35
ENDBRANCH   1  33
TORSDOF 7
ENDMDL
MODEL 9
REMARK VINA RESULT:      -8.8      2.733      8.126
REMARK  Name = 
REMARK  9 active torsions:
REMARK  status: ('A' for Active; 'I' for Inactive)
REMARK    1  A    between atoms: C_1  and  N_2
REMARK    2  A    between atoms: N_2  and  C_3
REMARK    3  A    between atoms: C_3  and  C_4
REMARK    4  A    between atoms: C_8  and  C_9
REMARK    5  A    between atoms: N_15  and  C_16
REMARK    6  A    between atoms: C_20  and  C_21
REMARK    7  A    between atoms: C_21  and  C_22
REMARK    8  A    between atoms: C_22  and  C_23
REMARK    9  A    between atoms: N_27  and  C_28
REMARK                            x       y       z     vdW  Elec       q    Type
REMARK                         _______ _______ _______ _____ _____    ______ ____
ROOT
ATOM      1  C   UNL     1       4.041   4.842  17.475  0.00  0.00    +0.000 A 
ATOM      2  C   UNL     1       3.660   6.185  17.531  0.00  0.00    +0.000 A 
ATOM      3  C   UNL     1       2.863   6.588  18.584  0.00  0.00    +0.000 A 
ATOM      4  C   UNL     1       2.430   5.725  19.585  0.00  0.00    +0.000 A 
ATOM      5  C   UNL     1       2.766   4.377  19.547  0.00  0.00    +0.000 A 
ATOM      6  C   UNL     1       3.588   3.952  18.479  0.00  0.00    +0.000 A 
ATOM      7  C   UNL     1       1.630   6.499  20.587  0.00  0.00    +0.000 C 
ATOM      8  N   UNL     1       1.605   7.843  20.029  0.00  0.00    +0.000 N 
ATOM      9  C   UNL     1       2.337   7.930  18.850  0.00  0.00    +0.000 C 
ATOM     10  O   UNL     1       2.576   8.872  18.119  0.00  0.00    +0.000 OA
ENDROOT
BRANCH   8  11
ATOM     11  C   UNL     1       0.855   8.886  20.622  0.00  0.00    +0.000 A 
ATOM     12  C   UNL     1       0.857   9.094  22.002  0.00  0.00    +0.000 A 
ATOM     13  C   UNL     1       0.141  10.149  22.560  0.00  0.00    +0.000 A 
ATOM     14  C   UNL     1      -0.600  10.997  21.741  0.00  0.00    +0.000 A 
ATOM     15  C   UNL     1      -0.635  10.838  20.342  0.00  0.00    +0.000 A 
ATOM     16  C   UNL     1       0.113   9.765  19.819  0.00  0.00    +0.000 A 
BRANCH  15  17
ATOM     17  C   UNL     1      -1.454  11.847  19.400  0.00  0.00    +0.000 C 
ATOM     18  C   UNL     1      -3.007  11.857  19.661  0.00  0.00    +0.000 C 
ATOM     19  C   UNL     1      -3.224  12.016  18.148  0.00  0.00    +0.000 C 
ATOM     20  C   UNL     1      -1.837  11.383  17.943  0.00  0.00    +0.000 C 
BRANCH  17  21
ATOM     21  C   UNL     1      -0.808  13.252  19.474  0.00  0.00    +0.000 C 
BRANCH  21  22
ATOM     22  C   UNL     1       0.699  13.262  19.374  0.00  0.00    +0.000 C 
ATOM     23  N   UNL     1       1.310  12.941  18.246  0.00  0.00    +0.000 NA
ATOM     24  N   UNL     1       2.670  13.080  18.479  0.00  0.00    +0.000 N 
ATOM     25  C   UNL     1       2.843  13.747  19.768  0.00  0.00    +0.000 C 
ATOM     26  N   UNL     1       1.547  13.649  20.397  0.00  0.00    +0.000 N 
ATOM     27  C   UNL     1       1.242  14.410  21.572  0.00  0.00    +0.000 C 
ATOM     28  H   UNL     1       3.125  13.586  17.723  0.00  0.00    +0.000 HD
ENDBRANCH  21  22
ENDBRANCH  17  21
ENDBRANCH  15  17
ENDBRANCH   8  11
BRANCH   5  29
ATOM     29  C   UNL     1       2.283   3.384  20.571  0.00  0.00    +0.000 C 
ATOM     30  F   UNL     1       0.960   3.086  20.469  0.00  0.00    +0.000 F 
ATOM     31  F   UNL     1       2.941   2.195  20.487  0.00  0.00    +0.000 F 
ATOM     32  F   UNL     1       2.467   3.825  21.846  0.00  0.00    +0.000 F 
ENDBRANCH   5  29
BRANCH   1  33
ATOM     33  C   UNL     1       4.950   4.372  16.364  0.00  0.00    +0.000 C 
BRANCH  33  35
ATOM     34  C   UNL     1       7.157   4.788  17.197  0.00  0.00    +0.000 C 
ATOM     35  N   UNL     1       6.170   3.765  16.886  0.00  0.00    +0.000 NA
ATOM     36  H   UNL     1       5.954   3.240  17.731  0.00  0.00    +0.000 HD
ENDBRANCH  33  35
ENDBRANCH   1  33
TORSDOF 7
ENDMDL
