MODEL 1
REMARK VINA RESULT:      -8.8      0.000      0.000
REMARK  Name = 
REMARK  10 active torsions:
REMARK  status: ('A' for Active; 'I' for Inactive)
REMARK    1  A    between atoms: C_1  and  N_2
REMARK    2  A    between atoms: N_2  and  C_3
REMARK    3  A    between atoms: C_3  and  C_4
REMARK    4  A    between atoms: C_8  and  C_9
REMARK    5  A    between atoms: N_15  and  C_16
REMARK    6  A    between atoms: C_20  and  N_21
REMARK    7  A    between atoms: N_21  and  C_22
REMARK    8  A    between atoms: N_21  and  C_23
REMARK    9  A    between atoms: C_23  and  C_24
REMARK   10  A    between atoms: N_28  and  C_29
REMARK                            x       y       z     vdW  Elec       q    Type
REMARK                         _______ _______ _______ _____ _____    ______ ____
ROOT
ATOM      1  C   UNL     1       3.891   5.471  17.724  0.00  0.00    +0.000 A 
ATOM      2  C   UNL     1       3.419   6.788  17.796  0.00  0.00    +0.000 A 
ATOM      3  C   UNL     1       2.586   7.107  18.853  0.00  0.00    +0.000 A 
ATOM      4  C   UNL     1       2.209   6.207  19.835  0.00  0.00    +0.000 A 
ATOM      5  C   UNL     1       2.645   4.890  19.782  0.00  0.00    +0.000 A 
ATOM      6  C   UNL     1       3.503   4.543  18.723  0.00  0.00    +0.000 A 
ATOM      7  C   UNL     1       1.337   6.896  20.829  0.00  0.00    +0.000 C 
ATOM      8  N   UNL     1       1.266   8.256  20.313  0.00  0.00    +0.000 N 
ATOM      9  C   UNL     1       1.970   8.414  19.125  0.00  0.00    +0.000 C 
ATOM     10  O   UNL     1       2.114   9.380  18.418  0.00  0.00    +0.000 OA
ENDROOT
BRANCH   8  11
ATOM     11  C   UNL     1       0.464   9.234  20.905  0.00  0.00    +0.000 A 
ATOM     12  C   UNL     1       0.333   9.343  22.284  0.00  0.00    +0.000 A 
ATOM     13  C   UNL     1      -0.417  10.379  22.818  0.00  0.00    +0.000 A 
ATOM     14  C   UNL     1      -1.034  11.321  21.970  0.00  0.00    +0.000 A 
ATOM     15  C   UNL     1      -0.926  11.228  20.571  0.00  0.00    +0.000 A 
ATOM     16  C   UNL     1      -0.203  10.147  20.078  0.00  0.00    +0.000 A 
BRANCH  15  17
ATOM     17  N   UNL     1      -1.536  12.154  19.705  0.00  0.00    +0.000 N 
ATOM     18  C   UNL     1      -1.429  13.583  20.055  0.00  0.00    +0.000 C 
BRANCH  17  19
ATOM     19  C   UNL     1      -2.859  11.755  19.154  0.00  0.00    +0.000 C 
BRANCH  19  20
ATOM     20  C   UNL     1      -2.939  11.390  17.703  0.00  0.00    +0.000 A 
ATOM     21  N   UNL     1      -1.986  10.836  16.972  0.00  0.00    +0.000 NA
ATOM     22  N   UNL     1      -2.536  10.473  15.767  0.00  0.00    +0.000 NA
ATOM     23  C   UNL     1      -3.799  10.826  15.782  0.00  0.00    +0.000 A 
ATOM     24  N   UNL     1      -4.077  11.478  16.943  0.00  0.00    +0.000 N 
ATOM     25  C   UNL     1      -5.338  12.069  17.301  0.00  0.00    +0.000 C 
ENDBRANCH  19  20
ENDBRANCH  17  19
ENDBRANCH  15  17
ENDBRANCH   8  11
BRANCH   5  26
ATOM     26  C   UNL     1       2.209   3.842  20.773  0.00  0.00    +0.000 C 
ATOM     27  F   UNL     1       2.541   4.148  22.057  0.00  0.00    +0.000 F 
ATOM     28  F   UNL     1       0.861   3.657  20.767  0.00  0.00    +0.000 F 
ATOM     29  F   UNL     1       2.755   2.621  20.526  0.00  0.00    +0.000 F 
ENDBRANCH   5  26
BRANCH   1  30
ATOM     30  C   UNL     1       4.823   5.064  16.605  0.00  0.00    +0.000 C 
BRANCH  30  32
ATOM     31  C   UNL     1       7.159   4.583  16.886  0.00  0.00    +0.000 C 
ATOM     32  N   UNL     1       5.804   4.074  17.048  0.00  0.00    +0.000 NA
ATOM     33  H   UNL     1       5.654   3.861  18.033  0.00  0.00    +0.000 HD
ENDBRANCH  30  32
ENDBRANCH   1  30
TORSDOF 7
ENDMDL
MODEL 2
REMARK VINA RESULT:      -8.7      2.533      8.503
REMARK  Name = 
REMARK  10 active torsions:
REMARK  status: ('A' for Active; 'I' for Inactive)
REMARK    1  A    between atoms: C_1  and  N_2
REMARK    2  A    between atoms: N_2  and  C_3
REMARK    3  A    between atoms: C_3  and  C_4
REMARK    4  A    between atoms: C_8  and  C_9
REMARK    5  A    between atoms: N_15  and  C_16
REMARK    6  A    between atoms: C_20  and  N_21
REMARK    7  A    between atoms: N_21  and  C_22
REMARK    8  A    between atoms: N_21  and  C_23
REMARK    9  A    between atoms: C_23  and  C_24
REMARK   10  A    between atoms: N_28  and  C_29
REMARK                            x       y       z     vdW  Elec       q    Type
REMARK                         _______ _______ _______ _____ _____    ______ ____
ROOT
ATOM      1  C   UNL     1      -0.181  11.180  18.971  0.00  0.00    +0.000 A 
ATOM      2  C   UNL     1       0.667  10.320  18.263  0.00  0.00    +0.000 A 
ATOM      3  C   UNL     1       1.204   9.247  18.953  0.00  0.00    +0.000 A 
ATOM      4  C   UNL     1       0.940   8.978  20.285  0.00  0.00    +0.000 A 
ATOM      5  C   UNL     1       0.118   9.823  21.020  0.00  0.00    +0.000 A 
ATOM      6  C   UNL     1      -0.449  10.915  20.338  0.00  0.00    +0.000 A 
ATOM      7  C   UNL     1       1.656   7.735  20.690  0.00  0.00    +0.000 C 
ATOM      8  N   UNL     1       2.337   7.338  19.466  0.00  0.00    +0.000 N 
ATOM      9  C   UNL     1       2.118   8.227  18.420  0.00  0.00    +0.000 C 
ATOM     10  O   UNL     1       2.530   8.225  17.287  0.00  0.00    +0.000 OA
ENDROOT
BRANCH   8  11
ATOM     11  C   UNL     1       3.208   6.248  19.422  0.00  0.00    +0.000 A 
ATOM     12  C   UNL     1       2.815   4.973  19.811  0.00  0.00    +0.000 A 
ATOM     13  C   UNL     1       3.700   3.915  19.676  0.00  0.00    +0.000 A 
ATOM     14  C   UNL     1       4.985   4.127  19.138  0.00  0.00    +0.000 A 
ATOM     15  C   UNL     1       5.413   5.408  18.746  0.00  0.00    +0.000 A 
ATOM     16  C   UNL     1       4.511   6.447  18.942  0.00  0.00    +0.000 A 
BRANCH  15  17
ATOM     17  N   UNL     1       6.693   5.644  18.211  0.00  0.00    +0.000 N 
ATOM     18  C   UNL     1       7.019   7.028  17.817  0.00  0.00    +0.000 C 
BRANCH  17  19
ATOM     19  C   UNL     1       7.209   4.605  17.280  0.00  0.00    +0.000 C 
BRANCH  19  20
ATOM     20  C   UNL     1       6.932   4.768  15.816  0.00  0.00    +0.000 A 
ATOM     21  N   UNL     1       7.710   5.356  14.923  0.00  0.00    +0.000 NA
ATOM     22  N   UNL     1       7.192   5.100  13.677  0.00  0.00    +0.000 NA
ATOM     23  C   UNL     1       6.107   4.380  13.837  0.00  0.00    +0.000 A 
ATOM     24  N   UNL     1       5.859   4.217  15.164  0.00  0.00    +0.000 N 
ATOM     25  C   UNL     1       4.727   3.538  15.737  0.00  0.00    +0.000 C 
ENDBRANCH  19  20
ENDBRANCH  17  19
ENDBRANCH  15  17
ENDBRANCH   8  11
BRANCH   5  26
ATOM     26  C   UNL     1      -0.146   9.632  22.490  0.00  0.00    +0.000 C 
ATOM     27  F   UNL     1      -0.805  10.680  23.056  0.00  0.00    +0.000 F 
ATOM     28  F   UNL     1      -0.907   8.532  22.738  0.00  0.00    +0.000 F 
ATOM     29  F   UNL     1       0.992   9.470  23.216  0.00  0.00    +0.000 F 
ENDBRANCH   5  26
BRANCH   1  30
ATOM     30  C   UNL     1      -0.817  12.359  18.269  0.00  0.00    +0.000 C 
BRANCH  30  32
ATOM     31  C   UNL     1      -2.854  11.467  17.363  0.00  0.00    +0.000 C 
ATOM     32  N   UNL     1      -1.517  11.953  17.051  0.00  0.00    +0.000 NA
ATOM     33  H   UNL     1      -1.600  12.750  16.423  0.00  0.00    +0.000 HD
ENDBRANCH  30  32
ENDBRANCH   1  30
TORSDOF 7
ENDMDL
MODEL 3
REMARK VINA RESULT:      -8.6      1.657      2.305
REMARK  Name = 
REMARK  10 active torsions:
REMARK  status: ('A' for Active; 'I' for Inactive)
REMARK    1  A    between atoms: C_1  and  N_2
REMARK    2  A    between atoms: N_2  and  C_3
REMARK    3  A    between atoms: C_3  and  C_4
REMARK    4  A    between atoms: C_8  and  C_9
REMARK    5  A    between atoms: N_15  and  C_16
REMARK    6  A    between atoms: C_20  and  N_21
REMARK    7  A    between atoms: N_21  and  C_22
REMARK    8  A    between atoms: N_21  and  C_23
REMARK    9  A    between atoms: C_23  and  C_24
REMARK   10  A    between atoms: N_28  and  C_29
REMARK                            x       y       z     vdW  Elec       q    Type
REMARK                         _______ _______ _______ _____ _____    ______ ____
ROOT
ATOM      1  C   UNL     1       5.275   5.120  15.955  0.00  0.00    +0.000 A 
ATOM      2  C   UNL     1       4.839   6.400  16.320  0.00  0.00    +0.000 A 
ATOM      3  C   UNL     1       3.893   6.487  17.325  0.00  0.00    +0.000 A 
ATOM      4  C   UNL     1       3.371   5.390  17.988  0.00  0.00    +0.000 A 
ATOM      5  C   UNL     1       3.769   4.106  17.638  0.00  0.00    +0.000 A 
ATOM      6  C   UNL     1       4.739   3.992  16.625  0.00  0.00    +0.000 A 
ATOM      7  C   UNL     1       2.406   5.851  19.027  0.00  0.00    +0.000 C 
ATOM      8  N   UNL     1       2.440   7.300  18.882  0.00  0.00    +0.000 N 
ATOM      9  C   UNL     1       3.289   7.715  17.862  0.00  0.00    +0.000 C 
ATOM     10  O   UNL     1       3.548   8.820  17.456  0.00  0.00    +0.000 OA
ENDROOT
BRANCH   8  11
ATOM     11  C   UNL     1       1.604   8.139  19.620  0.00  0.00    +0.000 A 
ATOM     12  C   UNL     1       1.388   7.955  20.980  0.00  0.00    +0.000 A 
ATOM     13  C   UNL     1       0.605   8.864  21.675  0.00  0.00    +0.000 A 
ATOM     14  C   UNL     1       0.042   9.971  21.012  0.00  0.00    +0.000 A 
ATOM     15  C   UNL     1       0.235  10.176  19.634  0.00  0.00    +0.000 A 
ATOM     16  C   UNL     1       0.987   9.216  18.967  0.00  0.00    +0.000 A 
BRANCH  15  17
ATOM     17  N   UNL     1      -0.321  11.273  18.949  0.00  0.00    +0.000 N 
ATOM     18  C   UNL     1       0.450  12.530  18.943  0.00  0.00    +0.000 C 
BRANCH  17  19
ATOM     19  C   UNL     1      -1.790  11.456  19.099  0.00  0.00    +0.000 C 
BRANCH  19  20
ATOM     20  C   UNL     1      -2.633  11.432  17.861  0.00  0.00    +0.000 A 
ATOM     21  N   UNL     1      -2.236  11.130  16.637  0.00  0.00    +0.000 NA
ATOM     22  N   UNL     1      -3.352  11.019  15.845  0.00  0.00    +0.000 NA
ATOM     23  C   UNL     1      -4.399  11.270  16.594  0.00  0.00    +0.000 A 
ATOM     24  N   UNL     1      -3.993  11.614  17.845  0.00  0.00    +0.000 N 
ATOM     25  C   UNL     1      -4.845  12.017  18.932  0.00  0.00    +0.000 C 
ENDBRANCH  19  20
ENDBRANCH  17  19
ENDBRANCH  15  17
ENDBRANCH   8  11
BRANCH   5  26
ATOM     26  C   UNL     1       3.183   2.867  18.264  0.00  0.00    +0.000 C 
ATOM     27  F   UNL     1       3.674   1.715  17.733  0.00  0.00    +0.000 F 
ATOM     28  F   UNL     1       3.430   2.800  19.600  0.00  0.00    +0.000 F 
ATOM     29  F   UNL     1       1.832   2.795  18.130  0.00  0.00    +0.000 F 
ENDBRANCH   5  26
BRANCH   1  30
ATOM     30  C   UNL     1       6.323   4.959  14.878  0.00  0.00    +0.000 C 
BRANCH  30  32
ATOM     31  C   UNL     1       6.242   3.650  12.867  0.00  0.00    +0.000 C 
ATOM     32  N   UNL     1       6.325   3.607  14.320  0.00  0.00    +0.000 NA
ATOM     33  H   UNL     1       7.188   3.131  14.581  0.00  0.00    +0.000 HD
ENDBRANCH  30  32
ENDBRANCH   1  30
TORSDOF 7
ENDMDL
MODEL 4
REMARK VINA RESULT:      -8.5      0.937      1.388
REMARK  Name = 
REMARK  10 active torsions:
REMARK  status: ('A' for Active; 'I' for Inactive)
REMARK    1  A    between atoms: C_1  and  N_2
REMARK    2  A    between atoms: N_2  and  C_3
REMARK    3  A    between atoms: C_3  and  C_4
REMARK    4  A    between atoms: C_8  and  C_9
REMARK    5  A    between atoms: N_15  and  C_16
REMARK    6  A    between atoms: C_20  and  N_21
REMARK    7  A    between atoms: N_21  and  C_22
REMARK    8  A    between atoms: N_21  and  C_23
REMARK    9  A    between atoms: C_23  and  C_24
REMARK   10  A    between atoms: N_28  and  C_29
REMARK                            x       y       z     vdW  Elec       q    Type
REMARK                         _______ _______ _______ _____ _____    ______ ____
ROOT
ATOM      1  C   UNL     1       3.833   4.890  17.692  0.00  0.00    +0.000 A 
ATOM      2  C   UNL     1       3.482   6.245  17.722  0.00  0.00    +0.000 A 
ATOM      3  C   UNL     1       2.696   6.675  18.775  0.00  0.00    +0.000 A 
ATOM      4  C   UNL     1       2.254   5.848  19.794  0.00  0.00    +0.000 A 
ATOM      5  C   UNL     1       2.570   4.496  19.784  0.00  0.00    +0.000 A 
ATOM      6  C   UNL     1       3.378   4.036  18.728  0.00  0.00    +0.000 A 
ATOM      7  C   UNL     1       1.462   6.647  20.772  0.00  0.00    +0.000 C 
ATOM      8  N   UNL     1       1.505   7.989  20.207  0.00  0.00    +0.000 N 
ATOM      9  C   UNL     1       2.203   8.041  19.006  0.00  0.00    +0.000 C 
ATOM     10  O   UNL     1       2.422   8.965  18.263  0.00  0.00    +0.000 OA
ENDROOT
BRANCH   8  11
ATOM     11  C   UNL     1       0.803   9.055  20.772  0.00  0.00    +0.000 A 
ATOM     12  C   UNL     1       0.338   9.020  22.081  0.00  0.00    +0.000 A 
ATOM     13  C   UNL     1      -0.288  10.137  22.612  0.00  0.00    +0.000 A 
ATOM     14  C   UNL     1      -0.443  11.302  21.836  0.00  0.00    +0.000 A 
ATOM     15  C   UNL     1       0.008  11.361  20.505  0.00  0.00    +0.000 A 
ATOM     16  C   UNL     1       0.588  10.204  19.998  0.00  0.00    +0.000 A 
BRANCH  15  17
ATOM     17  N   UNL     1      -0.139  12.512  19.709  0.00  0.00    +0.000 N 
ATOM     18  C   UNL     1      -0.400  13.788  20.403  0.00  0.00    +0.000 C 
BRANCH  17  19
ATOM     19  C   UNL     1      -0.904  12.335  18.445  0.00  0.00    +0.000 C 
BRANCH  19  20
ATOM     20  C   UNL     1      -2.312  11.831  18.537  0.00  0.00    +0.000 A 
ATOM     21  N   UNL     1      -3.279  12.317  19.296  0.00  0.00    +0.000 NA
ATOM     22  N   UNL     1      -4.454  11.712  18.923  0.00  0.00    +0.000 NA
ATOM     23  C   UNL     1      -4.178  10.864  17.962  0.00  0.00    +0.000 A 
ATOM     24  N   UNL     1      -2.836  10.844  17.742  0.00  0.00    +0.000 N 
ATOM     25  C   UNL     1      -2.143   9.996  16.809  0.00  0.00    +0.000 C 
ENDBRANCH  19  20
ENDBRANCH  17  19
ENDBRANCH  15  17
ENDBRANCH   8  11
BRANCH   5  26
ATOM     26  C   UNL     1       2.057   3.527  20.817  0.00  0.00    +0.000 C 
ATOM     27  F   UNL     1       2.421   3.855  22.086  0.00  0.00    +0.000 F 
ATOM     28  F   UNL     1       0.698   3.454  20.824  0.00  0.00    +0.000 F 
ATOM     29  F   UNL     1       2.499   2.257  20.618  0.00  0.00    +0.000 F 
ENDBRANCH   5  26
BRANCH   1  30
ATOM     30  C   UNL     1       4.709   4.361  16.578  0.00  0.00    +0.000 C 
BRANCH  30  32
ATOM     31  C   UNL     1       6.993   4.718  17.229  0.00  0.00    +0.000 C 
ATOM     32  N   UNL     1       5.926   3.735  17.095  0.00  0.00    +0.000 NA
ATOM     33  H   UNL     1       5.740   3.332  18.011  0.00  0.00    +0.000 HD
ENDBRANCH  30  32
ENDBRANCH   1  30
TORSDOF 7
ENDMDL
MODEL 5
REMARK VINA RESULT:      -8.4      1.058      1.140
REMARK  Name = 
REMARK  10 active torsions:
REMARK  status: ('A' for Active; 'I' for Inactive)
REMARK    1  A    between atoms: C_1  and  N_2
REMARK    2  A    between atoms: N_2  and  C_3
REMARK    3  A    between atoms: C_3  and  C_4
REMARK    4  A    between atoms: C_8  and  C_9
REMARK    5  A    between atoms: N_15  and  C_16
REMARK    6  A    between atoms: C_20  and  N_21
REMARK    7  A    between atoms: N_21  and  C_22
REMARK    8  A    between atoms: N_21  and  C_23
REMARK    9  A    between atoms: C_23  and  C_24
REMARK   10  A    between atoms: N_28  and  C_29
REMARK                            x       y       z     vdW  Elec       q    Type
REMARK                         _______ _______ _______ _____ _____    ______ ____
ROOT
ATOM      1  C   UNL     1       4.419   4.506  17.671  0.00  0.00    +0.000 A 
ATOM      2  C   UNL     1       4.015   5.845  17.607  0.00  0.00    +0.000 A 
ATOM      3  C   UNL     1       3.160   6.299  18.595  0.00  0.00    +0.000 A 
ATOM      4  C   UNL     1       2.698   5.510  19.635  0.00  0.00    +0.000 A 
ATOM      5  C   UNL     1       3.065   4.173  19.716  0.00  0.00    +0.000 A 
ATOM      6  C   UNL     1       3.944   3.692  18.729  0.00  0.00    +0.000 A 
ATOM      7  C   UNL     1       1.826   6.327  20.526  0.00  0.00    +0.000 C 
ATOM      8  N   UNL     1       1.846   7.637  19.890  0.00  0.00    +0.000 N 
ATOM      9  C   UNL     1       2.603   7.653  18.724  0.00  0.00    +0.000 C 
ATOM     10  O   UNL     1       2.825   8.544  17.943  0.00  0.00    +0.000 OA
ENDROOT
BRANCH   8  11
ATOM     11  C   UNL     1       1.075   8.702  20.359  0.00  0.00    +0.000 A 
ATOM     12  C   UNL     1       1.074   9.079  21.697  0.00  0.00    +0.000 A 
ATOM     13  C   UNL     1       0.346  10.190  22.092  0.00  0.00    +0.000 A 
ATOM     14  C   UNL     1      -0.379  10.939  21.145  0.00  0.00    +0.000 A 
ATOM     15  C   UNL     1      -0.404  10.575  19.786  0.00  0.00    +0.000 A 
ATOM     16  C   UNL     1       0.302   9.427  19.442  0.00  0.00    +0.000 A 
BRANCH  15  17
ATOM     17  N   UNL     1      -1.124  11.305  18.823  0.00  0.00    +0.000 N 
ATOM     18  C   UNL     1      -1.082  12.777  18.917  0.00  0.00    +0.000 C 
BRANCH  17  19
ATOM     19  C   UNL     1      -2.454  10.753  18.449  0.00  0.00    +0.000 C 
BRANCH  19  20
ATOM     20  C   UNL     1      -2.778  10.619  16.992  0.00  0.00    +0.000 A 
ATOM     21  N   UNL     1      -2.059   9.995  16.075  0.00  0.00    +0.000 NA
ATOM     22  N   UNL     1      -2.809   9.922  14.927  0.00  0.00    +0.000 NA
ATOM     23  C   UNL     1      -3.955  10.515  15.162  0.00  0.00    +0.000 A 
ATOM     24  N   UNL     1      -3.950  11.039  16.416  0.00  0.00    +0.000 N 
ATOM     25  C   UNL     1      -5.003  11.814  17.016  0.00  0.00    +0.000 C 
ENDBRANCH  19  20
ENDBRANCH  17  19
ENDBRANCH  15  17
ENDBRANCH   8  11
BRANCH   5  26
ATOM     26  C   UNL     1       2.537   3.242  20.775  0.00  0.00    +0.000 C 
ATOM     27  F   UNL     1       2.476   3.812  22.009  0.00  0.00    +0.000 F 
ATOM     28  F   UNL     1       1.278   2.809  20.498  0.00  0.00    +0.000 F 
ATOM     29  F   UNL     1       3.294   2.121  20.919  0.00  0.00    +0.000 F 
ENDBRANCH   5  26
BRANCH   1  30
ATOM     30  C   UNL     1       5.371   3.955  16.633  0.00  0.00    +0.000 C 
BRANCH  30  32
ATOM     31  C   UNL     1       6.253   4.180  14.411  0.00  0.00    +0.000 C 
ATOM     32  N   UNL     1       5.276   4.682  15.368  0.00  0.00    +0.000 NA
ATOM     33  H   UNL     1       4.345   4.561  14.974  0.00  0.00    +0.000 HD
ENDBRANCH  30  32
ENDBRANCH   1  30
TORSDOF 7
ENDMDL
MODEL 6
REMARK VINA RESULT:      -8.4      0.989      1.244
REMARK  Name = 
REMARK  10 active torsions:
REMARK  status: ('A' for Active; 'I' for Inactive)
REMARK    1  A    between atoms: C_1  and  N_2
REMARK    2  A    between atoms: N_2  and  C_3
REMARK    3  A    between atoms: C_3  and  C_4
REMARK    4  A    between atoms: C_8  and  C_9
REMARK    5  A    between atoms: N_15  and  C_16
REMARK    6  A    between atoms: C_20  and  N_21
REMARK    7  A    between atoms: N_21  and  C_22
REMARK    8  A    between atoms: N_21  and  C_23
REMARK    9  A    between atoms: C_23  and  C_24
REMARK   10  A    between atoms: N_28  and  C_29
REMARK                            x       y       z     vdW  Elec       q    Type
REMARK                         _______ _______ _______ _____ _____    ______ ____
ROOT
ATOM      1  C   UNL     1       3.921   4.611  17.689  0.00  0.00    +0.000 A 
ATOM      2  C   UNL     1       3.597   5.973  17.678  0.00  0.00    +0.000 A 
ATOM      3  C   UNL     1       2.815   6.449  18.715  0.00  0.00    +0.000 A 
ATOM      4  C   UNL     1       2.353   5.661  19.755  0.00  0.00    +0.000 A 
ATOM      5  C   UNL     1       2.641   4.303  19.785  0.00  0.00    +0.000 A 
ATOM      6  C   UNL     1       3.444   3.797  18.747  0.00  0.00    +0.000 A 
ATOM      7  C   UNL     1       1.572   6.504  20.705  0.00  0.00    +0.000 C 
ATOM      8  N   UNL     1       1.645   7.827  20.102  0.00  0.00    +0.000 N 
ATOM      9  C   UNL     1       2.349   7.831  18.903  0.00  0.00    +0.000 C 
ATOM     10  O   UNL     1       2.590   8.728  18.135  0.00  0.00    +0.000 OA
ENDROOT
BRANCH   8  11
ATOM     11  C   UNL     1       0.962   8.923  20.633  0.00  0.00    +0.000 A 
ATOM     12  C   UNL     1       0.599   8.987  21.973  0.00  0.00    +0.000 A 
ATOM     13  C   UNL     1      -0.012  10.132  22.460  0.00  0.00    +0.000 A 
ATOM     14  C   UNL     1      -0.254  11.227  21.607  0.00  0.00    +0.000 A 
ATOM     15  C   UNL     1       0.093  11.185  20.245  0.00  0.00    +0.000 A 
ATOM     16  C   UNL     1       0.661  10.001  19.789  0.00  0.00    +0.000 A 
BRANCH  15  17
ATOM     17  N   UNL     1      -0.141  12.265  19.374  0.00  0.00    +0.000 N 
ATOM     18  C   UNL     1       0.761  13.427  19.475  0.00  0.00    +0.000 C 
BRANCH  17  19
ATOM     19  C   UNL     1      -1.569  12.616  19.144  0.00  0.00    +0.000 C 
BRANCH  19  20
ATOM     20  C   UNL     1      -2.394  11.696  18.296  0.00  0.00    +0.000 A 
ATOM     21  N   UNL     1      -1.953  10.874  17.359  0.00  0.00    +0.000 NA
ATOM     22  N   UNL     1      -2.997  10.065  16.981  0.00  0.00    +0.000 NA
ATOM     23  C   UNL     1      -4.049  10.420  17.679  0.00  0.00    +0.000 A 
ATOM     24  N   UNL     1      -3.740  11.491  18.457  0.00  0.00    +0.000 N 
ATOM     25  C   UNL     1      -4.648  12.204  19.317  0.00  0.00    +0.000 C 
ENDBRANCH  19  20
ENDBRANCH  17  19
ENDBRANCH  15  17
ENDBRANCH   8  11
BRANCH   5  26
ATOM     26  C   UNL     1       2.104   3.375  20.843  0.00  0.00    +0.000 C 
ATOM     27  F   UNL     1       2.558   2.099  20.718  0.00  0.00    +0.000 F 
ATOM     28  F   UNL     1       2.446   3.774  22.098  0.00  0.00    +0.000 F 
ATOM     29  F   UNL     1       0.746   3.292  20.835  0.00  0.00    +0.000 F 
ENDBRANCH   5  26
BRANCH   1  30
ATOM     30  C   UNL     1       4.791   4.033  16.595  0.00  0.00    +0.000 C 
BRANCH  30  32
ATOM     31  C   UNL     1       7.051   4.576  17.199  0.00  0.00    +0.000 C 
ATOM     32  N   UNL     1       5.942   4.888  16.307  0.00  0.00    +0.000 NA
ATOM     33  H   UNL     1       6.247   4.739  15.347  0.00  0.00    +0.000 HD
ENDBRANCH  30  32
ENDBRANCH   1  30
TORSDOF 7
ENDMDL
MODEL 7
REMARK VINA RESULT:      -8.4      2.495      8.387
REMARK  Name = 
REMARK  10 active torsions:
REMARK  status: ('A' for Active; 'I' for Inactive)
REMARK    1  A    between atoms: C_1  and  N_2
REMARK    2  A    between atoms: N_2  and  C_3
REMARK    3  A    between atoms: C_3  and  C_4
REMARK    4  A    between atoms: C_8  and  C_9
REMARK    5  A    between atoms: N_15  and  C_16
REMARK    6  A    between atoms: C_20  and  N_21
REMARK    7  A    between atoms: N_21  and  C_22
REMARK    8  A    between atoms: N_21  and  C_23
REMARK    9  A    between atoms: C_23  and  C_24
REMARK   10  A    between atoms: N_28  and  C_29
REMARK                            x       y       z     vdW  Elec       q    Type
REMARK                         _______ _______ _______ _____ _____    ______ ____
ROOT
ATOM      1  C   UNL     1       0.157  11.267  19.089  0.00  0.00    +0.000 A 
ATOM      2  C   UNL     1       0.953  10.377  18.357  0.00  0.00    +0.000 A 
ATOM      3  C   UNL     1       1.381   9.230  19.002  0.00  0.00    +0.000 A 
ATOM      4  C   UNL     1       1.057   8.916  20.310  0.00  0.00    +0.000 A 
ATOM      5  C   UNL     1       0.285   9.786  21.068  0.00  0.00    +0.000 A 
ATOM      6  C   UNL     1      -0.172  10.954  20.432  0.00  0.00    +0.000 A 
ATOM      7  C   UNL     1       1.658   7.599  20.666  0.00  0.00    +0.000 C 
ATOM      8  N   UNL     1       2.341   7.211  19.440  0.00  0.00    +0.000 N 
ATOM      9  C   UNL     1       2.225   8.167  18.438  0.00  0.00    +0.000 C 
ATOM     10  O   UNL     1       2.669   8.190  17.317  0.00  0.00    +0.000 OA
ENDROOT
BRANCH   8  11
ATOM     11  C   UNL     1       3.123   6.057  19.359  0.00  0.00    +0.000 A 
ATOM     12  C   UNL     1       2.567   4.784  19.413  0.00  0.00    +0.000 A 
ATOM     13  C   UNL     1       3.383   3.676  19.254  0.00  0.00    +0.000 A 
ATOM     14  C   UNL     1       4.764   3.836  19.028  0.00  0.00    +0.000 A 
ATOM     15  C   UNL     1       5.356   5.112  18.979  0.00  0.00    +0.000 A 
ATOM     16  C   UNL     1       4.507   6.193  19.190  0.00  0.00    +0.000 A 
BRANCH  15  17
ATOM     17  N   UNL     1       6.733   5.296  18.758  0.00  0.00    +0.000 N 
ATOM     18  C   UNL     1       7.567   5.638  19.926  0.00  0.00    +0.000 C 
BRANCH  17  19
ATOM     19  C   UNL     1       7.099   6.019  17.511  0.00  0.00    +0.000 C 
BRANCH  19  20
ATOM     20  C   UNL     1       6.810   5.355  16.199  0.00  0.00    +0.000 A 
ATOM     21  N   UNL     1       7.424   4.298  15.693  0.00  0.00    +0.000 NA
ATOM     22  N   UNL     1       6.717   3.887  14.590  0.00  0.00    +0.000 NA
ATOM     23  C   UNL     1       5.703   4.705  14.437  0.00  0.00    +0.000 A 
ATOM     24  N   UNL     1       5.767   5.689  15.373  0.00  0.00    +0.000 N 
ATOM     25  C   UNL     1       4.867   6.806  15.491  0.00  0.00    +0.000 C 
ENDBRANCH  19  20
ENDBRANCH  17  19
ENDBRANCH  15  17
ENDBRANCH   8  11
BRANCH   5  26
ATOM     26  C   UNL     1      -0.038   9.542  22.519  0.00  0.00    +0.000 C 
ATOM     27  F   UNL     1      -0.642  10.603  23.120  0.00  0.00    +0.000 F 
ATOM     28  F   UNL     1      -0.877   8.485  22.690  0.00  0.00    +0.000 F 
ATOM     29  F   UNL     1       1.065   9.268  23.267  0.00  0.00    +0.000 F 
ENDBRANCH   5  26
BRANCH   1  30
ATOM     30  C   UNL     1      -0.361  12.528  18.436  0.00  0.00    +0.000 C 
BRANCH  30  32
ATOM     31  C   UNL     1      -2.434  11.653  17.597  0.00  0.00    +0.000 C 
ATOM     32  N   UNL     1      -1.820  12.615  18.502  0.00  0.00    +0.000 NA
ATOM     33  H   UNL     1      -2.131  12.412  19.450  0.00  0.00    +0.000 HD
ENDBRANCH  30  32
ENDBRANCH   1  30
TORSDOF 7
ENDMDL
MODEL 8
REMARK VINA RESULT:      -8.3      3.046      8.684
REMARK  Name = 
REMARK  10 active torsions:
REMARK  status: ('A' for Active; 'I' for Inactive)
REMARK    1  A    between atoms: C_1  and  N_2
REMARK    2  A    between atoms: N_2  and  C_3
REMARK    3  A    between atoms: C_3  and  C_4
REMARK    4  A    between atoms: C_8  and  C_9
REMARK    5  A    between atoms: N_15  and  C_16
REMARK    6  A    between atoms: C_20  and  N_21
REMARK    7  A    between atoms: N_21  and  C_22
REMARK    8  A    between atoms: N_21  and  C_23
REMARK    9  A    between atoms: C_23  and  C_24
REMARK   10  A    between atoms: N_28  and  C_29
REMARK                            x       y       z     vdW  Elec       q    Type
REMARK                         _______ _______ _______ _____ _____    ______ ____
ROOT
ATOM      1  C   UNL     1      -0.006  11.534  19.228  0.00  0.00    +0.000 A 
ATOM      2  C   UNL     1       0.754  10.635  18.469  0.00  0.00    +0.000 A 
ATOM      3  C   UNL     1       1.156   9.464  19.086  0.00  0.00    +0.000 A 
ATOM      4  C   UNL     1       0.840   9.134  20.393  0.00  0.00    +0.000 A 
ATOM      5  C   UNL     1       0.104  10.012  21.177  0.00  0.00    +0.000 A 
ATOM      6  C   UNL     1      -0.327  11.205  20.569  0.00  0.00    +0.000 A 
ATOM      7  C   UNL     1       1.406   7.793  20.716  0.00  0.00    +0.000 C 
ATOM      8  N   UNL     1       2.061   7.408  19.473  0.00  0.00    +0.000 N 
ATOM      9  C   UNL     1       1.961   8.387  18.491  0.00  0.00    +0.000 C 
ATOM     10  O   UNL     1       2.391   8.418  17.365  0.00  0.00    +0.000 OA
ENDROOT
BRANCH   8  11
ATOM     11  C   UNL     1       2.807   6.234  19.361  0.00  0.00    +0.000 A 
ATOM     12  C   UNL     1       2.681   5.190  20.269  0.00  0.00    +0.000 A 
ATOM     13  C   UNL     1       3.392   4.018  20.065  0.00  0.00    +0.000 A 
ATOM     14  C   UNL     1       4.228   3.880  18.940  0.00  0.00    +0.000 A 
ATOM     15  C   UNL     1       4.383   4.924  18.010  0.00  0.00    +0.000 A 
ATOM     16  C   UNL     1       3.688   6.098  18.279  0.00  0.00    +0.000 A 
BRANCH  15  17
ATOM     17  N   UNL     1       5.215   4.811  16.881  0.00  0.00    +0.000 N 
ATOM     18  C   UNL     1       4.776   3.907  15.802  0.00  0.00    +0.000 C 
BRANCH  17  19
ATOM     19  C   UNL     1       6.678   4.775  17.153  0.00  0.00    +0.000 C 
BRANCH  19  20
ATOM     20  C   UNL     1       7.379   6.072  17.417  0.00  0.00    +0.000 A 
ATOM     21  N   UNL     1       7.525   7.080  16.573  0.00  0.00    +0.000 NA
ATOM     22  N   UNL     1       8.031   8.148  17.273  0.00  0.00    +0.000 NA
ATOM     23  C   UNL     1       8.198   7.766  18.517  0.00  0.00    +0.000 A 
ATOM     24  N   UNL     1       7.880   6.449  18.637  0.00  0.00    +0.000 N 
ATOM     25  C   UNL     1       7.993   5.656  19.832  0.00  0.00    +0.000 C 
ENDBRANCH  19  20
ENDBRANCH  17  19
ENDBRANCH  15  17
ENDBRANCH   8  11
BRANCH   5  26
ATOM     26  C   UNL     1      -0.207   9.750  22.628  0.00  0.00    +0.000 C 
ATOM     27  F   UNL     1       0.902   9.515  23.379  0.00  0.00    +0.000 F 
ATOM     28  F   UNL     1      -0.844  10.800  23.215  0.00  0.00    +0.000 F 
ATOM     29  F   UNL     1      -1.017   8.673  22.810  0.00  0.00    +0.000 F 
ENDBRANCH   5  26
BRANCH   1  30
ATOM     30  C   UNL     1      -0.495  12.822  18.605  0.00  0.00    +0.000 C 
BRANCH  30  32
ATOM     31  C   UNL     1      -0.470  14.847  19.895  0.00  0.00    +0.000 C 
ATOM     32  N   UNL     1       0.307  13.969  19.030  0.00  0.00    +0.000 NA
ATOM     33  H   UNL     1       1.121  13.644  19.547  0.00  0.00    +0.000 HD
ENDBRANCH  30  32
ENDBRANCH   1  30
TORSDOF 7
ENDMDL
MODEL 9
REMARK VINA RESULT:      -8.3      0.611      1.002
REMARK  Name = 
REMARK  10 active torsions:
REMARK  status: ('A' for Active; 'I' for Inactive)
REMARK    1  A    between atoms: C_1  and  N_2
REMARK    2  A    between atoms: N_2  and  C_3
REMARK    3  A    between atoms: C_3  and  C_4
REMARK    4  A    between atoms: C_8  and  C_9
REMARK    5  A    between atoms: N_15  and  C_16
REMARK    6  A    between atoms: C_20  and  N_21
REMARK    7  A    between atoms: N_21  and  C_22
REMARK    8  A    between atoms: N_21  and  C_23
REMARK    9  A    between atoms: C_23  and  C_24
REMARK   10  A    between atoms: N_28  and  C_29
REMARK                            x       y       z     vdW  Elec       q    Type
REMARK                         _______ _______ _______ _____ _____    ______ ____
ROOT
ATOM      1  C   UNL     1       3.885   5.561  17.714  0.00  0.00    +0.000 A 
ATOM      2  C   UNL     1       3.414   6.874  17.829  0.00  0.00    +0.000 A 
ATOM      3  C   UNL     1       2.582   7.159  18.897  0.00  0.00    +0.000 A 
ATOM      4  C   UNL     1       2.206   6.229  19.850  0.00  0.00    +0.000 A 
ATOM      5  C   UNL     1       2.641   4.913  19.754  0.00  0.00    +0.000 A 
ATOM      6  C   UNL     1       3.498   4.601  18.683  0.00  0.00    +0.000 A 
ATOM      7  C   UNL     1       1.335   6.885  20.866  0.00  0.00    +0.000 C 
ATOM      8  N   UNL     1       1.264   8.261  20.394  0.00  0.00    +0.000 N 
ATOM      9  C   UNL     1       1.966   8.457  19.211  0.00  0.00    +0.000 C 
ATOM     10  O   UNL     1       2.110   9.446  18.535  0.00  0.00    +0.000 OA
ENDROOT
BRANCH   8  11
ATOM     11  C   UNL     1       0.463   9.219  21.018  0.00  0.00    +0.000 A 
ATOM     12  C   UNL     1       0.288   9.250  22.397  0.00  0.00    +0.000 A 
ATOM     13  C   UNL     1      -0.458  10.269  22.967  0.00  0.00    +0.000 A 
ATOM     14  C   UNL     1      -1.026  11.273  22.159  0.00  0.00    +0.000 A 
ATOM     15  C   UNL     1      -0.874  11.261  20.760  0.00  0.00    +0.000 A 
ATOM     16  C   UNL     1      -0.157  10.196  20.227  0.00  0.00    +0.000 A 
BRANCH  15  17
ATOM     17  N   UNL     1      -1.435  12.251  19.933  0.00  0.00    +0.000 N 
ATOM     18  C   UNL     1      -0.818  13.591  19.964  0.00  0.00    +0.000 C 
BRANCH  17  19
ATOM     19  C   UNL     1      -2.920  12.262  19.848  0.00  0.00    +0.000 C 
BRANCH  19  20
ATOM     20  C   UNL     1      -3.554  11.921  18.534  0.00  0.00    +0.000 A 
ATOM     21  N   UNL     1      -2.970  11.342  17.499  0.00  0.00    +0.000 NA
ATOM     22  N   UNL     1      -3.947  11.018  16.589  0.00  0.00    +0.000 NA
ATOM     23  C   UNL     1      -5.096  11.418  17.078  0.00  0.00    +0.000 A 
ATOM     24  N   UNL     1      -4.890  12.063  18.257  0.00  0.00    +0.000 N 
ATOM     25  C   UNL     1      -5.899  12.697  19.064  0.00  0.00    +0.000 C 
ENDBRANCH  19  20
ENDBRANCH  17  19
ENDBRANCH  15  17
ENDBRANCH   8  11
BRANCH   5  26
ATOM     26  C   UNL     1       2.206   3.835  20.711  0.00  0.00    +0.000 C 
ATOM     27  F   UNL     1       0.869   3.587  20.668  0.00  0.00    +0.000 F 
ATOM     28  F   UNL     1       2.818   2.646  20.459  0.00  0.00    +0.000 F 
ATOM     29  F   UNL     1       2.489   4.133  22.008  0.00  0.00    +0.000 F 
ENDBRANCH   5  26
BRANCH   1  30
ATOM     30  C   UNL     1       4.816   5.190  16.582  0.00  0.00    +0.000 C 
BRANCH  30  32
ATOM     31  C   UNL     1       7.104   4.609  17.026  0.00  0.00    +0.000 C 
ATOM     32  N   UNL     1       5.735   4.117  16.962  0.00  0.00    +0.000 NA
ATOM     33  H   UNL     1       5.477   3.756  17.879  0.00  0.00    +0.000 HD
ENDBRANCH  30  32
ENDBRANCH   1  30
TORSDOF 7
ENDMDL
