MODEL 1
REMARK VINA RESULT:      -8.6      0.000      0.000
REMARK  Name = 
REMARK  7 active torsions:
REMARK  status: ('A' for Active; 'I' for Inactive)
REMARK    1  A    between atoms: C_2  and  C_3
REMARK    2  A    between atoms: C_6  and  S_7
REMARK    3  A    between atoms: S_7  and  C_10
REMARK    4  A    between atoms: N_15  and  C_16
REMARK    5  A    between atoms: N_15  and  C_23
REMARK    6  A    between atoms: C_16  and  C_17
REMARK    7  A    between atoms: C_23  and  C_24
REMARK                            x       y       z     vdW  Elec       q    Type
REMARK                         _______ _______ _______ _____ _____    ______ ____
ROOT
ATOM      1  O   UNL     1       1.710   9.342  17.164  0.00  0.00    +0.000 OA
ATOM      2  C   UNL     1       1.596   8.932  18.326  0.00  0.00    +0.000 C 
ATOM      3  N   UNL     1       0.805   9.662  19.259  0.00  0.00    +0.000 N 
ENDROOT
BRANCH   2   4
ATOM      4  C   UNL     1       2.343   7.651  18.596  0.00  0.00    +0.000 A 
ATOM      5  C   UNL     1       3.412   7.284  17.748  0.00  0.00    +0.000 A 
ATOM      6  C   UNL     1       4.112   6.067  17.913  0.00  0.00    +0.000 A 
ATOM      7  C   UNL     1       3.747   5.209  18.947  0.00  0.00    +0.000 A 
ATOM      8  C   UNL     1       2.686   5.534  19.775  0.00  0.00    +0.000 A 
ATOM      9  C   UNL     1       2.001   6.729  19.571  0.00  0.00    +0.000 A 
BRANCH   7  10
ATOM     10  S   UNL     1       4.554   3.648  19.210  0.00  0.00    +0.000 S 
ATOM     11  O   UNL     1       5.980   3.911  19.150  0.00  0.00    +0.000 OA
ATOM     12  O   UNL     1       3.980   3.064  20.414  0.00  0.00    +0.000 OA
BRANCH  10  13
ATOM     13  C   UNL     1       4.057   2.672  17.779  0.00  0.00    +0.000 C 
ATOM     14  F   UNL     1       3.766   1.377  18.098  0.00  0.00    +0.000 F 
ATOM     15  F   UNL     1       2.942   3.163  17.158  0.00  0.00    +0.000 F 
ENDBRANCH  10  13
ENDBRANCH   7  10
ENDBRANCH   2   4
BRANCH   3  16
ATOM     16  C   UNL     1       0.301  10.956  18.749  0.00  0.00    +0.000 C 
BRANCH  16  17
ATOM     17  C   UNL     1      -1.172  10.985  18.403  0.00  0.00    +0.000 A 
ATOM     18  C   UNL     1      -1.680  10.068  17.469  0.00  0.00    +0.000 A 
ATOM     19  C   UNL     1      -3.039  10.051  17.146  0.00  0.00    +0.000 A 
ATOM     20  C   UNL     1      -3.906  10.961  17.744  0.00  0.00    +0.000 A 
ATOM     21  C   UNL     1      -3.426  11.845  18.707  0.00  0.00    +0.000 A 
ATOM     22  C   UNL     1      -2.076  11.824  19.068  0.00  0.00    +0.000 A 
ENDBRANCH  16  17
ENDBRANCH   3  16
BRANCH   3  23
ATOM     23  C   UNL     1       0.825   9.554  20.746  0.00  0.00    +0.000 C 
BRANCH  23  24
ATOM     24  C   UNL     1       0.372  10.782  21.557  0.00  0.00    +0.000 A 
ATOM     25  N   UNL     1      -0.638  10.675  22.366  0.00  0.00    +0.000 NA
ATOM     26  C   UNL     1      -1.290  11.863  22.753  0.00  0.00    +0.000 A 
ATOM     27  C   UNL     1      -2.556  11.766  23.336  0.00  0.00    +0.000 A 
ATOM     28  C   UNL     1      -3.370  12.895  23.463  0.00  0.00    +0.000 A 
ATOM     29  C   UNL     1      -2.915  14.141  23.026  0.00  0.00    +0.000 A 
ATOM     30  C   UNL     1      -1.633  14.266  22.495  0.00  0.00    +0.000 A 
ATOM     31  C   UNL     1      -0.833  13.125  22.363  0.00  0.00    +0.000 A 
ATOM     32  C   UNL     1       0.473  13.187  21.689  0.00  0.00    +0.000 A 
ATOM     33  O   UNL     1       1.033  14.246  21.440  0.00  0.00    +0.000 OA
ATOM     34  N   UNL     1       0.981  11.973  21.298  0.00  0.00    +0.000 N 
ATOM     35  H   UNL     1       1.830  12.006  20.758  0.00  0.00    +0.000 HD
ENDBRANCH  23  24
ENDBRANCH   3  23
TORSDOF 7
ENDMDL
MODEL 2
REMARK VINA RESULT:      -8.4      4.973      9.358
REMARK  Name = 
REMARK  7 active torsions:
REMARK  status: ('A' for Active; 'I' for Inactive)
REMARK    1  A    between atoms: C_2  and  C_3
REMARK    2  A    between atoms: C_6  and  S_7
REMARK    3  A    between atoms: S_7  and  C_10
REMARK    4  A    between atoms: N_15  and  C_16
REMARK    5  A    between atoms: N_15  and  C_23
REMARK    6  A    between atoms: C_16  and  C_17
REMARK    7  A    between atoms: C_23  and  C_24
REMARK                            x       y       z     vdW  Elec       q    Type
REMARK                         _______ _______ _______ _____ _____    ______ ____
ROOT
ATOM      1  O   UNL     1       6.468   7.160  17.130  0.00  0.00    +0.000 OA
ATOM      2  C   UNL     1       5.563   6.321  17.228  0.00  0.00    +0.000 C 
ATOM      3  N   UNL     1       5.751   5.013  16.697  0.00  0.00    +0.000 N 
ENDROOT
BRANCH   2   4
ATOM      4  C   UNL     1       4.334   6.831  17.937  0.00  0.00    +0.000 A 
ATOM      5  C   UNL     1       3.661   7.961  17.425  0.00  0.00    +0.000 A 
ATOM      6  C   UNL     1       2.540   8.523  18.078  0.00  0.00    +0.000 A 
ATOM      7  C   UNL     1       2.076   7.938  19.253  0.00  0.00    +0.000 A 
ATOM      8  C   UNL     1       2.734   6.845  19.789  0.00  0.00    +0.000 A 
ATOM      9  C   UNL     1       3.851   6.331  19.135  0.00  0.00    +0.000 A 
BRANCH   7  10
ATOM     10  S   UNL     1       0.691   8.593  20.152  0.00  0.00    +0.000 S 
ATOM     11  O   UNL     1      -0.080   9.375  19.202  0.00  0.00    +0.000 OA
ATOM     12  O   UNL     1       0.062   7.478  20.846  0.00  0.00    +0.000 OA
BRANCH  10  13
ATOM     13  C   UNL     1       1.456   9.690  21.360  0.00  0.00    +0.000 C 
ATOM     14  F   UNL     1       0.726  10.822  21.581  0.00  0.00    +0.000 F 
ATOM     15  F   UNL     1       1.621   9.106  22.585  0.00  0.00    +0.000 F 
ENDBRANCH  10  13
ENDBRANCH   7  10
ENDBRANCH   2   4
BRANCH   3  16
ATOM     16  C   UNL     1       7.008   4.840  15.934  0.00  0.00    +0.000 C 
BRANCH  16  17
ATOM     17  C   UNL     1       6.835   4.584  14.453  0.00  0.00    +0.000 A 
ATOM     18  C   UNL     1       7.659   5.256  13.536  0.00  0.00    +0.000 A 
ATOM     19  C   UNL     1       7.542   5.024  12.164  0.00  0.00    +0.000 A 
ATOM     20  C   UNL     1       6.589   4.127  11.689  0.00  0.00    +0.000 A 
ATOM     21  C   UNL     1       5.798   3.418  12.589  0.00  0.00    +0.000 A 
ATOM     22  C   UNL     1       5.953   3.612  13.964  0.00  0.00    +0.000 A 
ENDBRANCH  16  17
ENDBRANCH   3  16
BRANCH   3  23
ATOM     23  C   UNL     1       4.702   3.998  16.390  0.00  0.00    +0.000 C 
BRANCH  23  24
ATOM     24  C   UNL     1       4.061   3.254  17.575  0.00  0.00    +0.000 A 
ATOM     25  N   UNL     1       2.769   3.257  17.707  0.00  0.00    +0.000 NA
ATOM     26  C   UNL     1       2.245   2.959  18.981  0.00  0.00    +0.000 A 
ATOM     27  C   UNL     1       0.909   3.278  19.240  0.00  0.00    +0.000 A 
ATOM     28  C   UNL     1       0.421   3.286  20.550  0.00  0.00    +0.000 A 
ATOM     29  C   UNL     1       1.261   2.955  21.615  0.00  0.00    +0.000 A 
ATOM     30  C   UNL     1       2.580   2.580  21.368  0.00  0.00    +0.000 A 
ATOM     31  C   UNL     1       3.059   2.586  20.054  0.00  0.00    +0.000 A 
ATOM     32  C   UNL     1       4.477   2.325  19.761  0.00  0.00    +0.000 A 
ATOM     33  O   UNL     1       5.242   1.851  20.591  0.00  0.00    +0.000 OA
ATOM     34  N   UNL     1       4.892   2.718  18.513  0.00  0.00    +0.000 N 
ATOM     35  H   UNL     1       5.878   2.626  18.329  0.00  0.00    +0.000 HD
ENDBRANCH  23  24
ENDBRANCH   3  23
TORSDOF 7
ENDMDL
MODEL 3
REMARK VINA RESULT:      -8.4      0.813      1.331
REMARK  Name = 
REMARK  7 active torsions:
REMARK  status: ('A' for Active; 'I' for Inactive)
REMARK    1  A    between atoms: C_2  and  C_3
REMARK    2  A    between atoms: C_6  and  S_7
REMARK    3  A    between atoms: S_7  and  C_10
REMARK    4  A    between atoms: N_15  and  C_16
REMARK    5  A    between atoms: N_15  and  C_23
REMARK    6  A    between atoms: C_16  and  C_17
REMARK    7  A    between atoms: C_23  and  C_24
REMARK                            x       y       z     vdW  Elec       q    Type
REMARK                         _______ _______ _______ _____ _____    ______ ____
ROOT
ATOM      1  O   UNL     1       1.639   9.574  17.073  0.00  0.00    +0.000 OA
ATOM      2  C   UNL     1       1.565   9.107  18.217  0.00  0.00    +0.000 C 
ATOM      3  N   UNL     1       0.725   9.732  19.182  0.00  0.00    +0.000 N 
ENDROOT
BRANCH   2   4
ATOM      4  C   UNL     1       2.413   7.879  18.430  0.00  0.00    +0.000 A 
ATOM      5  C   UNL     1       3.417   7.563  17.489  0.00  0.00    +0.000 A 
ATOM      6  C   UNL     1       4.204   6.394  17.601  0.00  0.00    +0.000 A 
ATOM      7  C   UNL     1       3.994   5.535  18.676  0.00  0.00    +0.000 A 
ATOM      8  C   UNL     1       2.998   5.810  19.598  0.00  0.00    +0.000 A 
ATOM      9  C   UNL     1       2.223   6.958  19.445  0.00  0.00    +0.000 A 
BRANCH   7  10
ATOM     10  S   UNL     1       4.918   4.031  18.881  0.00  0.00    +0.000 S 
ATOM     11  O   UNL     1       4.989   3.415  17.568  0.00  0.00    +0.000 OA
ATOM     12  O   UNL     1       6.146   4.373  19.584  0.00  0.00    +0.000 OA
BRANCH  10  13
ATOM     13  C   UNL     1       3.870   3.039  19.960  0.00  0.00    +0.000 C 
ATOM     14  F   UNL     1       2.975   2.274  19.269  0.00  0.00    +0.000 F 
ATOM     15  F   UNL     1       4.578   2.170  20.742  0.00  0.00    +0.000 F 
ENDBRANCH  10  13
ENDBRANCH   7  10
ENDBRANCH   2   4
BRANCH   3  16
ATOM     16  C   UNL     1       0.115  11.003  18.729  0.00  0.00    +0.000 C 
BRANCH  16  17
ATOM     17  C   UNL     1      -1.368  10.941  18.440  0.00  0.00    +0.000 A 
ATOM     18  C   UNL     1      -2.234  11.841  19.081  0.00  0.00    +0.000 A 
ATOM     19  C   UNL     1      -3.606  11.828  18.818  0.00  0.00    +0.000 A 
ATOM     20  C   UNL     1      -4.132  10.903  17.919  0.00  0.00    +0.000 A 
ATOM     21  C   UNL     1      -3.280  10.036  17.240  0.00  0.00    +0.000 A 
ATOM     22  C   UNL     1      -1.902  10.088  17.465  0.00  0.00    +0.000 A 
ENDBRANCH  16  17
ENDBRANCH   3  16
BRANCH   3  23
ATOM     23  C   UNL     1       0.762   9.564  20.664  0.00  0.00    +0.000 C 
BRANCH  23  24
ATOM     24  C   UNL     1       0.335  10.764  21.529  0.00  0.00    +0.000 A 
ATOM     25  N   UNL     1      -0.661  10.634  22.352  0.00  0.00    +0.000 NA
ATOM     26  C   UNL     1      -1.295  11.812  22.797  0.00  0.00    +0.000 A 
ATOM     27  C   UNL     1      -2.551  11.702  23.399  0.00  0.00    +0.000 A 
ATOM     28  C   UNL     1      -3.352  12.833  23.584  0.00  0.00    +0.000 A 
ATOM     29  C   UNL     1      -2.894  14.091  23.188  0.00  0.00    +0.000 A 
ATOM     30  C   UNL     1      -1.621  14.225  22.637  0.00  0.00    +0.000 A 
ATOM     31  C   UNL     1      -0.834  13.084  22.447  0.00  0.00    +0.000 A 
ATOM     32  C   UNL     1       0.460  13.161  21.751  0.00  0.00    +0.000 A 
ATOM     33  O   UNL     1       1.025  14.224  21.533  0.00  0.00    +0.000 OA
ATOM     34  N   UNL     1       0.950  11.959  21.304  0.00  0.00    +0.000 N 
ATOM     35  H   UNL     1       1.789  12.006  20.751  0.00  0.00    +0.000 HD
ENDBRANCH  23  24
ENDBRANCH   3  23
TORSDOF 7
ENDMDL
MODEL 4
REMARK VINA RESULT:      -8.3      3.098      4.580
REMARK  Name = 
REMARK  7 active torsions:
REMARK  status: ('A' for Active; 'I' for Inactive)
REMARK    1  A    between atoms: C_2  and  C_3
REMARK    2  A    between atoms: C_6  and  S_7
REMARK    3  A    between atoms: S_7  and  C_10
REMARK    4  A    between atoms: N_15  and  C_16
REMARK    5  A    between atoms: N_15  and  C_23
REMARK    6  A    between atoms: C_16  and  C_17
REMARK    7  A    between atoms: C_23  and  C_24
REMARK                            x       y       z     vdW  Elec       q    Type
REMARK                         _______ _______ _______ _____ _____    ______ ____
ROOT
ATOM      1  O   UNL     1      -0.903  10.671  18.975  0.00  0.00    +0.000 OA
ATOM      2  C   UNL     1       0.326  10.804  18.906  0.00  0.00    +0.000 C 
ATOM      3  N   UNL     1       0.885  12.094  18.680  0.00  0.00    +0.000 N 
ENDROOT
BRANCH   2   4
ATOM      4  C   UNL     1       1.090   9.517  19.089  0.00  0.00    +0.000 A 
ATOM      5  C   UNL     1       1.739   8.938  17.977  0.00  0.00    +0.000 A 
ATOM      6  C   UNL     1       2.420   7.702  18.070  0.00  0.00    +0.000 A 
ATOM      7  C   UNL     1       2.464   7.043  19.295  0.00  0.00    +0.000 A 
ATOM      8  C   UNL     1       1.814   7.578  20.394  0.00  0.00    +0.000 A 
ATOM      9  C   UNL     1       1.130   8.784  20.263  0.00  0.00    +0.000 A 
BRANCH   7  10
ATOM     10  S   UNL     1       3.274   5.474  19.497  0.00  0.00    +0.000 S 
ATOM     11  O   UNL     1       4.700   5.739  19.416  0.00  0.00    +0.000 OA
ATOM     12  O   UNL     1       2.724   4.856  20.693  0.00  0.00    +0.000 OA
BRANCH  10  13
ATOM     13  C   UNL     1       2.748   4.542  18.047  0.00  0.00    +0.000 C 
ATOM     14  F   UNL     1       1.455   4.799  17.695  0.00  0.00    +0.000 F 
ATOM     15  F   UNL     1       3.499   4.810  16.937  0.00  0.00    +0.000 F 
ENDBRANCH  10  13
ENDBRANCH   7  10
ENDBRANCH   2   4
BRANCH   3  16
ATOM     16  C   UNL     1      -0.114  13.151  18.403  0.00  0.00    +0.000 C 
BRANCH  16  17
ATOM     17  C   UNL     1      -0.239  14.217  19.470  0.00  0.00    +0.000 A 
ATOM     18  C   UNL     1      -0.259  13.841  20.822  0.00  0.00    +0.000 A 
ATOM     19  C   UNL     1      -0.349  14.802  21.832  0.00  0.00    +0.000 A 
ATOM     20  C   UNL     1      -0.432  16.152  21.502  0.00  0.00    +0.000 A 
ATOM     21  C   UNL     1      -0.365  16.543  20.167  0.00  0.00    +0.000 A 
ATOM     22  C   UNL     1      -0.221  15.584  19.161  0.00  0.00    +0.000 A 
ENDBRANCH  16  17
ENDBRANCH   3  16
BRANCH   3  23
ATOM     23  C   UNL     1       2.265  12.417  18.215  0.00  0.00    +0.000 C 
BRANCH  23  24
ATOM     24  C   UNL     1       2.922  13.697  18.763  0.00  0.00    +0.000 A 
ATOM     25  N   UNL     1       3.179  13.789  20.032  0.00  0.00    +0.000 NA
ATOM     26  C   UNL     1       3.367  15.080  20.566  0.00  0.00    +0.000 A 
ATOM     27  C   UNL     1       3.310  15.239  21.953  0.00  0.00    +0.000 A 
ATOM     28  C   UNL     1       3.189  16.512  22.518  0.00  0.00    +0.000 A 
ATOM     29  C   UNL     1       3.144  17.643  21.700  0.00  0.00    +0.000 A 
ATOM     30  C   UNL     1       3.256  17.505  20.318  0.00  0.00    +0.000 A 
ATOM     31  C   UNL     1       3.366  16.225  19.764  0.00  0.00    +0.000 A 
ATOM     32  C   UNL     1       3.355  16.024  18.307  0.00  0.00    +0.000 A 
ATOM     33  O   UNL     1       3.503  16.947  17.517  0.00  0.00    +0.000 OA
ATOM     34  N   UNL     1       3.097  14.739  17.902  0.00  0.00    +0.000 N 
ATOM     35  H   UNL     1       3.000  14.603  16.909  0.00  0.00    +0.000 HD
ENDBRANCH  23  24
ENDBRANCH   3  23
TORSDOF 7
ENDMDL
MODEL 5
REMARK VINA RESULT:      -8.3      4.813      9.313
REMARK  Name = 
REMARK  7 active torsions:
REMARK  status: ('A' for Active; 'I' for Inactive)
REMARK    1  A    between atoms: C_2  and  C_3
REMARK    2  A    between atoms: C_6  and  S_7
REMARK    3  A    between atoms: S_7  and  C_10
REMARK    4  A    between atoms: N_15  and  C_16
REMARK    5  A    between atoms: N_15  and  C_23
REMARK    6  A    between atoms: C_16  and  C_17
REMARK    7  A    between atoms: C_23  and  C_24
REMARK                            x       y       z     vdW  Elec       q    Type
REMARK                         _______ _______ _______ _____ _____    ______ ____
ROOT
ATOM      1  O   UNL     1       6.490   7.052  17.019  0.00  0.00    +0.000 OA
ATOM      2  C   UNL     1       5.610   6.190  17.144  0.00  0.00    +0.000 C 
ATOM      3  N   UNL     1       5.775   4.916  16.530  0.00  0.00    +0.000 N 
ENDROOT
BRANCH   2   4
ATOM      4  C   UNL     1       4.434   6.636  17.976  0.00  0.00    +0.000 A 
ATOM      5  C   UNL     1       3.646   7.720  17.531  0.00  0.00    +0.000 A 
ATOM      6  C   UNL     1       2.568   8.223  18.296  0.00  0.00    +0.000 A 
ATOM      7  C   UNL     1       2.266   7.627  19.517  0.00  0.00    +0.000 A 
ATOM      8  C   UNL     1       3.039   6.579  19.986  0.00  0.00    +0.000 A 
ATOM      9  C   UNL     1       4.110   6.123  19.220  0.00  0.00    +0.000 A 
BRANCH   7  10
ATOM     10  S   UNL     1       0.947   8.210  20.554  0.00  0.00    +0.000 S 
ATOM     11  O   UNL     1       0.002   7.113  20.668  0.00  0.00    +0.000 OA
ATOM     12  O   UNL     1       1.555   8.765  21.754  0.00  0.00    +0.000 OA
BRANCH  10  13
ATOM     13  C   UNL     1       0.212   9.543  19.588  0.00  0.00    +0.000 C 
ATOM     14  F   UNL     1      -0.992   9.953  20.083  0.00  0.00    +0.000 F 
ATOM     15  F   UNL     1       0.996  10.662  19.537  0.00  0.00    +0.000 F 
ENDBRANCH  10  13
ENDBRANCH   7  10
ENDBRANCH   2   4
BRANCH   3  16
ATOM     16  C   UNL     1       6.969   4.809  15.660  0.00  0.00    +0.000 C 
BRANCH  16  17
ATOM     17  C   UNL     1       6.686   4.467  14.214  0.00  0.00    +0.000 A 
ATOM     18  C   UNL     1       7.541   4.950  13.211  0.00  0.00    +0.000 A 
ATOM     19  C   UNL     1       7.322   4.632  11.868  0.00  0.00    +0.000 A 
ATOM     20  C   UNL     1       6.238   3.836  11.510  0.00  0.00    +0.000 A 
ATOM     21  C   UNL     1       5.409   3.310  12.498  0.00  0.00    +0.000 A 
ATOM     22  C   UNL     1       5.661   3.586  13.845  0.00  0.00    +0.000 A 
ENDBRANCH  16  17
ENDBRANCH   3  16
BRANCH   3  23
ATOM     23  C   UNL     1       4.722   3.897  16.254  0.00  0.00    +0.000 C 
BRANCH  23  24
ATOM     24  C   UNL     1       4.069   3.200  17.461  0.00  0.00    +0.000 A 
ATOM     25  N   UNL     1       2.777   3.229  17.593  0.00  0.00    +0.000 NA
ATOM     26  C   UNL     1       2.249   2.979  18.876  0.00  0.00    +0.000 A 
ATOM     27  C   UNL     1       0.919   3.328  19.125  0.00  0.00    +0.000 A 
ATOM     28  C   UNL     1       0.432   3.385  20.434  0.00  0.00    +0.000 A 
ATOM     29  C   UNL     1       1.267   3.072  21.508  0.00  0.00    +0.000 A 
ATOM     30  C   UNL     1       2.580   2.668  21.273  0.00  0.00    +0.000 A 
ATOM     31  C   UNL     1       3.058   2.625  19.959  0.00  0.00    +0.000 A 
ATOM     32  C   UNL     1       4.471   2.332  19.674  0.00  0.00    +0.000 A 
ATOM     33  O   UNL     1       5.228   1.871  20.518  0.00  0.00    +0.000 OA
ATOM     34  N   UNL     1       4.892   2.679  18.414  0.00  0.00    +0.000 N 
ATOM     35  H   UNL     1       5.876   2.565  18.233  0.00  0.00    +0.000 HD
ENDBRANCH  23  24
ENDBRANCH   3  23
TORSDOF 7
ENDMDL
MODEL 6
REMARK VINA RESULT:      -8.2      1.136      1.414
REMARK  Name = 
REMARK  7 active torsions:
REMARK  status: ('A' for Active; 'I' for Inactive)
REMARK    1  A    between atoms: C_2  and  C_3
REMARK    2  A    between atoms: C_6  and  S_7
REMARK    3  A    between atoms: S_7  and  C_10
REMARK    4  A    between atoms: N_15  and  C_16
REMARK    5  A    between atoms: N_15  and  C_23
REMARK    6  A    between atoms: C_16  and  C_17
REMARK    7  A    between atoms: C_23  and  C_24
REMARK                            x       y       z     vdW  Elec       q    Type
REMARK                         _______ _______ _______ _____ _____    ______ ____
ROOT
ATOM      1  O   UNL     1       1.477   9.764  17.066  0.00  0.00    +0.000 OA
ATOM      2  C   UNL     1       1.474   9.300  18.214  0.00  0.00    +0.000 C 
ATOM      3  N   UNL     1       0.631   9.877  19.208  0.00  0.00    +0.000 N 
ENDROOT
BRANCH   2   4
ATOM      4  C   UNL     1       2.405   8.129  18.401  0.00  0.00    +0.000 A 
ATOM      5  C   UNL     1       3.435   7.911  17.460  0.00  0.00    +0.000 A 
ATOM      6  C   UNL     1       4.302   6.797  17.546  0.00  0.00    +0.000 A 
ATOM      7  C   UNL     1       4.145   5.895  18.595  0.00  0.00    +0.000 A 
ATOM      8  C   UNL     1       3.126   6.074  19.516  0.00  0.00    +0.000 A 
ATOM      9  C   UNL     1       2.273   7.168  19.388  0.00  0.00    +0.000 A 
BRANCH   7  10
ATOM     10  S   UNL     1       5.171   4.455  18.766  0.00  0.00    +0.000 S 
ATOM     11  O   UNL     1       6.151   4.772  19.791  0.00  0.00    +0.000 OA
ATOM     12  O   UNL     1       4.286   3.314  18.945  0.00  0.00    +0.000 OA
BRANCH  10  13
ATOM     13  C   UNL     1       5.989   4.331  17.165  0.00  0.00    +0.000 C 
ATOM     14  F   UNL     1       7.334   4.123  17.273  0.00  0.00    +0.000 F 
ATOM     15  F   UNL     1       5.512   3.303  16.399  0.00  0.00    +0.000 F 
ENDBRANCH  10  13
ENDBRANCH   7  10
ENDBRANCH   2   4
BRANCH   3  16
ATOM     16  C   UNL     1      -0.073  11.104  18.772  0.00  0.00    +0.000 C 
BRANCH  16  17
ATOM     17  C   UNL     1      -1.542  10.928  18.454  0.00  0.00    +0.000 A 
ATOM     18  C   UNL     1      -2.478  11.815  19.008  0.00  0.00    +0.000 A 
ATOM     19  C   UNL     1      -3.839  11.696  18.716  0.00  0.00    +0.000 A 
ATOM     20  C   UNL     1      -4.283  10.678  17.875  0.00  0.00    +0.000 A 
ATOM     21  C   UNL     1      -3.360   9.820  17.281  0.00  0.00    +0.000 A 
ATOM     22  C   UNL     1      -1.995   9.975  17.533  0.00  0.00    +0.000 A 
ENDBRANCH  16  17
ENDBRANCH   3  16
BRANCH   3  23
ATOM     23  C   UNL     1       0.733   9.720  20.687  0.00  0.00    +0.000 C 
BRANCH  23  24
ATOM     24  C   UNL     1       0.274  10.900  21.563  0.00  0.00    +0.000 A 
ATOM     25  N   UNL     1      -0.729  10.741  22.372  0.00  0.00    +0.000 NA
ATOM     26  C   UNL     1      -1.390  11.902  22.824  0.00  0.00    +0.000 A 
ATOM     27  C   UNL     1      -2.651  11.762  23.409  0.00  0.00    +0.000 A 
ATOM     28  C   UNL     1      -3.474  12.876  23.600  0.00  0.00    +0.000 A 
ATOM     29  C   UNL     1      -3.034  14.147  23.225  0.00  0.00    +0.000 A 
ATOM     30  C   UNL     1      -1.757  14.311  22.693  0.00  0.00    +0.000 A 
ATOM     31  C   UNL     1      -0.947  13.186  22.497  0.00  0.00    +0.000 A 
ATOM     32  C   UNL     1       0.353  13.296  21.819  0.00  0.00    +0.000 A 
ATOM     33  O   UNL     1       0.902  14.372  21.622  0.00  0.00    +0.000 OA
ATOM     34  N   UNL     1       0.870  12.109  21.362  0.00  0.00    +0.000 N 
ATOM     35  H   UNL     1       1.715  12.178  20.820  0.00  0.00    +0.000 HD
ENDBRANCH  23  24
ENDBRANCH   3  23
TORSDOF 7
ENDMDL
MODEL 7
REMARK VINA RESULT:      -8.2      4.989      8.110
REMARK  Name = 
REMARK  7 active torsions:
REMARK  status: ('A' for Active; 'I' for Inactive)
REMARK    1  A    between atoms: C_2  and  C_3
REMARK    2  A    between atoms: C_6  and  S_7
REMARK    3  A    between atoms: S_7  and  C_10
REMARK    4  A    between atoms: N_15  and  C_16
REMARK    5  A    between atoms: N_15  and  C_23
REMARK    6  A    between atoms: C_16  and  C_17
REMARK    7  A    between atoms: C_23  and  C_24
REMARK                            x       y       z     vdW  Elec       q    Type
REMARK                         _______ _______ _______ _____ _____    ______ ____
ROOT
ATOM      1  O   UNL     1       7.514   5.012  17.174  0.00  0.00    +0.000 OA
ATOM      2  C   UNL     1       6.769   5.995  17.278  0.00  0.00    +0.000 C 
ATOM      3  N   UNL     1       5.377   5.860  17.010  0.00  0.00    +0.000 N 
ENDROOT
BRANCH   2   4
ATOM      4  C   UNL     1       7.480   7.256  17.703  0.00  0.00    +0.000 A 
ATOM      5  C   UNL     1       8.330   7.221  18.829  0.00  0.00    +0.000 A 
ATOM      6  C   UNL     1       8.977   8.382  19.313  0.00  0.00    +0.000 A 
ATOM      7  C   UNL     1       8.780   9.592  18.653  0.00  0.00    +0.000 A 
ATOM      8  C   UNL     1       7.931   9.657  17.562  0.00  0.00    +0.000 A 
ATOM      9  C   UNL     1       7.289   8.500  17.126  0.00  0.00    +0.000 A 
BRANCH   7  10
ATOM     10  S   UNL     1       9.531  11.104  19.207  0.00  0.00    +0.000 S 
ATOM     11  O   UNL     1       9.063  11.318  20.565  0.00  0.00    +0.000 OA
ATOM     12  O   UNL     1      10.959  10.996  18.946  0.00  0.00    +0.000 OA
BRANCH  10  13
ATOM     13  C   UNL     1       8.819  12.350  18.117  0.00  0.00    +0.000 C 
ATOM     14  F   UNL     1       8.320  13.423  18.797  0.00  0.00    +0.000 F 
ATOM     15  F   UNL     1       9.721  12.859  17.224  0.00  0.00    +0.000 F 
ENDBRANCH  10  13
ENDBRANCH   7  10
ENDBRANCH   2   4
BRANCH   3  16
ATOM     16  C   UNL     1       4.985   4.534  16.481  0.00  0.00    +0.000 C 
BRANCH  16  17
ATOM     17  C   UNL     1       4.172   3.675  17.426  0.00  0.00    +0.000 A 
ATOM     18  C   UNL     1       4.685   3.373  18.697  0.00  0.00    +0.000 A 
ATOM     19  C   UNL     1       3.950   2.603  19.602  0.00  0.00    +0.000 A 
ATOM     20  C   UNL     1       2.697   2.115  19.242  0.00  0.00    +0.000 A 
ATOM     21  C   UNL     1       2.155   2.447  18.003  0.00  0.00    +0.000 A 
ATOM     22  C   UNL     1       2.870   3.261  17.120  0.00  0.00    +0.000 A 
ENDBRANCH  16  17
ENDBRANCH   3  16
BRANCH   3  23
ATOM     23  C   UNL     1       4.396   6.947  16.730  0.00  0.00    +0.000 C 
BRANCH  23  24
ATOM     24  C   UNL     1       3.248   7.150  17.735  0.00  0.00    +0.000 A 
ATOM     25  N   UNL     1       2.517   8.221  17.662  0.00  0.00    +0.000 NA
ATOM     26  C   UNL     1       1.786   8.589  18.809  0.00  0.00    +0.000 A 
ATOM     27  C   UNL     1       1.269   9.885  18.879  0.00  0.00    +0.000 A 
ATOM     28  C   UNL     1       0.803  10.401  20.092  0.00  0.00    +0.000 A 
ATOM     29  C   UNL     1       0.831   9.615  21.246  0.00  0.00    +0.000 A 
ATOM     30  C   UNL     1       1.290   8.301  21.181  0.00  0.00    +0.000 A 
ATOM     31  C   UNL     1       1.763   7.801  19.963  0.00  0.00    +0.000 A 
ATOM     32  C   UNL     1       2.378   6.468  19.877  0.00  0.00    +0.000 A 
ATOM     33  O   UNL     1       2.283   5.643  20.777  0.00  0.00    +0.000 OA
ATOM     34  N   UNL     1       3.122   6.245  18.746  0.00  0.00    +0.000 N 
ATOM     35  H   UNL     1       3.620   5.370  18.713  0.00  0.00    +0.000 HD
ENDBRANCH  23  24
ENDBRANCH   3  23
TORSDOF 7
ENDMDL
MODEL 8
REMARK VINA RESULT:      -8.1      5.054      8.184
REMARK  Name = 
REMARK  7 active torsions:
REMARK  status: ('A' for Active; 'I' for Inactive)
REMARK    1  A    between atoms: C_2  and  C_3
REMARK    2  A    between atoms: C_6  and  S_7
REMARK    3  A    between atoms: S_7  and  C_10
REMARK    4  A    between atoms: N_15  and  C_16
REMARK    5  A    between atoms: N_15  and  C_23
REMARK    6  A    between atoms: C_16  and  C_17
REMARK    7  A    between atoms: C_23  and  C_24
REMARK                            x       y       z     vdW  Elec       q    Type
REMARK                         _______ _______ _______ _____ _____    ______ ____
ROOT
ATOM      1  O   UNL     1       7.609   4.943  17.352  0.00  0.00    +0.000 OA
ATOM      2  C   UNL     1       6.837   5.910  17.379  0.00  0.00    +0.000 C 
ATOM      3  N   UNL     1       5.456   5.721  17.084  0.00  0.00    +0.000 N 
ENDROOT
BRANCH   2   4
ATOM      4  C   UNL     1       7.503   7.212  17.746  0.00  0.00    +0.000 A 
ATOM      5  C   UNL     1       8.377   7.250  18.854  0.00  0.00    +0.000 A 
ATOM      6  C   UNL     1       8.985   8.452  19.284  0.00  0.00    +0.000 A 
ATOM      7  C   UNL     1       8.725   9.630  18.590  0.00  0.00    +0.000 A 
ATOM      8  C   UNL     1       7.851   9.623  17.517  0.00  0.00    +0.000 A 
ATOM      9  C   UNL     1       7.249   8.427  17.133  0.00  0.00    +0.000 A 
BRANCH   7  10
ATOM     10  S   UNL     1       9.424  11.189  19.077  0.00  0.00    +0.000 S 
ATOM     11  O   UNL     1       8.641  12.213  18.409  0.00  0.00    +0.000 OA
ATOM     12  O   UNL     1       9.514  11.185  20.530  0.00  0.00    +0.000 OA
BRANCH  10  13
ATOM     13  C   UNL     1      11.084  11.141  18.377  0.00  0.00    +0.000 C 
ATOM     14  F   UNL     1      11.344  12.206  17.563  0.00  0.00    +0.000 F 
ATOM     15  F   UNL     1      12.066  11.149  19.328  0.00  0.00    +0.000 F 
ENDBRANCH  10  13
ENDBRANCH   7  10
ENDBRANCH   2   4
BRANCH   3  16
ATOM     16  C   UNL     1       5.112   4.357  16.624  0.00  0.00    +0.000 C 
BRANCH  16  17
ATOM     17  C   UNL     1       4.219   3.566  17.555  0.00  0.00    +0.000 A 
ATOM     18  C   UNL     1       4.642   3.317  18.870  0.00  0.00    +0.000 A 
ATOM     19  C   UNL     1       3.831   2.612  19.763  0.00  0.00    +0.000 A 
ATOM     20  C   UNL     1       2.591   2.136  19.347  0.00  0.00    +0.000 A 
ATOM     21  C   UNL     1       2.138   2.416  18.061  0.00  0.00    +0.000 A 
ATOM     22  C   UNL     1       2.928   3.168  17.187  0.00  0.00    +0.000 A 
ENDBRANCH  16  17
ENDBRANCH   3  16
BRANCH   3  23
ATOM     23  C   UNL     1       4.455   6.763  16.714  0.00  0.00    +0.000 C 
BRANCH  23  24
ATOM     24  C   UNL     1       3.300   7.025  17.697  0.00  0.00    +0.000 A 
ATOM     25  N   UNL     1       2.586   8.102  17.571  0.00  0.00    +0.000 NA
ATOM     26  C   UNL     1       1.848   8.529  18.694  0.00  0.00    +0.000 A 
ATOM     27  C   UNL     1       1.351   9.834  18.704  0.00  0.00    +0.000 A 
ATOM     28  C   UNL     1       0.880  10.407  19.889  0.00  0.00    +0.000 A 
ATOM     29  C   UNL     1       0.884   9.670  21.075  0.00  0.00    +0.000 A 
ATOM     30  C   UNL     1       1.324   8.347  21.070  0.00  0.00    +0.000 A 
ATOM     31  C   UNL     1       1.802   7.790  19.880  0.00  0.00    +0.000 A 
ATOM     32  C   UNL     1       2.398   6.445  19.856  0.00  0.00    +0.000 A 
ATOM     33  O   UNL     1       2.282   5.660  20.788  0.00  0.00    +0.000 OA
ATOM     34  N   UNL     1       3.151   6.164  18.743  0.00  0.00    +0.000 N 
ATOM     35  H   UNL     1       3.636   5.282  18.753  0.00  0.00    +0.000 HD
ENDBRANCH  23  24
ENDBRANCH   3  23
TORSDOF 7
ENDMDL
MODEL 9
REMARK VINA RESULT:      -8.0      3.062      4.623
REMARK  Name = 
REMARK  7 active torsions:
REMARK  status: ('A' for Active; 'I' for Inactive)
REMARK    1  A    between atoms: C_2  and  C_3
REMARK    2  A    between atoms: C_6  and  S_7
REMARK    3  A    between atoms: S_7  and  C_10
REMARK    4  A    between atoms: N_15  and  C_16
REMARK    5  A    between atoms: N_15  and  C_23
REMARK    6  A    between atoms: C_16  and  C_17
REMARK    7  A    between atoms: C_23  and  C_24
REMARK                            x       y       z     vdW  Elec       q    Type
REMARK                         _______ _______ _______ _____ _____    ______ ____
ROOT
ATOM      1  O   UNL     1      -0.915  10.696  18.806  0.00  0.00    +0.000 OA
ATOM      2  C   UNL     1       0.318  10.796  18.778  0.00  0.00    +0.000 C 
ATOM      3  N   UNL     1       0.922  12.081  18.660  0.00  0.00    +0.000 N 
ENDROOT
BRANCH   2   4
ATOM      4  C   UNL     1       1.039   9.476  18.886  0.00  0.00    +0.000 A 
ATOM      5  C   UNL     1       1.135   8.844  20.144  0.00  0.00    +0.000 A 
ATOM      6  C   UNL     1       1.850   7.636  20.321  0.00  0.00    +0.000 A 
ATOM      7  C   UNL     1       2.467   7.046  19.222  0.00  0.00    +0.000 A 
ATOM      8  C   UNL     1       2.409   7.660  17.982  0.00  0.00    +0.000 A 
ATOM      9  C   UNL     1       1.718   8.862  17.847  0.00  0.00    +0.000 A 
BRANCH   7  10
ATOM     10  S   UNL     1       3.406   5.544  19.357  0.00  0.00    +0.000 S 
ATOM     11  O   UNL     1       4.805   5.932  19.309  0.00  0.00    +0.000 OA
ATOM     12  O   UNL     1       2.899   4.822  20.515  0.00  0.00    +0.000 OA
BRANCH  10  13
ATOM     13  C   UNL     1       2.976   4.643  17.857  0.00  0.00    +0.000 C 
ATOM     14  F   UNL     1       3.898   4.802  16.863  0.00  0.00    +0.000 F 
ATOM     15  F   UNL     1       2.868   3.295  18.055  0.00  0.00    +0.000 F 
ENDBRANCH  10  13
ENDBRANCH   7  10
ENDBRANCH   2   4
BRANCH   3  16
ATOM     16  C   UNL     1      -0.038  13.185  18.436  0.00  0.00    +0.000 C 
BRANCH  16  17
ATOM     17  C   UNL     1      -0.168  14.170  19.577  0.00  0.00    +0.000 A 
ATOM     18  C   UNL     1      -0.295  15.540  19.296  0.00  0.00    +0.000 A 
ATOM     19  C   UNL     1      -0.441  16.473  20.325  0.00  0.00    +0.000 A 
ATOM     20  C   UNL     1      -0.450  16.049  21.651  0.00  0.00    +0.000 A 
ATOM     21  C   UNL     1      -0.373  14.690  21.944  0.00  0.00    +0.000 A 
ATOM     22  C   UNL     1      -0.280  13.754  20.910  0.00  0.00    +0.000 A 
ENDBRANCH  16  17
ENDBRANCH   3  16
BRANCH   3  23
ATOM     23  C   UNL     1       2.322  12.393  18.256  0.00  0.00    +0.000 C 
BRANCH  23  24
ATOM     24  C   UNL     1       2.940  13.704  18.776  0.00  0.00    +0.000 A 
ATOM     25  N   UNL     1       3.211  13.824  20.040  0.00  0.00    +0.000 NA
ATOM     26  C   UNL     1       3.359  15.129  20.553  0.00  0.00    +0.000 A 
ATOM     27  C   UNL     1       3.314  15.307  21.938  0.00  0.00    +0.000 A 
ATOM     28  C   UNL     1       3.155  16.583  22.486  0.00  0.00    +0.000 A 
ATOM     29  C   UNL     1       3.059  17.699  21.652  0.00  0.00    +0.000 A 
ATOM     30  C   UNL     1       3.159  17.545  20.271  0.00  0.00    +0.000 A 
ATOM     31  C   UNL     1       3.307  16.261  19.734  0.00  0.00    +0.000 A 
ATOM     32  C   UNL     1       3.285  16.038  18.281  0.00  0.00    +0.000 A 
ATOM     33  O   UNL     1       3.390  16.953  17.475  0.00  0.00    +0.000 OA
ATOM     34  N   UNL     1       3.067  14.738  17.897  0.00  0.00    +0.000 N 
ATOM     35  H   UNL     1       2.962  14.584  16.908  0.00  0.00    +0.000 HD
ENDBRANCH  23  24
ENDBRANCH   3  23
TORSDOF 7
ENDMDL
