MODEL 1
REMARK VINA RESULT:      -8.7      0.000      0.000
REMARK  Name = 
REMARK  4 active torsions:
REMARK  status: ('A' for Active; 'I' for Inactive)
REMARK    1  A    between atoms: S_2  and  N_4
REMARK    2  A    between atoms: S_2  and  C_17
REMARK    3  A    between atoms: N_9  and  C_10
REMARK    4  A    between atoms: C_10  and  C_11
REMARK                            x       y       z     vdW  Elec       q    Type
REMARK                         _______ _______ _______ _____ _____    ______ ____
ROOT
ATOM      1  N   UNL     1       2.003   5.243  18.260  0.00  0.00    +0.000 N 
ATOM      2  C   UNL     1       2.940   4.230  17.938  0.00  0.00    +0.000 A 
ATOM      3  N   UNL     1       2.819   2.997  18.359  0.00  0.00    +0.000 NA
ATOM      4  N   UNL     1       3.843   2.248  17.802  0.00  0.00    +0.000 NA
ATOM      5  C   UNL     1       4.573   3.048  17.076  0.00  0.00    +0.000 A 
ATOM      6  N   UNL     1       4.044   4.316  17.110  0.00  0.00    +0.000 N 
ATOM      7  H   UNL     1       1.942   6.008  17.594  0.00  0.00    +0.000 HD
ENDROOT
BRANCH   1   9
ATOM      8  O   UNL     1       1.380   5.531  20.762  0.00  0.00    +0.000 OA
ATOM      9  S   UNL     1       2.331   5.985  19.766  0.00  0.00    +0.000 S 
ATOM     10  O   UNL     1       3.740   5.727  19.951  0.00  0.00    +0.000 OA
BRANCH   9  11
ATOM     11  C   UNL     1       2.051   7.716  19.474  0.00  0.00    +0.000 A 
ATOM     12  C   UNL     1       2.393   8.182  18.190  0.00  0.00    +0.000 A 
ATOM     13  C   UNL     1       1.945   9.420  17.753  0.00  0.00    +0.000 A 
ATOM     14  C   UNL     1       1.010  10.101  18.517  0.00  0.00    +0.000 A 
ATOM     15  C   UNL     1       0.666   9.651  19.800  0.00  0.00    +0.000 A 
ATOM     16  C   UNL     1      -0.294  10.351  20.530  0.00  0.00    +0.000 A 
ATOM     17  C   UNL     1      -0.252  10.346  21.913  0.00  0.00    +0.000 A 
ATOM     18  C   UNL     1       0.537   9.406  22.552  0.00  0.00    +0.000 A 
ATOM     19  C   UNL     1       1.206   8.434  21.794  0.00  0.00    +0.000 A 
ATOM     20  C   UNL     1       1.323   8.546  20.378  0.00  0.00    +0.000 A 
ENDBRANCH   9  11
ENDBRANCH   1   9
BRANCH   6  21
ATOM     21  C   UNL     1       4.650   5.479  16.526  0.00  0.00    +0.000 C 
BRANCH  21  22
ATOM     22  C   UNL     1       5.879   5.914  17.290  0.00  0.00    +0.000 A 
ATOM     23  C   UNL     1       6.449   7.175  17.053  0.00  0.00    +0.000 A 
ATOM     24  C   UNL     1       7.580   7.585  17.761  0.00  0.00    +0.000 A 
ATOM     25  C   UNL     1       8.150   6.748  18.717  0.00  0.00    +0.000 A 
ATOM     26  C   UNL     1       7.584   5.503  18.978  0.00  0.00    +0.000 A 
ATOM     27  C   UNL     1       6.451   5.091  18.275  0.00  0.00    +0.000 A 
ENDBRANCH  21  22
ENDBRANCH   6  21
TORSDOF 4
ENDMDL
MODEL 2
REMARK VINA RESULT:      -8.7      1.452      2.113
REMARK  Name = 
REMARK  4 active torsions:
REMARK  status: ('A' for Active; 'I' for Inactive)
REMARK    1  A    between atoms: S_2  and  N_4
REMARK    2  A    between atoms: S_2  and  C_17
REMARK    3  A    between atoms: N_9  and  C_10
REMARK    4  A    between atoms: C_10  and  C_11
REMARK                            x       y       z     vdW  Elec       q    Type
REMARK                         _______ _______ _______ _____ _____    ______ ____
ROOT
ATOM      1  N   UNL     1       2.237   5.169  18.344  0.00  0.00    +0.000 N 
ATOM      2  C   UNL     1       2.487   3.776  18.420  0.00  0.00    +0.000 A 
ATOM      3  N   UNL     1       1.533   2.895  18.580  0.00  0.00    +0.000 NA
ATOM      4  N   UNL     1       2.099   1.631  18.528  0.00  0.00    +0.000 NA
ATOM      5  C   UNL     1       3.384   1.776  18.362  0.00  0.00    +0.000 A 
ATOM      6  N   UNL     1       3.691   3.113  18.271  0.00  0.00    +0.000 N 
ATOM      7  H   UNL     1       2.928   5.709  17.829  0.00  0.00    +0.000 HD
ENDROOT
BRANCH   1   9
ATOM      8  O   UNL     1       0.969   5.449  20.590  0.00  0.00    +0.000 OA
ATOM      9  S   UNL     1       2.152   5.905  19.885  0.00  0.00    +0.000 S 
ATOM     10  O   UNL     1       3.460   5.644  20.439  0.00  0.00    +0.000 OA
BRANCH   9  11
ATOM     11  C   UNL     1       1.961   7.638  19.536  0.00  0.00    +0.000 A 
ATOM     12  C   UNL     1       2.344   8.046  18.245  0.00  0.00    +0.000 A 
ATOM     13  C   UNL     1       1.964   9.290  17.763  0.00  0.00    +0.000 A 
ATOM     14  C   UNL     1       1.052  10.039  18.490  0.00  0.00    +0.000 A 
ATOM     15  C   UNL     1       0.667   9.646  19.781  0.00  0.00    +0.000 A 
ATOM     16  C   UNL     1      -0.269  10.415  20.473  0.00  0.00    +0.000 A 
ATOM     17  C   UNL     1      -0.248  10.450  21.856  0.00  0.00    +0.000 A 
ATOM     18  C   UNL     1       0.485   9.494  22.536  0.00  0.00    +0.000 A 
ATOM     19  C   UNL     1       1.117   8.467  21.819  0.00  0.00    +0.000 A 
ATOM     20  C   UNL     1       1.260   8.530  20.403  0.00  0.00    +0.000 A 
ENDBRANCH   9  11
ENDBRANCH   1   9
BRANCH   6  21
ATOM     21  C   UNL     1       5.021   3.652  18.206  0.00  0.00    +0.000 C 
BRANCH  21  22
ATOM     22  C   UNL     1       5.319   4.246  16.849  0.00  0.00    +0.000 A 
ATOM     23  C   UNL     1       5.777   3.428  15.805  0.00  0.00    +0.000 A 
ATOM     24  C   UNL     1       6.047   3.970  14.547  0.00  0.00    +0.000 A 
ATOM     25  C   UNL     1       5.858   5.330  14.315  0.00  0.00    +0.000 A 
ATOM     26  C   UNL     1       5.385   6.151  15.335  0.00  0.00    +0.000 A 
ATOM     27  C   UNL     1       5.110   5.611  16.593  0.00  0.00    +0.000 A 
ENDBRANCH  21  22
ENDBRANCH   6  21
TORSDOF 4
ENDMDL
MODEL 3
REMARK VINA RESULT:      -8.7      0.411      1.012
REMARK  Name = 
REMARK  4 active torsions:
REMARK  status: ('A' for Active; 'I' for Inactive)
REMARK    1  A    between atoms: S_2  and  N_4
REMARK    2  A    between atoms: S_2  and  C_17
REMARK    3  A    between atoms: N_9  and  C_10
REMARK    4  A    between atoms: C_10  and  C_11
REMARK                            x       y       z     vdW  Elec       q    Type
REMARK                         _______ _______ _______ _____ _____    ______ ____
ROOT
ATOM      1  N   UNL     1       1.974   5.026  18.468  0.00  0.00    +0.000 N 
ATOM      2  C   UNL     1       2.813   3.925  18.165  0.00  0.00    +0.000 A 
ATOM      3  N   UNL     1       2.676   2.754  18.732  0.00  0.00    +0.000 NA
ATOM      4  N   UNL     1       3.590   1.885  18.157  0.00  0.00    +0.000 NA
ATOM      5  C   UNL     1       4.275   2.555  17.274  0.00  0.00    +0.000 A 
ATOM      6  N   UNL     1       3.821   3.851  17.221  0.00  0.00    +0.000 N 
ATOM      7  H   UNL     1       1.879   5.719  17.731  0.00  0.00    +0.000 HD
ENDROOT
BRANCH   1   9
ATOM      8  O   UNL     1       1.721   5.533  21.000  0.00  0.00    +0.000 OA
ATOM      9  S   UNL     1       2.508   5.900  19.838  0.00  0.00    +0.000 S 
ATOM     10  O   UNL     1       3.933   5.664  19.835  0.00  0.00    +0.000 OA
BRANCH   9  11
ATOM     11  C   UNL     1       2.160   7.597  19.440  0.00  0.00    +0.000 A 
ATOM     12  C   UNL     1       2.479   7.995  18.128  0.00  0.00    +0.000 A 
ATOM     13  C   UNL     1       1.983   9.185  17.617  0.00  0.00    +0.000 A 
ATOM     14  C   UNL     1       1.024   9.876  18.343  0.00  0.00    +0.000 A 
ATOM     15  C   UNL     1       0.702   9.494  19.653  0.00  0.00    +0.000 A 
ATOM     16  C   UNL     1      -0.283  10.201  20.343  0.00  0.00    +0.000 A 
ATOM     17  C   UNL     1      -0.236  10.284  21.724  0.00  0.00    +0.000 A 
ATOM     18  C   UNL     1       0.591   9.417  22.415  0.00  0.00    +0.000 A 
ATOM     19  C   UNL     1       1.295   8.425  21.716  0.00  0.00    +0.000 A 
ATOM     20  C   UNL     1       1.403   8.454  20.296  0.00  0.00    +0.000 A 
ENDBRANCH   9  11
ENDBRANCH   1   9
BRANCH   6  21
ATOM     21  C   UNL     1       4.419   4.905  16.449  0.00  0.00    +0.000 C 
BRANCH  21  22
ATOM     22  C   UNL     1       5.626   5.492  17.142  0.00  0.00    +0.000 A 
ATOM     23  C   UNL     1       6.505   4.661  17.856  0.00  0.00    +0.000 A 
ATOM     24  C   UNL     1       7.626   5.197  18.492  0.00  0.00    +0.000 A 
ATOM     25  C   UNL     1       7.888   6.563  18.419  0.00  0.00    +0.000 A 
ATOM     26  C   UNL     1       7.038   7.396  17.697  0.00  0.00    +0.000 A 
ATOM     27  C   UNL     1       5.918   6.863  17.056  0.00  0.00    +0.000 A 
ENDBRANCH  21  22
ENDBRANCH   6  21
TORSDOF 4
ENDMDL
MODEL 4
REMARK VINA RESULT:      -8.5      1.817      3.668
REMARK  Name = 
REMARK  4 active torsions:
REMARK  status: ('A' for Active; 'I' for Inactive)
REMARK    1  A    between atoms: S_2  and  N_4
REMARK    2  A    between atoms: S_2  and  C_17
REMARK    3  A    between atoms: N_9  and  C_10
REMARK    4  A    between atoms: C_10  and  C_11
REMARK                            x       y       z     vdW  Elec       q    Type
REMARK                         _______ _______ _______ _____ _____    ______ ____
ROOT
ATOM      1  N   UNL     1       4.039   6.293  19.630  0.00  0.00    +0.000 N 
ATOM      2  C   UNL     1       4.658   5.655  18.526  0.00  0.00    +0.000 A 
ATOM      3  N   UNL     1       4.968   6.292  17.426  0.00  0.00    +0.000 NA
ATOM      4  N   UNL     1       5.630   5.409  16.588  0.00  0.00    +0.000 NA
ATOM      5  C   UNL     1       5.683   4.253  17.188  0.00  0.00    +0.000 A 
ATOM      6  N   UNL     1       5.096   4.348  18.427  0.00  0.00    +0.000 N 
ATOM      7  H   UNL     1       4.208   5.861  20.535  0.00  0.00    +0.000 HD
ENDROOT
BRANCH   1   9
ATOM      8  O   UNL     1       1.921   5.723  18.244  0.00  0.00    +0.000 OA
ATOM      9  S   UNL     1       2.336   6.360  19.479  0.00  0.00    +0.000 S 
ATOM     10  O   UNL     1       1.880   5.832  20.744  0.00  0.00    +0.000 OA
BRANCH   9  11
ATOM     11  C   UNL     1       1.972   8.096  19.364  0.00  0.00    +0.000 A 
ATOM     12  C   UNL     1       2.264   8.699  18.126  0.00  0.00    +0.000 A 
ATOM     13  C   UNL     1       1.751   9.951  17.820  0.00  0.00    +0.000 A 
ATOM     14  C   UNL     1       0.804  10.510  18.664  0.00  0.00    +0.000 A 
ATOM     15  C   UNL     1       0.509   9.922  19.903  0.00  0.00    +0.000 A 
ATOM     16  C   UNL     1      -0.465  10.503  20.714  0.00  0.00    +0.000 A 
ATOM     17  C   UNL     1      -0.392  10.365  22.090  0.00  0.00    +0.000 A 
ATOM     18  C   UNL     1       0.453   9.406  22.619  0.00  0.00    +0.000 A 
ATOM     19  C   UNL     1       1.147   8.544  21.758  0.00  0.00    +0.000 A 
ATOM     20  C   UNL     1       1.228   8.799  20.358  0.00  0.00    +0.000 A 
ENDBRANCH   9  11
ENDBRANCH   1   9
BRANCH   6  21
ATOM     21  C   UNL     1       4.866   3.245  19.318  0.00  0.00    +0.000 C 
BRANCH  21  22
ATOM     22  C   UNL     1       3.396   2.915  19.433  0.00  0.00    +0.000 A 
ATOM     23  C   UNL     1       2.645   2.622  18.285  0.00  0.00    +0.000 A 
ATOM     24  C   UNL     1       1.288   2.310  18.386  0.00  0.00    +0.000 A 
ATOM     25  C   UNL     1       0.668   2.278  19.633  0.00  0.00    +0.000 A 
ATOM     26  C   UNL     1       1.404   2.546  20.783  0.00  0.00    +0.000 A 
ATOM     27  C   UNL     1       2.762   2.855  20.686  0.00  0.00    +0.000 A 
ENDBRANCH  21  22
ENDBRANCH   6  21
TORSDOF 4
ENDMDL
MODEL 5
REMARK VINA RESULT:      -8.3      0.968      1.409
REMARK  Name = 
REMARK  4 active torsions:
REMARK  status: ('A' for Active; 'I' for Inactive)
REMARK    1  A    between atoms: S_2  and  N_4
REMARK    2  A    between atoms: S_2  and  C_17
REMARK    3  A    between atoms: N_9  and  C_10
REMARK    4  A    between atoms: C_10  and  C_11
REMARK                            x       y       z     vdW  Elec       q    Type
REMARK                         _______ _______ _______ _____ _____    ______ ____
ROOT
ATOM      1  N   UNL     1       2.804   5.540  18.208  0.00  0.00    +0.000 N 
ATOM      2  C   UNL     1       2.732   4.132  18.063  0.00  0.00    +0.000 A 
ATOM      3  N   UNL     1       1.656   3.520  17.639  0.00  0.00    +0.000 NA
ATOM      4  N   UNL     1       1.942   2.168  17.531  0.00  0.00    +0.000 NA
ATOM      5  C   UNL     1       3.175   1.990  17.916  0.00  0.00    +0.000 A 
ATOM      6  N   UNL     1       3.734   3.199  18.252  0.00  0.00    +0.000 N 
ATOM      7  H   UNL     1       3.736   5.939  18.137  0.00  0.00    +0.000 HD
ENDROOT
BRANCH   1   9
ATOM      8  O   UNL     1       0.922   5.450  19.992  0.00  0.00    +0.000 OA
ATOM      9  S   UNL     1       2.201   6.076  19.716  0.00  0.00    +0.000 S 
ATOM     10  O   UNL     1       3.316   5.850  20.606  0.00  0.00    +0.000 OA
BRANCH   9  11
ATOM     11  C   UNL     1       1.932   7.819  19.489  0.00  0.00    +0.000 A 
ATOM     12  C   UNL     1       2.279   8.330  18.224  0.00  0.00    +0.000 A 
ATOM     13  C   UNL     1       1.840   9.586  17.833  0.00  0.00    +0.000 A 
ATOM     14  C   UNL     1       0.908  10.244  18.621  0.00  0.00    +0.000 A 
ATOM     15  C   UNL     1       0.559   9.749  19.887  0.00  0.00    +0.000 A 
ATOM     16  C   UNL     1      -0.397  10.428  20.641  0.00  0.00    +0.000 A 
ATOM     17  C   UNL     1      -0.357  10.370  22.023  0.00  0.00    +0.000 A 
ATOM     18  C   UNL     1       0.426   9.402  22.627  0.00  0.00    +0.000 A 
ATOM     19  C   UNL     1       1.089   8.454  21.834  0.00  0.00    +0.000 A 
ATOM     20  C   UNL     1       1.209   8.619  20.423  0.00  0.00    +0.000 A 
ENDBRANCH   9  11
ENDBRANCH   1   9
BRANCH   6  21
ATOM     21  C   UNL     1       5.037   3.374  18.832  0.00  0.00    +0.000 C 
BRANCH  21  22
ATOM     22  C   UNL     1       5.839   4.427  18.103  0.00  0.00    +0.000 A 
ATOM     23  C   UNL     1       5.968   4.377  16.707  0.00  0.00    +0.000 A 
ATOM     24  C   UNL     1       6.701   5.351  16.028  0.00  0.00    +0.000 A 
ATOM     25  C   UNL     1       7.307   6.389  16.731  0.00  0.00    +0.000 A 
ATOM     26  C   UNL     1       7.171   6.465  18.115  0.00  0.00    +0.000 A 
ATOM     27  C   UNL     1       6.434   5.494  18.797  0.00  0.00    +0.000 A 
ENDBRANCH  21  22
ENDBRANCH   6  21
TORSDOF 4
ENDMDL
MODEL 6
REMARK VINA RESULT:      -8.3      2.034      6.397
REMARK  Name = 
REMARK  4 active torsions:
REMARK  status: ('A' for Active; 'I' for Inactive)
REMARK    1  A    between atoms: S_2  and  N_4
REMARK    2  A    between atoms: S_2  and  C_17
REMARK    3  A    between atoms: N_9  and  C_10
REMARK    4  A    between atoms: C_10  and  C_11
REMARK                            x       y       z     vdW  Elec       q    Type
REMARK                         _______ _______ _______ _____ _____    ______ ____
ROOT
ATOM      1  N   UNL     1       3.024   3.501  19.905  0.00  0.00    +0.000 N 
ATOM      2  C   UNL     1       2.265   4.055  18.844  0.00  0.00    +0.000 A 
ATOM      3  N   UNL     1       1.410   3.353  18.146  0.00  0.00    +0.000 NA
ATOM      4  N   UNL     1       0.779   4.204  17.253  0.00  0.00    +0.000 NA
ATOM      5  C   UNL     1       1.284   5.395  17.413  0.00  0.00    +0.000 A 
ATOM      6  N   UNL     1       2.221   5.369  18.418  0.00  0.00    +0.000 N 
ATOM      7  H   UNL     1       3.324   4.161  20.618  0.00  0.00    +0.000 HD
ENDROOT
BRANCH   1   9
ATOM      8  O   UNL     1       5.179   2.176  20.483  0.00  0.00    +0.000 OA
ATOM      9  S   UNL     1       4.461   2.748  19.361  0.00  0.00    +0.000 S 
ATOM     10  O   UNL     1       3.990   1.888  18.299  0.00  0.00    +0.000 OA
BRANCH   9  11
ATOM     11  C   UNL     1       5.431   4.080  18.695  0.00  0.00    +0.000 A 
ATOM     12  C   UNL     1       6.156   4.836  19.636  0.00  0.00    +0.000 A 
ATOM     13  C   UNL     1       7.167   5.689  19.219  0.00  0.00    +0.000 A 
ATOM     14  C   UNL     1       7.575   5.645  17.895  0.00  0.00    +0.000 A 
ATOM     15  C   UNL     1       6.858   4.901  16.946  0.00  0.00    +0.000 A 
ATOM     16  C   UNL     1       7.312   4.864  15.628  0.00  0.00    +0.000 A 
ATOM     17  C   UNL     1       6.413   4.683  14.591  0.00  0.00    +0.000 A 
ATOM     18  C   UNL     1       5.139   4.232  14.886  0.00  0.00    +0.000 A 
ATOM     19  C   UNL     1       4.814   3.890  16.207  0.00  0.00    +0.000 A 
ATOM     20  C   UNL     1       5.658   4.250  17.296  0.00  0.00    +0.000 A 
ENDBRANCH   9  11
ENDBRANCH   1   9
BRANCH   6  21
ATOM     21  C   UNL     1       3.066   6.470  18.787  0.00  0.00    +0.000 C 
BRANCH  21  22
ATOM     22  C   UNL     1       2.272   7.737  19.009  0.00  0.00    +0.000 A 
ATOM     23  C   UNL     1       1.647   7.971  20.243  0.00  0.00    +0.000 A 
ATOM     24  C   UNL     1       0.919   9.143  20.457  0.00  0.00    +0.000 A 
ATOM     25  C   UNL     1       0.811  10.095  19.446  0.00  0.00    +0.000 A 
ATOM     26  C   UNL     1       1.442   9.886  18.223  0.00  0.00    +0.000 A 
ATOM     27  C   UNL     1       2.175   8.718  18.008  0.00  0.00    +0.000 A 
ENDBRANCH  21  22
ENDBRANCH   6  21
TORSDOF 4
ENDMDL
MODEL 7
REMARK VINA RESULT:      -8.2      2.031      6.275
REMARK  Name = 
REMARK  4 active torsions:
REMARK  status: ('A' for Active; 'I' for Inactive)
REMARK    1  A    between atoms: S_2  and  N_4
REMARK    2  A    between atoms: S_2  and  C_17
REMARK    3  A    between atoms: N_9  and  C_10
REMARK    4  A    between atoms: C_10  and  C_11
REMARK                            x       y       z     vdW  Elec       q    Type
REMARK                         _______ _______ _______ _____ _____    ______ ____
ROOT
ATOM      1  N   UNL     1       4.084   3.545  19.264  0.00  0.00    +0.000 N 
ATOM      2  C   UNL     1       2.874   4.073  19.778  0.00  0.00    +0.000 A 
ATOM      3  N   UNL     1       1.928   3.318  20.275  0.00  0.00    +0.000 NA
ATOM      4  N   UNL     1       0.928   4.143  20.764  0.00  0.00    +0.000 NA
ATOM      5  C   UNL     1       1.279   5.377  20.530  0.00  0.00    +0.000 A 
ATOM      6  N   UNL     1       2.510   5.400  19.920  0.00  0.00    +0.000 N 
ATOM      7  H   UNL     1       4.881   4.175  19.290  0.00  0.00    +0.000 HD
ENDROOT
BRANCH   1   9
ATOM      8  O   UNL     1       4.072   1.623  17.521  0.00  0.00    +0.000 OA
ATOM      9  S   UNL     1       3.947   3.064  17.628  0.00  0.00    +0.000 S 
ATOM     10  O   UNL     1       2.727   3.710  17.204  0.00  0.00    +0.000 OA
BRANCH   9  11
ATOM     11  C   UNL     1       5.352   3.807  16.832  0.00  0.00    +0.000 A 
ATOM     12  C   UNL     1       5.454   3.587  15.445  0.00  0.00    +0.000 A 
ATOM     13  C   UNL     1       6.319   4.352  14.677  0.00  0.00    +0.000 A 
ATOM     14  C   UNL     1       6.934   5.452  15.258  0.00  0.00    +0.000 A 
ATOM     15  C   UNL     1       6.845   5.678  16.639  0.00  0.00    +0.000 A 
ATOM     16  C   UNL     1       7.459   6.806  17.182  0.00  0.00    +0.000 A 
ATOM     17  C   UNL     1       7.909   6.787  18.491  0.00  0.00    +0.000 A 
ATOM     18  C   UNL     1       7.471   5.778  19.331  0.00  0.00    +0.000 A 
ATOM     19  C   UNL     1       6.523   4.855  18.867  0.00  0.00    +0.000 A 
ATOM     20  C   UNL     1       6.202   4.751  17.483  0.00  0.00    +0.000 A 
ENDBRANCH   9  11
ENDBRANCH   1   9
BRANCH   6  21
ATOM     21  C   UNL     1       3.155   6.576  19.408  0.00  0.00    +0.000 C 
BRANCH  21  22
ATOM     22  C   UNL     1       2.199   7.742  19.308  0.00  0.00    +0.000 A 
ATOM     23  C   UNL     1       1.600   8.266  20.464  0.00  0.00    +0.000 A 
ATOM     24  C   UNL     1       0.722   9.347  20.378  0.00  0.00    +0.000 A 
ATOM     25  C   UNL     1       0.436   9.922  19.142  0.00  0.00    +0.000 A 
ATOM     26  C   UNL     1       1.039   9.428  17.989  0.00  0.00    +0.000 A 
ATOM     27  C   UNL     1       1.921   8.349  18.071  0.00  0.00    +0.000 A 
ENDBRANCH  21  22
ENDBRANCH   6  21
TORSDOF 4
ENDMDL
MODEL 8
REMARK VINA RESULT:      -8.2      1.161      1.276
REMARK  Name = 
REMARK  4 active torsions:
REMARK  status: ('A' for Active; 'I' for Inactive)
REMARK    1  A    between atoms: S_2  and  N_4
REMARK    2  A    between atoms: S_2  and  C_17
REMARK    3  A    between atoms: N_9  and  C_10
REMARK    4  A    between atoms: C_10  and  C_11
REMARK                            x       y       z     vdW  Elec       q    Type
REMARK                         _______ _______ _______ _____ _____    ______ ____
ROOT
ATOM      1  N   UNL     1       1.504   4.553  18.690  0.00  0.00    +0.000 N 
ATOM      2  C   UNL     1       2.329   3.422  18.468  0.00  0.00    +0.000 A 
ATOM      3  N   UNL     1       2.111   2.265  19.039  0.00  0.00    +0.000 NA
ATOM      4  N   UNL     1       3.039   1.360  18.549  0.00  0.00    +0.000 NA
ATOM      5  C   UNL     1       3.811   1.994  17.712  0.00  0.00    +0.000 A 
ATOM      6  N   UNL     1       3.403   3.302  17.606  0.00  0.00    +0.000 N 
ATOM      7  H   UNL     1       1.488   5.236  17.938  0.00  0.00    +0.000 HD
ENDROOT
BRANCH   1   9
ATOM      8  O   UNL     1       0.908   5.361  21.082  0.00  0.00    +0.000 OA
ATOM      9  S   UNL     1       1.958   5.433  20.084  0.00  0.00    +0.000 S 
ATOM     10  O   UNL     1       3.268   4.905  20.385  0.00  0.00    +0.000 OA
BRANCH   9  11
ATOM     11  C   UNL     1       2.081   7.115  19.523  0.00  0.00    +0.000 A 
ATOM     12  C   UNL     1       2.593   7.289  18.223  0.00  0.00    +0.000 A 
ATOM     13  C   UNL     1       2.454   8.506  17.573  0.00  0.00    +0.000 A 
ATOM     14  C   UNL     1       1.646   9.479  18.142  0.00  0.00    +0.000 A 
ATOM     15  C   UNL     1       1.135   9.321  19.439  0.00  0.00    +0.000 A 
ATOM     16  C   UNL     1       0.310  10.312  19.968  0.00  0.00    +0.000 A 
ATOM     17  C   UNL     1       0.266  10.519  21.336  0.00  0.00    +0.000 A 
ATOM     18  C   UNL     1       0.792   9.551  22.173  0.00  0.00    +0.000 A 
ATOM     19  C   UNL     1       1.276   8.353  21.628  0.00  0.00    +0.000 A 
ATOM     20  C   UNL     1       1.499   8.211  20.228  0.00  0.00    +0.000 A 
ENDBRANCH   9  11
ENDBRANCH   1   9
BRANCH   6  21
ATOM     21  C   UNL     1       4.092   4.324  16.868  0.00  0.00    +0.000 C 
BRANCH  21  22
ATOM     22  C   UNL     1       5.441   4.639  17.472  0.00  0.00    +0.000 A 
ATOM     23  C   UNL     1       6.618   4.289  16.793  0.00  0.00    +0.000 A 
ATOM     24  C   UNL     1       7.867   4.584  17.342  0.00  0.00    +0.000 A 
ATOM     25  C   UNL     1       7.957   5.236  18.569  0.00  0.00    +0.000 A 
ATOM     26  C   UNL     1       6.798   5.608  19.246  0.00  0.00    +0.000 A 
ATOM     27  C   UNL     1       5.547   5.318  18.697  0.00  0.00    +0.000 A 
ENDBRANCH  21  22
ENDBRANCH   6  21
TORSDOF 4
ENDMDL
MODEL 9
REMARK VINA RESULT:      -8.1      2.365      4.005
REMARK  Name = 
REMARK  4 active torsions:
REMARK  status: ('A' for Active; 'I' for Inactive)
REMARK    1  A    between atoms: S_2  and  N_4
REMARK    2  A    between atoms: S_2  and  C_17
REMARK    3  A    between atoms: N_9  and  C_10
REMARK    4  A    between atoms: C_10  and  C_11
REMARK                            x       y       z     vdW  Elec       q    Type
REMARK                         _______ _______ _______ _____ _____    ______ ____
ROOT
ATOM      1  N   UNL     1       3.821   3.882  16.255  0.00  0.00    +0.000 N 
ATOM      2  C   UNL     1       5.058   4.222  15.654  0.00  0.00    +0.000 A 
ATOM      3  N   UNL     1       5.757   3.371  14.946  0.00  0.00    +0.000 NA
ATOM      4  N   UNL     1       6.859   4.038  14.434  0.00  0.00    +0.000 NA
ATOM      5  C   UNL     1       6.815   5.269  14.863  0.00  0.00    +0.000 A 
ATOM      6  N   UNL     1       5.689   5.452  15.629  0.00  0.00    +0.000 N 
ATOM      7  H   UNL     1       3.184   4.658  16.413  0.00  0.00    +0.000 HD
ENDROOT
BRANCH   1   9
ATOM      8  O   UNL     1       3.916   1.704  17.662  0.00  0.00    +0.000 OA
ATOM      9  S   UNL     1       4.016   3.146  17.787  0.00  0.00    +0.000 S 
ATOM     10  O   UNL     1       5.240   3.738  18.274  0.00  0.00    +0.000 OA
BRANCH   9  11
ATOM     11  C   UNL     1       2.627   3.723  18.733  0.00  0.00    +0.000 A 
ATOM     12  C   UNL     1       1.851   2.723  19.349  0.00  0.00    +0.000 A 
ATOM     13  C   UNL     1       0.941   3.056  20.342  0.00  0.00    +0.000 A 
ATOM     14  C   UNL     1       0.945   4.347  20.846  0.00  0.00    +0.000 A 
ATOM     15  C   UNL     1       1.709   5.354  20.238  0.00  0.00    +0.000 A 
ATOM     16  C   UNL     1       1.703   6.636  20.787  0.00  0.00    +0.000 A 
ATOM     17  C   UNL     1       1.913   7.737  19.975  0.00  0.00    +0.000 A 
ATOM     18  C   UNL     1       2.431   7.541  18.708  0.00  0.00    +0.000 A 
ATOM     19  C   UNL     1       2.810   6.252  18.306  0.00  0.00    +0.000 A 
ATOM     20  C   UNL     1       2.424   5.099  19.050  0.00  0.00    +0.000 A 
ENDBRANCH   9  11
ENDBRANCH   1   9
BRANCH   6  21
ATOM     21  C   UNL     1       5.376   6.646  16.363  0.00  0.00    +0.000 C 
BRANCH  21  22
ATOM     22  C   UNL     1       6.513   7.065  17.265  0.00  0.00    +0.000 A 
ATOM     23  C   UNL     1       7.055   6.156  18.187  0.00  0.00    +0.000 A 
ATOM     24  C   UNL     1       8.111   6.534  19.018  0.00  0.00    +0.000 A 
ATOM     25  C   UNL     1       8.643   7.819  18.934  0.00  0.00    +0.000 A 
ATOM     26  C   UNL     1       8.130   8.725  18.010  0.00  0.00    +0.000 A 
ATOM     27  C   UNL     1       7.076   8.349  17.175  0.00  0.00    +0.000 A 
ENDBRANCH  21  22
ENDBRANCH   6  21
TORSDOF 4
ENDMDL
