MODEL 1
REMARK VINA RESULT:      -9.8      0.000      0.000
REMARK  Name = 
REMARK  6 active torsions:
REMARK  status: ('A' for Active; 'I' for Inactive)
REMARK    1  A    between atoms: C_1  and  C_2
REMARK    2  A    between atoms: C_4  and  C_5
REMARK    3  A    between atoms: C_8  and  C_9
REMARK    4  A    between atoms: N_13  and  C_14
REMARK    5  A    between atoms: C_14  and  C_15
REMARK    6  A    between atoms: C_15  and  C_16
REMARK                            x       y       z     vdW  Elec       q    Type
REMARK                         _______ _______ _______ _____ _____    ______ ____
ROOT
ATOM      1  C   UNL     1       7.445   5.458  18.607  0.00  0.00    +0.000 C 
ATOM      2  C   UNL     1       7.830   4.559  17.433  0.00  0.00    +0.000 C 
ATOM      3  C   UNL     1       6.588   4.550  16.570  0.00  0.00    +0.000 C 
ATOM      4  O   UNL     1       6.523   4.086  15.443  0.00  0.00    +0.000 OA
ATOM      5  N   UNL     1       5.534   5.068  17.319  0.00  0.00    +0.000 N 
ATOM      6  C   UNL     1       5.934   5.289  18.691  0.00  0.00    +0.000 C 
ENDROOT
BRANCH   1  10
ATOM      7  C   UNL     1       8.501   8.862  18.322  0.00  0.00    +0.000 A 
ATOM      8  N   UNL     1       7.724   8.775  17.229  0.00  0.00    +0.000 NA
ATOM      9  O   UNL     1       7.264   7.462  17.250  0.00  0.00    +0.000 OA
ATOM     10  C   UNL     1       7.806   6.880  18.356  0.00  0.00    +0.000 A 
ATOM     11  N   UNL     1       8.576   7.690  19.042  0.00  0.00    +0.000 NA
BRANCH   7  15
ATOM     12  C   UNL     1      10.941  13.097  17.180  0.00  0.00    +0.000 C 
ATOM     13  C   UNL     1      10.381  12.141  18.188  0.00  0.00    +0.000 A 
ATOM     14  C   UNL     1       9.727  10.967  17.789  0.00  0.00    +0.000 A 
ATOM     15  C   UNL     1       9.196  10.076  18.739  0.00  0.00    +0.000 A 
ATOM     16  C   UNL     1       9.333  10.379  20.104  0.00  0.00    +0.000 A 
ATOM     17  C   UNL     1       9.987  11.544  20.509  0.00  0.00    +0.000 A 
ATOM     18  C   UNL     1      10.504  12.411  19.553  0.00  0.00    +0.000 A 
ATOM     19  F   UNL     1      11.129  13.525  19.958  0.00  0.00    +0.000 F 
ENDBRANCH   7  15
ENDBRANCH   1  10
BRANCH   5  20
ATOM     20  C   UNL     1       4.142   4.933  16.906  0.00  0.00    +0.000 C 
BRANCH  20  21
ATOM     21  C   UNL     1       3.166   5.625  17.858  0.00  0.00    +0.000 C 
BRANCH  21  22
ATOM     22  C   UNL     1       2.309   4.659  18.632  0.00  0.00    +0.000 A 
ATOM     23  C   UNL     1       1.983   4.913  19.972  0.00  0.00    +0.000 A 
ATOM     24  C   UNL     1       1.166   4.029  20.678  0.00  0.00    +0.000 A 
ATOM     25  C   UNL     1       0.673   2.886  20.055  0.00  0.00    +0.000 A 
ATOM     26  C   UNL     1       1.002   2.618  18.727  0.00  0.00    +0.000 A 
ATOM     27  C   UNL     1       1.819   3.500  18.018  0.00  0.00    +0.000 A 
ENDBRANCH  21  22
ENDBRANCH  20  21
ENDBRANCH   5  20
TORSDOF 5
ENDMDL
MODEL 2
REMARK VINA RESULT:      -9.3      3.409      8.308
REMARK  Name = 
REMARK  6 active torsions:
REMARK  status: ('A' for Active; 'I' for Inactive)
REMARK    1  A    between atoms: C_1  and  C_2
REMARK    2  A    between atoms: C_4  and  C_5
REMARK    3  A    between atoms: C_8  and  C_9
REMARK    4  A    between atoms: N_13  and  C_14
REMARK    5  A    between atoms: C_14  and  C_15
REMARK    6  A    between atoms: C_15  and  C_16
REMARK                            x       y       z     vdW  Elec       q    Type
REMARK                         _______ _______ _______ _____ _____    ______ ____
ROOT
ATOM      1  C   UNL     1       6.206   5.772  16.841  0.00  0.00    +0.000 C 
ATOM      2  C   UNL     1       6.912   4.763  17.744  0.00  0.00    +0.000 C 
ATOM      3  C   UNL     1       7.679   5.631  18.717  0.00  0.00    +0.000 C 
ATOM      4  O   UNL     1       8.247   5.227  19.718  0.00  0.00    +0.000 OA
ATOM      5  N   UNL     1       7.697   6.931  18.217  0.00  0.00    +0.000 N 
ATOM      6  C   UNL     1       7.127   6.984  16.890  0.00  0.00    +0.000 C 
ENDROOT
BRANCH   1  10
ATOM      7  C   UNL     1       3.076   6.944  18.112  0.00  0.00    +0.000 A 
ATOM      8  N   UNL     1       2.780   5.644  17.947  0.00  0.00    +0.000 NA
ATOM      9  O   UNL     1       3.955   5.094  17.442  0.00  0.00    +0.000 OA
ATOM     10  C   UNL     1       4.850   6.116  17.350  0.00  0.00    +0.000 A 
ATOM     11  N   UNL     1       4.362   7.270  17.739  0.00  0.00    +0.000 NA
BRANCH   7  15
ATOM     12  C   UNL     1       0.568   8.917  21.986  0.00  0.00    +0.000 C 
ATOM     13  C   UNL     1       0.927   8.901  20.532  0.00  0.00    +0.000 A 
ATOM     14  C   UNL     1       1.807   7.941  20.013  0.00  0.00    +0.000 A 
ATOM     15  C   UNL     1       2.148   7.935  18.648  0.00  0.00    +0.000 A 
ATOM     16  C   UNL     1       1.588   8.909  17.805  0.00  0.00    +0.000 A 
ATOM     17  C   UNL     1       0.708   9.865  18.314  0.00  0.00    +0.000 A 
ATOM     18  C   UNL     1       0.385   9.854  19.666  0.00  0.00    +0.000 A 
ATOM     19  F   UNL     1      -0.461  10.779  20.139  0.00  0.00    +0.000 F 
ENDBRANCH   7  15
ENDBRANCH   1  10
BRANCH   5  20
ATOM     20  C   UNL     1       8.591   7.958  18.742  0.00  0.00    +0.000 C 
BRANCH  20  21
ATOM     21  C   UNL     1       8.370   9.328  18.100  0.00  0.00    +0.000 C 
BRANCH  21  22
ATOM     22  C   UNL     1       9.247  10.403  18.684  0.00  0.00    +0.000 A 
ATOM     23  C   UNL     1       9.947  11.283  17.847  0.00  0.00    +0.000 A 
ATOM     24  C   UNL     1      10.737  12.296  18.392  0.00  0.00    +0.000 A 
ATOM     25  C   UNL     1      10.838  12.434  19.774  0.00  0.00    +0.000 A 
ATOM     26  C   UNL     1      10.156  11.556  20.614  0.00  0.00    +0.000 A 
ATOM     27  C   UNL     1       9.366  10.542  20.072  0.00  0.00    +0.000 A 
ENDBRANCH  21  22
ENDBRANCH  20  21
ENDBRANCH   5  20
TORSDOF 5
ENDMDL
MODEL 3
REMARK VINA RESULT:      -9.3      0.622      1.507
REMARK  Name = 
REMARK  6 active torsions:
REMARK  status: ('A' for Active; 'I' for Inactive)
REMARK    1  A    between atoms: C_1  and  C_2
REMARK    2  A    between atoms: C_4  and  C_5
REMARK    3  A    between atoms: C_8  and  C_9
REMARK    4  A    between atoms: N_13  and  C_14
REMARK    5  A    between atoms: C_14  and  C_15
REMARK    6  A    between atoms: C_15  and  C_16
REMARK                            x       y       z     vdW  Elec       q    Type
REMARK                         _______ _______ _______ _____ _____    ______ ____
ROOT
ATOM      1  C   UNL     1       7.450   5.497  18.615  0.00  0.00    +0.000 C 
ATOM      2  C   UNL     1       7.813   4.589  17.442  0.00  0.00    +0.000 C 
ATOM      3  C   UNL     1       6.555   4.572  16.602  0.00  0.00    +0.000 C 
ATOM      4  O   UNL     1       6.468   4.100  15.481  0.00  0.00    +0.000 OA
ATOM      5  N   UNL     1       5.516   5.095  17.368  0.00  0.00    +0.000 N 
ATOM      6  C   UNL     1       5.942   5.328  18.730  0.00  0.00    +0.000 C 
ENDROOT
BRANCH   1  10
ATOM      7  C   UNL     1       8.496   8.900  18.286  0.00  0.00    +0.000 A 
ATOM      8  N   UNL     1       7.707   8.800  17.202  0.00  0.00    +0.000 NA
ATOM      9  O   UNL     1       7.249   7.487  17.241  0.00  0.00    +0.000 OA
ATOM     10  C   UNL     1       7.805   6.917  18.346  0.00  0.00    +0.000 A 
ATOM     11  N   UNL     1       8.582   7.735  19.016  0.00  0.00    +0.000 NA
BRANCH   7  15
ATOM     12  C   UNL     1       9.701  12.286  21.790  0.00  0.00    +0.000 C 
ATOM     13  C   UNL     1       9.785  11.769  20.386  0.00  0.00    +0.000 A 
ATOM     14  C   UNL     1       9.104  10.606  20.000  0.00  0.00    +0.000 A 
ATOM     15  C   UNL     1       9.192  10.120  18.683  0.00  0.00    +0.000 A 
ATOM     16  C   UNL     1       9.975  10.822  17.752  0.00  0.00    +0.000 A 
ATOM     17  C   UNL     1      10.653  11.983  18.129  0.00  0.00    +0.000 A 
ATOM     18  C   UNL     1      10.552  12.446  19.435  0.00  0.00    +0.000 A 
ATOM     19  F   UNL     1      11.209  13.562  19.781  0.00  0.00    +0.000 F 
ENDBRANCH   7  15
ENDBRANCH   1  10
BRANCH   5  20
ATOM     20  C   UNL     1       4.115   4.956  16.983  0.00  0.00    +0.000 C 
BRANCH  20  21
ATOM     21  C   UNL     1       3.542   3.575  17.303  0.00  0.00    +0.000 C 
BRANCH  21  22
ATOM     22  C   UNL     1       2.712   3.555  18.559  0.00  0.00    +0.000 A 
ATOM     23  C   UNL     1       2.283   4.752  19.148  0.00  0.00    +0.000 A 
ATOM     24  C   UNL     1       1.491   4.729  20.297  0.00  0.00    +0.000 A 
ATOM     25  C   UNL     1       1.127   3.512  20.868  0.00  0.00    +0.000 A 
ATOM     26  C   UNL     1       1.560   2.316  20.297  0.00  0.00    +0.000 A 
ATOM     27  C   UNL     1       2.352   2.337  19.149  0.00  0.00    +0.000 A 
ENDBRANCH  21  22
ENDBRANCH  20  21
ENDBRANCH   5  20
TORSDOF 5
ENDMDL
MODEL 4
REMARK VINA RESULT:      -9.1      0.548      1.658
REMARK  Name = 
REMARK  6 active torsions:
REMARK  status: ('A' for Active; 'I' for Inactive)
REMARK    1  A    between atoms: C_1  and  C_2
REMARK    2  A    between atoms: C_4  and  C_5
REMARK    3  A    between atoms: C_8  and  C_9
REMARK    4  A    between atoms: N_13  and  C_14
REMARK    5  A    between atoms: C_14  and  C_15
REMARK    6  A    between atoms: C_15  and  C_16
REMARK                            x       y       z     vdW  Elec       q    Type
REMARK                         _______ _______ _______ _____ _____    ______ ____
ROOT
ATOM      1  C   UNL     1       7.458   5.630  18.448  0.00  0.00    +0.000 C 
ATOM      2  C   UNL     1       7.587   4.828  17.155  0.00  0.00    +0.000 C 
ATOM      3  C   UNL     1       6.218   4.951  16.522  0.00  0.00    +0.000 C 
ATOM      4  O   UNL     1       5.936   4.596  15.390  0.00  0.00    +0.000 OA
ATOM      5  N   UNL     1       5.338   5.441  17.484  0.00  0.00    +0.000 N 
ATOM      6  C   UNL     1       5.977   5.518  18.779  0.00  0.00    +0.000 C 
ENDROOT
BRANCH   1  10
ATOM      7  C   UNL     1       8.593   9.019  18.310  0.00  0.00    +0.000 A 
ATOM      8  N   UNL     1       7.819   8.994  17.211  0.00  0.00    +0.000 NA
ATOM      9  O   UNL     1       7.329   7.692  17.175  0.00  0.00    +0.000 OA
ATOM     10  C   UNL     1       7.853   7.053  18.258  0.00  0.00    +0.000 A 
ATOM     11  N   UNL     1       8.638   7.815  18.980  0.00  0.00    +0.000 NA
BRANCH   7  15
ATOM     12  C   UNL     1       9.571  12.383  21.904  0.00  0.00    +0.000 C 
ATOM     13  C   UNL     1       9.796  11.836  20.527  0.00  0.00    +0.000 A 
ATOM     14  C   UNL     1       9.093  10.712  20.070  0.00  0.00    +0.000 A 
ATOM     15  C   UNL     1       9.313  10.198  18.779  0.00  0.00    +0.000 A 
ATOM     16  C   UNL     1      10.250  10.832  17.947  0.00  0.00    +0.000 A 
ATOM     17  C   UNL     1      10.950  11.954  18.394  0.00  0.00    +0.000 A 
ATOM     18  C   UNL     1      10.718  12.446  19.673  0.00  0.00    +0.000 A 
ATOM     19  F   UNL     1      11.398  13.524  20.088  0.00  0.00    +0.000 F 
ENDBRANCH   7  15
ENDBRANCH   1  10
BRANCH   5  20
ATOM     20  C   UNL     1       3.890   5.404  17.310  0.00  0.00    +0.000 C 
BRANCH  20  21
ATOM     21  C   UNL     1       3.125   5.747  18.589  0.00  0.00    +0.000 C 
BRANCH  21  22
ATOM     22  C   UNL     1       2.289   4.606  19.103  0.00  0.00    +0.000 A 
ATOM     23  C   UNL     1       1.753   3.660  18.218  0.00  0.00    +0.000 A 
ATOM     24  C   UNL     1       1.002   2.588  18.701  0.00  0.00    +0.000 A 
ATOM     25  C   UNL     1       0.776   2.456  20.069  0.00  0.00    +0.000 A 
ATOM     26  C   UNL     1       1.293   3.399  20.956  0.00  0.00    +0.000 A 
ATOM     27  C   UNL     1       2.045   4.472  20.476  0.00  0.00    +0.000 A 
ENDBRANCH  21  22
ENDBRANCH  20  21
ENDBRANCH   5  20
TORSDOF 5
ENDMDL
MODEL 5
REMARK VINA RESULT:      -9.1      1.428      2.149
REMARK  Name = 
REMARK  6 active torsions:
REMARK  status: ('A' for Active; 'I' for Inactive)
REMARK    1  A    between atoms: C_1  and  C_2
REMARK    2  A    between atoms: C_4  and  C_5
REMARK    3  A    between atoms: C_8  and  C_9
REMARK    4  A    between atoms: N_13  and  C_14
REMARK    5  A    between atoms: C_14  and  C_15
REMARK    6  A    between atoms: C_15  and  C_16
REMARK                            x       y       z     vdW  Elec       q    Type
REMARK                         _______ _______ _______ _____ _____    ______ ____
ROOT
ATOM      1  C   UNL     1       7.451   5.446  18.608  0.00  0.00    +0.000 C 
ATOM      2  C   UNL     1       7.588   4.598  17.346  0.00  0.00    +0.000 C 
ATOM      3  C   UNL     1       6.209   4.657  16.726  0.00  0.00    +0.000 C 
ATOM      4  O   UNL     1       5.926   4.250  15.611  0.00  0.00    +0.000 OA
ATOM      5  N   UNL     1       5.326   5.160  17.678  0.00  0.00    +0.000 N 
ATOM      6  C   UNL     1       5.976   5.305  18.962  0.00  0.00    +0.000 C 
ENDROOT
BRANCH   1  10
ATOM      7  C   UNL     1       8.481   8.859  18.327  0.00  0.00    +0.000 A 
ATOM      8  N   UNL     1       7.712   8.764  17.229  0.00  0.00    +0.000 NA
ATOM      9  O   UNL     1       7.261   7.447  17.249  0.00  0.00    +0.000 OA
ATOM     10  C   UNL     1       7.802   6.871  18.358  0.00  0.00    +0.000 A 
ATOM     11  N   UNL     1       8.562   7.687  19.048  0.00  0.00    +0.000 NA
BRANCH   7  15
ATOM     12  C   UNL     1      10.857  13.133  17.195  0.00  0.00    +0.000 C 
ATOM     13  C   UNL     1      10.318  12.162  18.200  0.00  0.00    +0.000 A 
ATOM     14  C   UNL     1       9.675  10.983  17.799  0.00  0.00    +0.000 A 
ATOM     15  C   UNL     1       9.164  10.079  18.747  0.00  0.00    +0.000 A 
ATOM     16  C   UNL     1       9.309  10.374  20.112  0.00  0.00    +0.000 A 
ATOM     17  C   UNL     1       9.952  11.544  20.520  0.00  0.00    +0.000 A 
ATOM     18  C   UNL     1      10.449  12.424  19.567  0.00  0.00    +0.000 A 
ATOM     19  F   UNL     1      11.063  13.544  19.974  0.00  0.00    +0.000 F 
ENDBRANCH   7  15
ENDBRANCH   1  10
BRANCH   5  20
ATOM     20  C   UNL     1       3.878   5.074  17.523  0.00  0.00    +0.000 C 
BRANCH  20  21
ATOM     21  C   UNL     1       3.124   5.252  18.842  0.00  0.00    +0.000 C 
BRANCH  21  22
ATOM     22  C   UNL     1       2.493   6.612  18.984  0.00  0.00    +0.000 A 
ATOM     23  C   UNL     1       2.030   7.055  20.231  0.00  0.00    +0.000 A 
ATOM     24  C   UNL     1       1.470   8.326  20.364  0.00  0.00    +0.000 A 
ATOM     25  C   UNL     1       1.364   9.160  19.254  0.00  0.00    +0.000 A 
ATOM     26  C   UNL     1       1.809   8.724  18.007  0.00  0.00    +0.000 A 
ATOM     27  C   UNL     1       2.369   7.453  17.871  0.00  0.00    +0.000 A 
ENDBRANCH  21  22
ENDBRANCH  20  21
ENDBRANCH   5  20
TORSDOF 5
ENDMDL
MODEL 6
REMARK VINA RESULT:      -9.1      0.855      1.027
REMARK  Name = 
REMARK  6 active torsions:
REMARK  status: ('A' for Active; 'I' for Inactive)
REMARK    1  A    between atoms: C_1  and  C_2
REMARK    2  A    between atoms: C_4  and  C_5
REMARK    3  A    between atoms: C_8  and  C_9
REMARK    4  A    between atoms: N_13  and  C_14
REMARK    5  A    between atoms: C_14  and  C_15
REMARK    6  A    between atoms: C_15  and  C_16
REMARK                            x       y       z     vdW  Elec       q    Type
REMARK                         _______ _______ _______ _____ _____    ______ ____
ROOT
ATOM      1  C   UNL     1       7.387   5.600  18.172  0.00  0.00    +0.000 C 
ATOM      2  C   UNL     1       7.293   4.953  16.792  0.00  0.00    +0.000 C 
ATOM      3  C   UNL     1       5.836   5.116  16.421  0.00  0.00    +0.000 C 
ATOM      4  O   UNL     1       5.364   4.886  15.320  0.00  0.00    +0.000 OA
ATOM      5  N   UNL     1       5.133   5.474  17.569  0.00  0.00    +0.000 N 
ATOM      6  C   UNL     1       5.985   5.418  18.736  0.00  0.00    +0.000 C 
ENDROOT
BRANCH   1  10
ATOM      7  C   UNL     1       8.453   9.012  18.251  0.00  0.00    +0.000 A 
ATOM      8  N   UNL     1       7.569   9.075  17.241  0.00  0.00    +0.000 NA
ATOM      9  O   UNL     1       7.096   7.771  17.128  0.00  0.00    +0.000 OA
ATOM     10  C   UNL     1       7.739   7.044  18.083  0.00  0.00    +0.000 A 
ATOM     11  N   UNL     1       8.586   7.752  18.791  0.00  0.00    +0.000 NA
BRANCH   7  15
ATOM     12  C   UNL     1      11.307  13.060  17.433  0.00  0.00    +0.000 C 
ATOM     13  C   UNL     1      10.589  12.132  18.364  0.00  0.00    +0.000 A 
ATOM     14  C   UNL     1       9.881  11.022  17.880  0.00  0.00    +0.000 A 
ATOM     15  C   UNL     1       9.202  10.158  18.758  0.00  0.00    +0.000 A 
ATOM     16  C   UNL     1       9.244  10.422  20.137  0.00  0.00    +0.000 A 
ATOM     17  C   UNL     1       9.950  11.523  20.626  0.00  0.00    +0.000 A 
ATOM     18  C   UNL     1      10.614  12.364  19.742  0.00  0.00    +0.000 A 
ATOM     19  F   UNL     1      11.287  13.416  20.227  0.00  0.00    +0.000 F 
ENDBRANCH   7  15
ENDBRANCH   1  10
BRANCH   5  20
ATOM     20  C   UNL     1       3.677   5.424  17.641  0.00  0.00    +0.000 C 
BRANCH  20  21
ATOM     21  C   UNL     1       3.134   5.804  19.020  0.00  0.00    +0.000 C 
BRANCH  21  22
ATOM     22  C   UNL     1       2.572   4.631  19.778  0.00  0.00    +0.000 A 
ATOM     23  C   UNL     1       3.423   3.749  20.458  0.00  0.00    +0.000 A 
ATOM     24  C   UNL     1       2.896   2.679  21.182  0.00  0.00    +0.000 A 
ATOM     25  C   UNL     1       1.519   2.478  21.227  0.00  0.00    +0.000 A 
ATOM     26  C   UNL     1       0.665   3.341  20.543  0.00  0.00    +0.000 A 
ATOM     27  C   UNL     1       1.189   4.412  19.818  0.00  0.00    +0.000 A 
ENDBRANCH  21  22
ENDBRANCH  20  21
ENDBRANCH   5  20
TORSDOF 5
ENDMDL
MODEL 7
REMARK VINA RESULT:      -9.0      1.707      2.537
REMARK  Name = 
REMARK  6 active torsions:
REMARK  status: ('A' for Active; 'I' for Inactive)
REMARK    1  A    between atoms: C_1  and  C_2
REMARK    2  A    between atoms: C_4  and  C_5
REMARK    3  A    between atoms: C_8  and  C_9
REMARK    4  A    between atoms: N_13  and  C_14
REMARK    5  A    between atoms: C_14  and  C_15
REMARK    6  A    between atoms: C_15  and  C_16
REMARK                            x       y       z     vdW  Elec       q    Type
REMARK                         _______ _______ _______ _____ _____    ______ ____
ROOT
ATOM      1  C   UNL     1       7.510   5.405  18.380  0.00  0.00    +0.000 C 
ATOM      2  C   UNL     1       7.330   4.649  17.064  0.00  0.00    +0.000 C 
ATOM      3  C   UNL     1       5.845   4.752  16.795  0.00  0.00    +0.000 C 
ATOM      4  O   UNL     1       5.299   4.427  15.754  0.00  0.00    +0.000 OA
ATOM      5  N   UNL     1       5.221   5.186  17.962  0.00  0.00    +0.000 N 
ATOM      6  C   UNL     1       6.159   5.239  19.062  0.00  0.00    +0.000 C 
ENDROOT
BRANCH   1  10
ATOM      7  C   UNL     1       8.380   8.867  18.181  0.00  0.00    +0.000 A 
ATOM      8  N   UNL     1       7.801   8.711  16.979  0.00  0.00    +0.000 NA
ATOM      9  O   UNL     1       7.427   7.370  16.959  0.00  0.00    +0.000 OA
ATOM     10  C   UNL     1       7.816   6.844  18.153  0.00  0.00    +0.000 A 
ATOM     11  N   UNL     1       8.411   7.713  18.934  0.00  0.00    +0.000 NA
BRANCH   7  15
ATOM     12  C   UNL     1       9.185  13.786  17.589  0.00  0.00    +0.000 C 
ATOM     13  C   UNL     1       9.310  12.527  18.391  0.00  0.00    +0.000 A 
ATOM     14  C   UNL     1       8.806  11.309  17.913  0.00  0.00    +0.000 A 
ATOM     15  C   UNL     1       8.919  10.131  18.673  0.00  0.00    +0.000 A 
ATOM     16  C   UNL     1       9.550  10.190  19.927  0.00  0.00    +0.000 A 
ATOM     17  C   UNL     1      10.058  11.399  20.407  0.00  0.00    +0.000 A 
ATOM     18  C   UNL     1       9.936  12.551  19.640  0.00  0.00    +0.000 A 
ATOM     19  F   UNL     1      10.428  13.703  20.116  0.00  0.00    +0.000 F 
ENDBRANCH   7  15
ENDBRANCH   1  10
BRANCH   5  20
ATOM     20  C   UNL     1       3.776   5.112  18.149  0.00  0.00    +0.000 C 
BRANCH  20  21
ATOM     21  C   UNL     1       3.309   5.753  19.457  0.00  0.00    +0.000 C 
BRANCH  21  22
ATOM     22  C   UNL     1       2.586   7.057  19.251  0.00  0.00    +0.000 A 
ATOM     23  C   UNL     1       2.624   7.704  18.008  0.00  0.00    +0.000 A 
ATOM     24  C   UNL     1       1.930   8.899  17.813  0.00  0.00    +0.000 A 
ATOM     25  C   UNL     1       1.199   9.459  18.858  0.00  0.00    +0.000 A 
ATOM     26  C   UNL     1       1.167   8.830  20.102  0.00  0.00    +0.000 A 
ATOM     27  C   UNL     1       1.860   7.636  20.299  0.00  0.00    +0.000 A 
ENDBRANCH  21  22
ENDBRANCH  20  21
ENDBRANCH   5  20
TORSDOF 5
ENDMDL
MODEL 8
REMARK VINA RESULT:      -9.0      0.773      1.192
REMARK  Name = 
REMARK  6 active torsions:
REMARK  status: ('A' for Active; 'I' for Inactive)
REMARK    1  A    between atoms: C_1  and  C_2
REMARK    2  A    between atoms: C_4  and  C_5
REMARK    3  A    between atoms: C_8  and  C_9
REMARK    4  A    between atoms: N_13  and  C_14
REMARK    5  A    between atoms: C_14  and  C_15
REMARK    6  A    between atoms: C_15  and  C_16
REMARK                            x       y       z     vdW  Elec       q    Type
REMARK                         _______ _______ _______ _____ _____    ______ ____
ROOT
ATOM      1  C   UNL     1       7.424   5.619  18.665  0.00  0.00    +0.000 C 
ATOM      2  C   UNL     1       7.945   4.643  17.612  0.00  0.00    +0.000 C 
ATOM      3  C   UNL     1       6.745   4.406  16.722  0.00  0.00    +0.000 C 
ATOM      4  O   UNL     1       6.772   3.816  15.655  0.00  0.00    +0.000 OA
ATOM      5  N   UNL     1       5.615   4.888  17.379  0.00  0.00    +0.000 N 
ATOM      6  C   UNL     1       5.936   5.301  18.727  0.00  0.00    +0.000 C 
ENDROOT
BRANCH   1  10
ATOM      7  C   UNL     1       8.183   9.048  17.994  0.00  0.00    +0.000 A 
ATOM      8  N   UNL     1       7.293   8.818  17.013  0.00  0.00    +0.000 NA
ATOM      9  O   UNL     1       6.938   7.484  17.191  0.00  0.00    +0.000 OA
ATOM     10  C   UNL     1       7.646   7.035  18.264  0.00  0.00    +0.000 A 
ATOM     11  N   UNL     1       8.429   7.948  18.787  0.00  0.00    +0.000 NA
BRANCH   7  15
ATOM     12  C   UNL     1      11.926  11.751  19.963  0.00  0.00    +0.000 C 
ATOM     13  C   UNL     1      10.651  11.656  19.182  0.00  0.00    +0.000 A 
ATOM     14  C   UNL     1      10.022  10.421  18.969  0.00  0.00    +0.000 A 
ATOM     15  C   UNL     1       8.829  10.336  18.229  0.00  0.00    +0.000 A 
ATOM     16  C   UNL     1       8.270  11.513  17.704  0.00  0.00    +0.000 A 
ATOM     17  C   UNL     1       8.889  12.747  17.917  0.00  0.00    +0.000 A 
ATOM     18  C   UNL     1      10.067  12.809  18.651  0.00  0.00    +0.000 A 
ATOM     19  F   UNL     1      10.649  14.000  18.845  0.00  0.00    +0.000 F 
ENDBRANCH   7  15
ENDBRANCH   1  10
BRANCH   5  20
ATOM     20  C   UNL     1       4.261   4.560  16.946  0.00  0.00    +0.000 C 
BRANCH  20  21
ATOM     21  C   UNL     1       3.184   5.294  17.747  0.00  0.00    +0.000 C 
BRANCH  21  22
ATOM     22  C   UNL     1       2.469   4.405  18.730  0.00  0.00    +0.000 A 
ATOM     23  C   UNL     1       1.872   4.948  19.877  0.00  0.00    +0.000 A 
ATOM     24  C   UNL     1       1.187   4.125  20.771  0.00  0.00    +0.000 A 
ATOM     25  C   UNL     1       1.097   2.756  20.531  0.00  0.00    +0.000 A 
ATOM     26  C   UNL     1       1.699   2.206  19.401  0.00  0.00    +0.000 A 
ATOM     27  C   UNL     1       2.385   3.026  18.504  0.00  0.00    +0.000 A 
ENDBRANCH  21  22
ENDBRANCH  20  21
ENDBRANCH   5  20
TORSDOF 5
ENDMDL
MODEL 9
REMARK VINA RESULT:      -9.0      1.737      2.768
REMARK  Name = 
REMARK  6 active torsions:
REMARK  status: ('A' for Active; 'I' for Inactive)
REMARK    1  A    between atoms: C_1  and  C_2
REMARK    2  A    between atoms: C_4  and  C_5
REMARK    3  A    between atoms: C_8  and  C_9
REMARK    4  A    between atoms: N_13  and  C_14
REMARK    5  A    between atoms: C_14  and  C_15
REMARK    6  A    between atoms: C_15  and  C_16
REMARK                            x       y       z     vdW  Elec       q    Type
REMARK                         _______ _______ _______ _____ _____    ______ ____
ROOT
ATOM      1  C   UNL     1       7.459   5.512  18.286  0.00  0.00    +0.000 C 
ATOM      2  C   UNL     1       7.232   4.848  16.929  0.00  0.00    +0.000 C 
ATOM      3  C   UNL     1       5.741   4.982  16.711  0.00  0.00    +0.000 C 
ATOM      4  O   UNL     1       5.161   4.732  15.668  0.00  0.00    +0.000 OA
ATOM      5  N   UNL     1       5.157   5.341  17.924  0.00  0.00    +0.000 N 
ATOM      6  C   UNL     1       6.127   5.312  18.995  0.00  0.00    +0.000 C 
ENDROOT
BRANCH   1  10
ATOM      7  C   UNL     1       8.427   8.954  18.255  0.00  0.00    +0.000 A 
ATOM      8  N   UNL     1       7.575   8.950  17.216  0.00  0.00    +0.000 NA
ATOM      9  O   UNL     1       7.142   7.629  17.143  0.00  0.00    +0.000 OA
ATOM     10  C   UNL     1       7.774   6.960  18.147  0.00  0.00    +0.000 A 
ATOM     11  N   UNL     1       8.577   7.721  18.852  0.00  0.00    +0.000 NA
BRANCH   7  15
ATOM     12  C   UNL     1       9.559  12.142  21.963  0.00  0.00    +0.000 C 
ATOM     13  C   UNL     1       9.684  11.693  20.539  0.00  0.00    +0.000 A 
ATOM     14  C   UNL     1       9.000  10.562  20.072  0.00  0.00    +0.000 A 
ATOM     15  C   UNL     1       9.127  10.141  18.736  0.00  0.00    +0.000 A 
ATOM     16  C   UNL     1       9.952  10.875  17.869  0.00  0.00    +0.000 A 
ATOM     17  C   UNL     1      10.632  12.006  18.326  0.00  0.00    +0.000 A 
ATOM     18  C   UNL     1      10.493  12.404  19.650  0.00  0.00    +0.000 A 
ATOM     19  F   UNL     1      11.154  13.491  20.073  0.00  0.00    +0.000 F 
ENDBRANCH   7  15
ENDBRANCH   1  10
BRANCH   5  20
ATOM     20  C   UNL     1       3.717   5.267  18.149  0.00  0.00    +0.000 C 
BRANCH  20  21
ATOM     21  C   UNL     1       3.282   5.929  19.457  0.00  0.00    +0.000 C 
BRANCH  21  22
ATOM     22  C   UNL     1       2.508   7.203  19.248  0.00  0.00    +0.000 A 
ATOM     23  C   UNL     1       1.780   7.775  20.300  0.00  0.00    +0.000 A 
ATOM     24  C   UNL     1       1.086   8.970  20.110  0.00  0.00    +0.000 A 
ATOM     25  C   UNL     1       1.109   9.600  18.868  0.00  0.00    +0.000 A 
ATOM     26  C   UNL     1       1.820   9.032  17.811  0.00  0.00    +0.000 A 
ATOM     27  C   UNL     1       2.514   7.836  17.999  0.00  0.00    +0.000 A 
ENDBRANCH  21  22
ENDBRANCH  20  21
ENDBRANCH   5  20
TORSDOF 5
ENDMDL
