MODEL 1
REMARK VINA RESULT:      -9.1      0.000      0.000
REMARK  Name = 
REMARK  5 active torsions:
REMARK  status: ('A' for Active; 'I' for Inactive)
REMARK    1  A    between atoms: C_1  and  C_2
REMARK    2  A    between atoms: C_3  and  C_4
REMARK    3  A    between atoms: N_6  and  C_7
REMARK    4  A    between atoms: C_11  and  C_12
REMARK    5  A    between atoms: C_12  and  N_13
REMARK                            x       y       z     vdW  Elec       q    Type
REMARK                         _______ _______ _______ _____ _____    ______ ____
ROOT
ATOM      1  C   UNL     1       1.628   9.475  18.076  0.00  0.00    +0.000 C 
ATOM      2  O   UNL     1       2.421  10.019  17.316  0.00  0.00    +0.000 OA
ATOM      3  N   UNL     1       1.723   8.145  18.471  0.00  0.00    +0.000 N 
ATOM      4  H   UNL     1       0.921   7.795  18.983  0.00  0.00    +0.000 HD
ENDROOT
BRANCH   1   7
ATOM      5  C   UNL     1       1.163  11.012  20.973  0.00  0.00    +0.000 C 
ATOM      6  C   UNL     1       0.245  10.819  19.820  0.00  0.00    +0.000 A 
ATOM      7  C   UNL     1       0.447  10.172  18.602  0.00  0.00    +0.000 A 
ATOM      8  O   UNL     1      -0.706  10.267  17.840  0.00  0.00    +0.000 OA
ATOM      9  C   UNL     1      -1.643  10.964  18.572  0.00  0.00    +0.000 A 
ATOM     10  C   UNL     1      -1.086  11.320  19.794  0.00  0.00    +0.000 A 
ATOM     11  C   UNL     1      -1.851  12.051  20.719  0.00  0.00    +0.000 A 
ATOM     12  C   UNL     1      -3.156  12.412  20.398  0.00  0.00    +0.000 A 
ATOM     13  C   UNL     1      -3.719  12.058  19.170  0.00  0.00    +0.000 A 
ATOM     14  C   UNL     1      -5.033  12.444  18.885  0.00  0.00    +0.000 A 
ATOM     15  C   UNL     1      -5.627  12.100  17.672  0.00  0.00    +0.000 A 
ATOM     16  C   UNL     1      -4.911  11.361  16.731  0.00  0.00    +0.000 A 
ATOM     17  C   UNL     1      -3.592  10.963  16.988  0.00  0.00    +0.000 A 
ATOM     18  C   UNL     1      -2.977  11.310  18.210  0.00  0.00    +0.000 A 
ENDBRANCH   1   7
BRANCH   3  19
ATOM     19  C   UNL     1       2.685   7.193  18.052  0.00  0.00    +0.000 A 
ATOM     20  C   UNL     1       3.842   7.508  17.334  0.00  0.00    +0.000 A 
ATOM     21  C   UNL     1       4.701   6.496  16.881  0.00  0.00    +0.000 A 
ATOM     22  C   UNL     1       4.387   5.158  17.102  0.00  0.00    +0.000 A 
ATOM     23  C   UNL     1       3.230   4.820  17.814  0.00  0.00    +0.000 A 
ATOM     24  C   UNL     1       2.422   5.847  18.339  0.00  0.00    +0.000 A 
BRANCH  23  25
ATOM     25  C   UNL     1       2.775   3.385  17.893  0.00  0.00    +0.000 C 
BRANCH  25  26
ATOM     26  N   UNL     1       2.460   3.010  19.263  0.00  0.00    +0.000 N 
ATOM     27  C   UNL     1       3.387   3.180  20.359  0.00  0.00    +0.000 C 
ATOM     28  C   UNL     1       2.696   2.478  21.511  0.00  0.00    +0.000 C 
ATOM     29  C   UNL     1       1.216   2.672  21.213  0.00  0.00    +0.000 C 
ATOM     30  C   UNL     1       1.183   2.703  19.704  0.00  0.00    +0.000 C 
ATOM     31  O   UNL     1       0.188   2.549  19.015  0.00  0.00    +0.000 OA
ENDBRANCH  25  26
ENDBRANCH  23  25
ENDBRANCH   3  19
TORSDOF 4
ENDMDL
MODEL 2
REMARK VINA RESULT:      -9.0      3.290      5.038
REMARK  Name = 
REMARK  5 active torsions:
REMARK  status: ('A' for Active; 'I' for Inactive)
REMARK    1  A    between atoms: C_1  and  C_2
REMARK    2  A    between atoms: C_3  and  C_4
REMARK    3  A    between atoms: N_6  and  C_7
REMARK    4  A    between atoms: C_11  and  C_12
REMARK    5  A    between atoms: C_12  and  N_13
REMARK                            x       y       z     vdW  Elec       q    Type
REMARK                         _______ _______ _______ _____ _____    ______ ____
ROOT
ATOM      1  C   UNL     1       2.008   8.937  18.252  0.00  0.00    +0.000 C 
ATOM      2  O   UNL     1       2.291   8.490  17.147  0.00  0.00    +0.000 OA
ATOM      3  N   UNL     1       2.077   8.197  19.427  0.00  0.00    +0.000 N 
ATOM      4  H   UNL     1       1.677   8.652  20.240  0.00  0.00    +0.000 HD
ENDROOT
BRANCH   1   7
ATOM      5  C   UNL     1      -1.014  10.007  19.087  0.00  0.00    +0.000 C 
ATOM      6  C   UNL     1       0.232  10.760  18.786  0.00  0.00    +0.000 A 
ATOM      7  C   UNL     1       1.502  10.303  18.436  0.00  0.00    +0.000 A 
ATOM      8  O   UNL     1       2.344  11.390  18.266  0.00  0.00    +0.000 OA
ATOM      9  C   UNL     1       1.613  12.536  18.498  0.00  0.00    +0.000 A 
ATOM     10  C   UNL     1       0.310  12.179  18.823  0.00  0.00    +0.000 A 
ATOM     11  C   UNL     1      -0.631  13.182  19.113  0.00  0.00    +0.000 A 
ATOM     12  C   UNL     1      -0.245  14.518  19.074  0.00  0.00    +0.000 A 
ATOM     13  C   UNL     1       1.064  14.881  18.749  0.00  0.00    +0.000 A 
ATOM     14  C   UNL     1       1.412  16.235  18.724  0.00  0.00    +0.000 A 
ATOM     15  C   UNL     1       2.708  16.630  18.397  0.00  0.00    +0.000 A 
ATOM     16  C   UNL     1       3.670  15.671  18.086  0.00  0.00    +0.000 A 
ATOM     17  C   UNL     1       3.351  14.306  18.106  0.00  0.00    +0.000 A 
ATOM     18  C   UNL     1       2.044  13.893  18.441  0.00  0.00    +0.000 A 
ENDBRANCH   1   7
BRANCH   3  19
ATOM     19  C   UNL     1       2.428   6.831  19.561  0.00  0.00    +0.000 A 
ATOM     20  C   UNL     1       1.644   5.879  20.220  0.00  0.00    +0.000 A 
ATOM     21  C   UNL     1       2.104   4.564  20.385  0.00  0.00    +0.000 A 
ATOM     22  C   UNL     1       3.369   4.201  19.933  0.00  0.00    +0.000 A 
ATOM     23  C   UNL     1       4.173   5.140  19.276  0.00  0.00    +0.000 A 
ATOM     24  C   UNL     1       3.665   6.432  19.039  0.00  0.00    +0.000 A 
BRANCH  23  25
ATOM     25  C   UNL     1       5.611   4.822  18.957  0.00  0.00    +0.000 C 
BRANCH  25  26
ATOM     26  N   UNL     1       5.796   4.609  17.529  0.00  0.00    +0.000 N 
ATOM     27  C   UNL     1       4.733   4.777  16.564  0.00  0.00    +0.000 C 
ATOM     28  C   UNL     1       5.346   4.261  15.277  0.00  0.00    +0.000 C 
ATOM     29  C   UNL     1       6.825   4.586  15.430  0.00  0.00    +0.000 C 
ATOM     30  C   UNL     1       7.035   4.483  16.922  0.00  0.00    +0.000 C 
ATOM     31  O   UNL     1       8.114   4.375  17.479  0.00  0.00    +0.000 OA
ENDBRANCH  25  26
ENDBRANCH  23  25
ENDBRANCH   3  19
TORSDOF 4
ENDMDL
MODEL 3
REMARK VINA RESULT:      -9.0      2.213      9.108
REMARK  Name = 
REMARK  5 active torsions:
REMARK  status: ('A' for Active; 'I' for Inactive)
REMARK    1  A    between atoms: C_1  and  C_2
REMARK    2  A    between atoms: C_3  and  C_4
REMARK    3  A    between atoms: N_6  and  C_7
REMARK    4  A    between atoms: C_11  and  C_12
REMARK    5  A    between atoms: C_12  and  N_13
REMARK                            x       y       z     vdW  Elec       q    Type
REMARK                         _______ _______ _______ _____ _____    ______ ____
ROOT
ATOM      1  C   UNL     1       1.612   7.599  20.296  0.00  0.00    +0.000 C 
ATOM      2  O   UNL     1       1.153   7.459  21.423  0.00  0.00    +0.000 OA
ATOM      3  N   UNL     1       1.533   8.780  19.567  0.00  0.00    +0.000 N 
ATOM      4  H   UNL     1       1.827   8.704  18.600  0.00  0.00    +0.000 HD
ENDROOT
BRANCH   1   7
ATOM      5  C   UNL     1       1.300   4.324  20.682  0.00  0.00    +0.000 C 
ATOM      6  C   UNL     1       2.122   5.113  19.729  0.00  0.00    +0.000 A 
ATOM      7  C   UNL     1       2.248   6.491  19.570  0.00  0.00    +0.000 A 
ATOM      8  O   UNL     1       3.130   6.750  18.533  0.00  0.00    +0.000 OA
ATOM      9  C   UNL     1       3.571   5.542  18.037  0.00  0.00    +0.000 A 
ATOM     10  C   UNL     1       2.965   4.515  18.751  0.00  0.00    +0.000 A 
ATOM     11  C   UNL     1       3.252   3.180  18.423  0.00  0.00    +0.000 A 
ATOM     12  C   UNL     1       4.136   2.901  17.385  0.00  0.00    +0.000 A 
ATOM     13  C   UNL     1       4.745   3.930  16.663  0.00  0.00    +0.000 A 
ATOM     14  C   UNL     1       5.625   3.608  15.625  0.00  0.00    +0.000 A 
ATOM     15  C   UNL     1       6.255   4.612  14.891  0.00  0.00    +0.000 A 
ATOM     16  C   UNL     1       6.013   5.951  15.192  0.00  0.00    +0.000 A 
ATOM     17  C   UNL     1       5.134   6.304  16.225  0.00  0.00    +0.000 A 
ATOM     18  C   UNL     1       4.486   5.297  16.973  0.00  0.00    +0.000 A 
ENDBRANCH   1   7
BRANCH   3  19
ATOM     19  C   UNL     1       0.892   9.984  19.953  0.00  0.00    +0.000 A 
ATOM     20  C   UNL     1       0.707  10.385  21.280  0.00  0.00    +0.000 A 
ATOM     21  C   UNL     1      -0.016  11.549  21.580  0.00  0.00    +0.000 A 
ATOM     22  C   UNL     1      -0.597  12.297  20.561  0.00  0.00    +0.000 A 
ATOM     23  C   UNL     1      -0.429  11.910  19.226  0.00  0.00    +0.000 A 
ATOM     24  C   UNL     1       0.371  10.789  18.932  0.00  0.00    +0.000 A 
BRANCH  23  25
ATOM     25  C   UNL     1      -1.209  12.590  18.131  0.00  0.00    +0.000 C 
BRANCH  25  26
ATOM     26  N   UNL     1      -2.319  11.761  17.685  0.00  0.00    +0.000 N 
ATOM     27  C   UNL     1      -2.208  10.817  16.597  0.00  0.00    +0.000 C 
ATOM     28  C   UNL     1      -3.637  10.358  16.387  0.00  0.00    +0.000 C 
ATOM     29  C   UNL     1      -4.249  10.447  17.777  0.00  0.00    +0.000 C 
ATOM     30  C   UNL     1      -3.494  11.597  18.400  0.00  0.00    +0.000 C 
ATOM     31  O   UNL     1      -3.839  12.215  19.392  0.00  0.00    +0.000 OA
ENDBRANCH  25  26
ENDBRANCH  23  25
ENDBRANCH   3  19
TORSDOF 4
ENDMDL
MODEL 4
REMARK VINA RESULT:      -9.0      1.215      2.755
REMARK  Name = 
REMARK  5 active torsions:
REMARK  status: ('A' for Active; 'I' for Inactive)
REMARK    1  A    between atoms: C_1  and  C_2
REMARK    2  A    between atoms: C_3  and  C_4
REMARK    3  A    between atoms: N_6  and  C_7
REMARK    4  A    between atoms: C_11  and  C_12
REMARK    5  A    between atoms: C_12  and  N_13
REMARK                            x       y       z     vdW  Elec       q    Type
REMARK                         _______ _______ _______ _____ _____    ______ ____
ROOT
ATOM      1  C   UNL     1       1.424   9.726  18.153  0.00  0.00    +0.000 C 
ATOM      2  O   UNL     1       2.228  10.281  17.414  0.00  0.00    +0.000 OA
ATOM      3  N   UNL     1       1.521   8.395  18.543  0.00  0.00    +0.000 N 
ATOM      4  H   UNL     1       0.711   8.036  19.036  0.00  0.00    +0.000 HD
ENDROOT
BRANCH   1   7
ATOM      5  C   UNL     1      -1.634   9.903  16.894  0.00  0.00    +0.000 C 
ATOM      6  C   UNL     1      -1.061  10.490  18.133  0.00  0.00    +0.000 A 
ATOM      7  C   UNL     1       0.227  10.411  18.659  0.00  0.00    +0.000 A 
ATOM      8  O   UNL     1       0.276  11.117  19.850  0.00  0.00    +0.000 OA
ATOM      9  C   UNL     1      -0.974  11.651  20.080  0.00  0.00    +0.000 A 
ATOM     10  C   UNL     1      -1.819  11.279  19.042  0.00  0.00    +0.000 A 
ATOM     11  C   UNL     1      -3.160  11.700  19.055  0.00  0.00    +0.000 A 
ATOM     12  C   UNL     1      -3.625  12.479  20.110  0.00  0.00    +0.000 A 
ATOM     13  C   UNL     1      -2.779  12.853  21.156  0.00  0.00    +0.000 A 
ATOM     14  C   UNL     1      -3.287  13.635  22.199  0.00  0.00    +0.000 A 
ATOM     15  C   UNL     1      -2.467  14.031  23.254  0.00  0.00    +0.000 A 
ATOM     16  C   UNL     1      -1.126  13.651  23.274  0.00  0.00    +0.000 A 
ATOM     17  C   UNL     1      -0.590  12.865  22.245  0.00  0.00    +0.000 A 
ATOM     18  C   UNL     1      -1.412  12.453  21.173  0.00  0.00    +0.000 A 
ENDBRANCH   1   7
BRANCH   3  19
ATOM     19  C   UNL     1       2.499   7.453  18.140  0.00  0.00    +0.000 A 
ATOM     20  C   UNL     1       3.685   7.785  17.478  0.00  0.00    +0.000 A 
ATOM     21  C   UNL     1       4.561   6.783  17.035  0.00  0.00    +0.000 A 
ATOM     22  C   UNL     1       4.238   5.441  17.208  0.00  0.00    +0.000 A 
ATOM     23  C   UNL     1       3.052   5.086  17.862  0.00  0.00    +0.000 A 
ATOM     24  C   UNL     1       2.224   6.100  18.380  0.00  0.00    +0.000 A 
BRANCH  23  25
ATOM     25  C   UNL     1       2.594   3.650  17.885  0.00  0.00    +0.000 C 
BRANCH  25  26
ATOM     26  N   UNL     1       2.355   3.198  19.247  0.00  0.00    +0.000 N 
ATOM     27  C   UNL     1       3.302   3.397  20.320  0.00  0.00    +0.000 C 
ATOM     28  C   UNL     1       2.706   2.598  21.463  0.00  0.00    +0.000 C 
ATOM     29  C   UNL     1       1.207   2.688  21.218  0.00  0.00    +0.000 C 
ATOM     30  C   UNL     1       1.121   2.775  19.713  0.00  0.00    +0.000 C 
ATOM     31  O   UNL     1       0.119   2.570  19.049  0.00  0.00    +0.000 OA
ENDBRANCH  25  26
ENDBRANCH  23  25
ENDBRANCH   3  19
TORSDOF 4
ENDMDL
MODEL 5
REMARK VINA RESULT:      -9.0      3.185      5.045
REMARK  Name = 
REMARK  5 active torsions:
REMARK  status: ('A' for Active; 'I' for Inactive)
REMARK    1  A    between atoms: C_1  and  C_2
REMARK    2  A    between atoms: C_3  and  C_4
REMARK    3  A    between atoms: N_6  and  C_7
REMARK    4  A    between atoms: C_11  and  C_12
REMARK    5  A    between atoms: C_12  and  N_13
REMARK                            x       y       z     vdW  Elec       q    Type
REMARK                         _______ _______ _______ _____ _____    ______ ____
ROOT
ATOM      1  C   UNL     1       1.882   9.172  18.257  0.00  0.00    +0.000 C 
ATOM      2  O   UNL     1       2.188   8.735  17.154  0.00  0.00    +0.000 OA
ATOM      3  N   UNL     1       1.890   8.411  19.421  0.00  0.00    +0.000 N 
ATOM      4  H   UNL     1       1.476   8.863  20.228  0.00  0.00    +0.000 HD
ENDROOT
BRANCH   1   7
ATOM      5  C   UNL     1      -1.112  10.312  19.100  0.00  0.00    +0.000 C 
ATOM      6  C   UNL     1       0.151  11.035  18.801  0.00  0.00    +0.000 A 
ATOM      7  C   UNL     1       1.409  10.549  18.448  0.00  0.00    +0.000 A 
ATOM      8  O   UNL     1       2.278  11.616  18.282  0.00  0.00    +0.000 OA
ATOM      9  C   UNL     1       1.576  12.778  18.521  0.00  0.00    +0.000 A 
ATOM     10  C   UNL     1       0.265  12.452  18.846  0.00  0.00    +0.000 A 
ATOM     11  C   UNL     1      -0.651  13.476  19.141  0.00  0.00    +0.000 A 
ATOM     12  C   UNL     1      -0.232  14.803  19.109  0.00  0.00    +0.000 A 
ATOM     13  C   UNL     1       1.085  15.134  18.785  0.00  0.00    +0.000 A 
ATOM     14  C   UNL     1       1.466  16.480  18.766  0.00  0.00    +0.000 A 
ATOM     15  C   UNL     1       2.771  16.844  18.439  0.00  0.00    +0.000 A 
ATOM     16  C   UNL     1       3.710  15.863  18.123  0.00  0.00    +0.000 A 
ATOM     17  C   UNL     1       3.357  14.506  18.136  0.00  0.00    +0.000 A 
ATOM     18  C   UNL     1       2.040  14.124  18.471  0.00  0.00    +0.000 A 
ENDBRANCH   1   7
BRANCH   3  19
ATOM     19  C   UNL     1       2.196   7.033  19.542  0.00  0.00    +0.000 A 
ATOM     20  C   UNL     1       1.777   6.224  20.603  0.00  0.00    +0.000 A 
ATOM     21  C   UNL     1       2.196   4.889  20.694  0.00  0.00    +0.000 A 
ATOM     22  C   UNL     1       3.073   4.363  19.750  0.00  0.00    +0.000 A 
ATOM     23  C   UNL     1       3.511   5.157  18.683  0.00  0.00    +0.000 A 
ATOM     24  C   UNL     1       3.014   6.468  18.554  0.00  0.00    +0.000 A 
BRANCH  23  25
ATOM     25  C   UNL     1       4.606   4.669  17.769  0.00  0.00    +0.000 C 
BRANCH  25  26
ATOM     26  N   UNL     1       5.784   5.518  17.864  0.00  0.00    +0.000 N 
ATOM     27  C   UNL     1       6.846   5.287  18.817  0.00  0.00    +0.000 C 
ATOM     28  C   UNL     1       7.722   6.515  18.667  0.00  0.00    +0.000 C 
ATOM     29  C   UNL     1       7.549   6.901  17.205  0.00  0.00    +0.000 C 
ATOM     30  C   UNL     1       6.137   6.457  16.909  0.00  0.00    +0.000 C 
ATOM     31  O   UNL     1       5.466   6.821  15.958  0.00  0.00    +0.000 OA
ENDBRANCH  25  26
ENDBRANCH  23  25
ENDBRANCH   3  19
TORSDOF 4
ENDMDL
MODEL 6
REMARK VINA RESULT:      -8.9      2.296      9.246
REMARK  Name = 
REMARK  5 active torsions:
REMARK  status: ('A' for Active; 'I' for Inactive)
REMARK    1  A    between atoms: C_1  and  C_2
REMARK    2  A    between atoms: C_3  and  C_4
REMARK    3  A    between atoms: N_6  and  C_7
REMARK    4  A    between atoms: C_11  and  C_12
REMARK    5  A    between atoms: C_12  and  N_13
REMARK                            x       y       z     vdW  Elec       q    Type
REMARK                         _______ _______ _______ _____ _____    ______ ____
ROOT
ATOM      1  C   UNL     1       1.848   8.397  19.520  0.00  0.00    +0.000 C 
ATOM      2  O   UNL     1       1.505   8.562  20.685  0.00  0.00    +0.000 OA
ATOM      3  N   UNL     1       1.664   9.344  18.518  0.00  0.00    +0.000 N 
ATOM      4  H   UNL     1       1.863   9.014  17.580  0.00  0.00    +0.000 HD
ENDROOT
BRANCH   1   7
ATOM      5  C   UNL     1       1.469   5.303  20.639  0.00  0.00    +0.000 C 
ATOM      6  C   UNL     1       2.286   5.834  19.517  0.00  0.00    +0.000 A 
ATOM      7  C   UNL     1       2.440   7.138  19.050  0.00  0.00    +0.000 A 
ATOM      8  O   UNL     1       3.303   7.133  17.965  0.00  0.00    +0.000 OA
ATOM      9  C   UNL     1       3.703   5.832  17.746  0.00  0.00    +0.000 A 
ATOM     10  C   UNL     1       3.091   5.010  18.684  0.00  0.00    +0.000 A 
ATOM     11  C   UNL     1       3.339   3.627  18.660  0.00  0.00    +0.000 A 
ATOM     12  C   UNL     1       4.191   3.098  17.695  0.00  0.00    +0.000 A 
ATOM     13  C   UNL     1       4.807   3.921  16.749  0.00  0.00    +0.000 A 
ATOM     14  C   UNL     1       5.654   3.350  15.794  0.00  0.00    +0.000 A 
ATOM     15  C   UNL     1       6.289   4.145  14.842  0.00  0.00    +0.000 A 
ATOM     16  C   UNL     1       6.086   5.524  14.839  0.00  0.00    +0.000 A 
ATOM     17  C   UNL     1       5.240   6.124  15.781  0.00  0.00    +0.000 A 
ATOM     18  C   UNL     1       4.586   5.329  16.748  0.00  0.00    +0.000 A 
ENDBRANCH   1   7
BRANCH   3  19
ATOM     19  C   UNL     1       1.030  10.606  18.636  0.00  0.00    +0.000 A 
ATOM     20  C   UNL     1       1.700  11.831  18.568  0.00  0.00    +0.000 A 
ATOM     21  C   UNL     1       1.013  13.035  18.783  0.00  0.00    +0.000 A 
ATOM     22  C   UNL     1      -0.339  13.022  19.112  0.00  0.00    +0.000 A 
ATOM     23  C   UNL     1      -1.028  11.806  19.192  0.00  0.00    +0.000 A 
ATOM     24  C   UNL     1      -0.348  10.610  18.888  0.00  0.00    +0.000 A 
BRANCH  23  25
ATOM     25  C   UNL     1      -2.433  11.760  19.735  0.00  0.00    +0.000 C 
BRANCH  25  26
ATOM     26  N   UNL     1      -3.410  11.720  18.657  0.00  0.00    +0.000 N 
ATOM     27  C   UNL     1      -3.154  11.081  17.386  0.00  0.00    +0.000 C 
ATOM     28  C   UNL     1      -4.359  11.469  16.552  0.00  0.00    +0.000 C 
ATOM     29  C   UNL     1      -5.478  11.591  17.576  0.00  0.00    +0.000 C 
ATOM     30  C   UNL     1      -4.746  12.048  18.815  0.00  0.00    +0.000 C 
ATOM     31  O   UNL     1      -5.264  12.552  19.797  0.00  0.00    +0.000 OA
ENDBRANCH  25  26
ENDBRANCH  23  25
ENDBRANCH   3  19
TORSDOF 4
ENDMDL
MODEL 7
REMARK VINA RESULT:      -8.9      2.272      9.103
REMARK  Name = 
REMARK  5 active torsions:
REMARK  status: ('A' for Active; 'I' for Inactive)
REMARK    1  A    between atoms: C_1  and  C_2
REMARK    2  A    between atoms: C_3  and  C_4
REMARK    3  A    between atoms: N_6  and  C_7
REMARK    4  A    between atoms: C_11  and  C_12
REMARK    5  A    between atoms: C_12  and  N_13
REMARK                            x       y       z     vdW  Elec       q    Type
REMARK                         _______ _______ _______ _____ _____    ______ ____
ROOT
ATOM      1  C   UNL     1       1.679   8.038  19.962  0.00  0.00    +0.000 C 
ATOM      2  O   UNL     1       1.350   8.076  21.142  0.00  0.00    +0.000 OA
ATOM      3  N   UNL     1       1.435   9.065  19.057  0.00  0.00    +0.000 N 
ATOM      4  H   UNL     1       1.632   8.835  18.089  0.00  0.00    +0.000 HD
ENDROOT
BRANCH   1   7
ATOM      5  C   UNL     1       1.429   4.833  20.760  0.00  0.00    +0.000 C 
ATOM      6  C   UNL     1       2.221   5.508  19.700  0.00  0.00    +0.000 A 
ATOM      7  C   UNL     1       2.321   6.858  19.368  0.00  0.00    +0.000 A 
ATOM      8  O   UNL     1       3.180   6.998  18.289  0.00  0.00    +0.000 OA
ATOM      9  C   UNL     1       3.632   5.744  17.939  0.00  0.00    +0.000 A 
ATOM     10  C   UNL     1       3.056   4.806  18.788  0.00  0.00    +0.000 A 
ATOM     11  C   UNL     1       3.360   3.444  18.623  0.00  0.00    +0.000 A 
ATOM     12  C   UNL     1       4.230   3.051  17.611  0.00  0.00    +0.000 A 
ATOM     13  C   UNL     1       4.809   3.990  16.755  0.00  0.00    +0.000 A 
ATOM     14  C   UNL     1       5.676   3.554  15.748  0.00  0.00    +0.000 A 
ATOM     15  C   UNL     1       6.276   4.467  14.882  0.00  0.00    +0.000 A 
ATOM     16  C   UNL     1       6.017   5.830  15.019  0.00  0.00    +0.000 A 
ATOM     17  C   UNL     1       5.150   6.296  16.016  0.00  0.00    +0.000 A 
ATOM     18  C   UNL     1       4.532   5.381  16.896  0.00  0.00    +0.000 A 
ENDBRANCH   1   7
BRANCH   3  19
ATOM     19  C   UNL     1       0.746  10.278  19.303  0.00  0.00    +0.000 A 
ATOM     20  C   UNL     1       1.252  11.326  20.078  0.00  0.00    +0.000 A 
ATOM     21  C   UNL     1       0.470  12.460  20.346  0.00  0.00    +0.000 A 
ATOM     22  C   UNL     1      -0.838  12.536  19.880  0.00  0.00    +0.000 A 
ATOM     23  C   UNL     1      -1.367  11.495  19.106  0.00  0.00    +0.000 A 
ATOM     24  C   UNL     1      -0.544  10.403  18.771  0.00  0.00    +0.000 A 
BRANCH  23  25
ATOM     25  C   UNL     1      -2.834  11.472  18.761  0.00  0.00    +0.000 C 
BRANCH  25  26
ATOM     26  N   UNL     1      -3.039  11.083  17.373  0.00  0.00    +0.000 N 
ATOM     27  C   UNL     1      -2.232  10.086  16.708  0.00  0.00    +0.000 C 
ATOM     28  C   UNL     1      -2.686  10.176  15.264  0.00  0.00    +0.000 C 
ATOM     29  C   UNL     1      -4.146  10.591  15.375  0.00  0.00    +0.000 C 
ATOM     30  C   UNL     1      -4.161  11.421  16.636  0.00  0.00    +0.000 C 
ATOM     31  O   UNL     1      -5.044  12.197  16.961  0.00  0.00    +0.000 OA
ENDBRANCH  25  26
ENDBRANCH  23  25
ENDBRANCH   3  19
TORSDOF 4
ENDMDL
MODEL 8
REMARK VINA RESULT:      -8.9      2.409      9.390
REMARK  Name = 
REMARK  5 active torsions:
REMARK  status: ('A' for Active; 'I' for Inactive)
REMARK    1  A    between atoms: C_1  and  C_2
REMARK    2  A    between atoms: C_3  and  C_4
REMARK    3  A    between atoms: N_6  and  C_7
REMARK    4  A    between atoms: C_11  and  C_12
REMARK    5  A    between atoms: C_12  and  N_13
REMARK                            x       y       z     vdW  Elec       q    Type
REMARK                         _______ _______ _______ _____ _____    ______ ____
ROOT
ATOM      1  C   UNL     1       1.494   9.605  18.392  0.00  0.00    +0.000 C 
ATOM      2  O   UNL     1       2.034  10.674  18.134  0.00  0.00    +0.000 OA
ATOM      3  N   UNL     1       0.144   9.473  18.697  0.00  0.00    +0.000 N 
ATOM      4  H   UNL     1      -0.130   8.555  19.029  0.00  0.00    +0.000 HD
ENDROOT
BRANCH   1   7
ATOM      5  C   UNL     1       1.598   7.304  20.773  0.00  0.00    +0.000 C 
ATOM      6  C   UNL     1       2.297   7.376  19.463  0.00  0.00    +0.000 A 
ATOM      7  C   UNL     1       2.248   8.346  18.464  0.00  0.00    +0.000 A 
ATOM      8  O   UNL     1       3.069   7.962  17.417  0.00  0.00    +0.000 OA
ATOM      9  C   UNL     1       3.646   6.755  17.749  0.00  0.00    +0.000 A 
ATOM     10  C   UNL     1       3.187   6.367  19.002  0.00  0.00    +0.000 A 
ATOM     11  C   UNL     1       3.631   5.156  19.558  0.00  0.00    +0.000 A 
ATOM     12  C   UNL     1       4.522   4.358  18.846  0.00  0.00    +0.000 A 
ATOM     13  C   UNL     1       4.984   4.743  17.585  0.00  0.00    +0.000 A 
ATOM     14  C   UNL     1       5.875   3.911  16.901  0.00  0.00    +0.000 A 
ATOM     15  C   UNL     1       6.361   4.271  15.645  0.00  0.00    +0.000 A 
ATOM     16  C   UNL     1       5.961   5.472  15.061  0.00  0.00    +0.000 A 
ATOM     17  C   UNL     1       5.065   6.324  15.722  0.00  0.00    +0.000 A 
ATOM     18  C   UNL     1       4.563   5.969  16.993  0.00  0.00    +0.000 A 
ENDBRANCH   1   7
BRANCH   3  19
ATOM     19  C   UNL     1      -0.815  10.510  18.809  0.00  0.00    +0.000 A 
ATOM     20  C   UNL     1      -0.923  11.366  19.910  0.00  0.00    +0.000 A 
ATOM     21  C   UNL     1      -1.956  12.311  19.983  0.00  0.00    +0.000 A 
ATOM     22  C   UNL     1      -2.916  12.380  18.979  0.00  0.00    +0.000 A 
ATOM     23  C   UNL     1      -2.832  11.528  17.870  0.00  0.00    +0.000 A 
ATOM     24  C   UNL     1      -1.741  10.644  17.766  0.00  0.00    +0.000 A 
BRANCH  23  25
ATOM     25  C   UNL     1      -3.963  11.454  16.877  0.00  0.00    +0.000 C 
BRANCH  25  26
ATOM     26  N   UNL     1      -5.247  11.347  17.554  0.00  0.00    +0.000 N 
ATOM     27  C   UNL     1      -5.540  10.322  18.529  0.00  0.00    +0.000 C 
ATOM     28  C   UNL     1      -7.022  10.502  18.789  0.00  0.00    +0.000 C 
ATOM     29  C   UNL     1      -7.243  11.993  18.584  0.00  0.00    +0.000 C 
ATOM     30  C   UNL     1      -6.212  12.341  17.536  0.00  0.00    +0.000 C 
ATOM     31  O   UNL     1      -6.210  13.351  16.853  0.00  0.00    +0.000 OA
ENDBRANCH  25  26
ENDBRANCH  23  25
ENDBRANCH   3  19
TORSDOF 4
ENDMDL
MODEL 9
REMARK VINA RESULT:      -8.9      1.506      2.978
REMARK  Name = 
REMARK  5 active torsions:
REMARK  status: ('A' for Active; 'I' for Inactive)
REMARK    1  A    between atoms: C_1  and  C_2
REMARK    2  A    between atoms: C_3  and  C_4
REMARK    3  A    between atoms: N_6  and  C_7
REMARK    4  A    between atoms: C_11  and  C_12
REMARK    5  A    between atoms: C_12  and  N_13
REMARK                            x       y       z     vdW  Elec       q    Type
REMARK                         _______ _______ _______ _____ _____    ______ ____
ROOT
ATOM      1  C   UNL     1       1.453   9.771  18.218  0.00  0.00    +0.000 C 
ATOM      2  O   UNL     1       2.288  10.331  17.517  0.00  0.00    +0.000 OA
ATOM      3  N   UNL     1       1.512   8.428  18.570  0.00  0.00    +0.000 N 
ATOM      4  H   UNL     1       0.682   8.072  19.030  0.00  0.00    +0.000 HD
ENDROOT
BRANCH   1   7
ATOM      5  C   UNL     1      -1.618   9.890  16.981  0.00  0.00    +0.000 C 
ATOM      6  C   UNL     1      -1.037  10.520  18.195  0.00  0.00    +0.000 A 
ATOM      7  C   UNL     1       0.256  10.466  18.711  0.00  0.00    +0.000 A 
ATOM      8  O   UNL     1       0.311  11.210  19.878  0.00  0.00    +0.000 OA
ATOM      9  C   UNL     1      -0.940  11.744  20.102  0.00  0.00    +0.000 A 
ATOM     10  C   UNL     1      -1.792  11.334  19.084  0.00  0.00    +0.000 A 
ATOM     11  C   UNL     1      -3.135  11.748  19.095  0.00  0.00    +0.000 A 
ATOM     12  C   UNL     1      -3.596  12.559  20.128  0.00  0.00    +0.000 A 
ATOM     13  C   UNL     1      -2.743  12.971  21.154  0.00  0.00    +0.000 A 
ATOM     14  C   UNL     1      -3.246  13.784  22.175  0.00  0.00    +0.000 A 
ATOM     15  C   UNL     1      -2.419  14.219  23.210  0.00  0.00    +0.000 A 
ATOM     16  C   UNL     1      -1.075  13.847  23.230  0.00  0.00    +0.000 A 
ATOM     17  C   UNL     1      -0.544  13.031  22.222  0.00  0.00    +0.000 A 
ATOM     18  C   UNL     1      -1.373  12.580  21.172  0.00  0.00    +0.000 A 
ENDBRANCH   1   7
BRANCH   3  19
ATOM     19  C   UNL     1       2.482   7.477  18.165  0.00  0.00    +0.000 A 
ATOM     20  C   UNL     1       3.635   7.791  17.439  0.00  0.00    +0.000 A 
ATOM     21  C   UNL     1       4.502   6.780  17.001  0.00  0.00    +0.000 A 
ATOM     22  C   UNL     1       4.201   5.443  17.245  0.00  0.00    +0.000 A 
ATOM     23  C   UNL     1       3.048   5.106  17.965  0.00  0.00    +0.000 A 
ATOM     24  C   UNL     1       2.232   6.134  18.474  0.00  0.00    +0.000 A 
BRANCH  23  25
ATOM     25  C   UNL     1       2.607   3.669  18.068  0.00  0.00    +0.000 C 
BRANCH  25  26
ATOM     26  N   UNL     1       2.418   3.277  19.456  0.00  0.00    +0.000 N 
ATOM     27  C   UNL     1       1.114   3.110  20.057  0.00  0.00    +0.000 C 
ATOM     28  C   UNL     1       1.431   2.901  21.525  0.00  0.00    +0.000 C 
ATOM     29  C   UNL     1       2.787   2.211  21.504  0.00  0.00    +0.000 C 
ATOM     30  C   UNL     1       3.430   2.780  20.261  0.00  0.00    +0.000 C 
ATOM     31  O   UNL     1       4.620   2.741  20.000  0.00  0.00    +0.000 OA
ENDBRANCH  25  26
ENDBRANCH  23  25
ENDBRANCH   3  19
TORSDOF 4
ENDMDL
