MODEL 1
REMARK VINA RESULT:      -6.5      0.000      0.000
REMARK  Name = 
REMARK  5 active torsions:
REMARK  status: ('A' for Active; 'I' for Inactive)
REMARK    1  A    between atoms: C_2  and  C_20
REMARK    2  A    between atoms: N_3  and  C_4
REMARK    3  A    between atoms: C_5  and  N_6
REMARK    4  A    between atoms: C_14  and  N_15
REMARK    5  A    between atoms: C_23  and  C_24
REMARK                            x       y       z     vdW  Elec       q    Type
REMARK                         _______ _______ _______ _____ _____    ______ ____
ROOT
ATOM      1  C   UNL     1      -4.104  12.431  19.583  0.00  0.00    +0.000 A 
ATOM      2  C   UNL     1      -4.848  12.766  20.748  0.00  0.00    +0.000 A 
ATOM      3  C   UNL     1      -6.101  12.142  20.899  0.00  0.00    +0.000 A 
ATOM      4  C   UNL     1      -6.610  11.265  19.945  0.00  0.00    +0.000 A 
ATOM      5  C   UNL     1      -5.866  10.963  18.808  0.00  0.00    +0.000 A 
ATOM      6  C   UNL     1      -4.596  11.522  18.591  0.00  0.00    +0.000 A 
ENDROOT
BRANCH   2   7
ATOM      7  N   UNL     1      -4.482  13.664  21.747  0.00  0.00    +0.000 N 
ATOM      8  C   UNL     1      -3.688  13.333  22.925  0.00  0.00    +0.000 C 
ATOM      9  C   UNL     1      -4.479  13.906  24.095  0.00  0.00    +0.000 C 
ATOM     10  C   UNL     1      -5.130  15.137  23.489  0.00  0.00    +0.000 C 
ATOM     11  C   UNL     1      -5.484  14.690  22.073  0.00  0.00    +0.000 C 
ENDBRANCH   2   7
BRANCH   6  12
ATOM     12  N   UNL     1      -3.797  11.096  17.529  0.00  0.00    +0.000 N 
ATOM     13  C   UNL     1      -3.036   9.852  17.655  0.00  0.00    +0.000 C 
ATOM     14  C   UNL     1      -2.170   9.913  16.408  0.00  0.00    +0.000 C 
ATOM     15  C   UNL     1      -3.124  10.462  15.351  0.00  0.00    +0.000 C 
ATOM     16  C   UNL     1      -4.204  11.233  16.131  0.00  0.00    +0.000 C 
ENDBRANCH   6  12
BRANCH   1  19
ATOM     17  O   UNL     1      -1.646  11.455  20.693  0.00  0.00    +0.000 OA
ATOM     18  C   UNL     1      -1.686  12.387  19.900  0.00  0.00    +0.000 C 
ATOM     19  N   UNL     1      -2.816  12.992  19.379  0.00  0.00    +0.000 N 
ATOM     20  H   UNL     1      -2.678  13.255  18.417  0.00  0.00    +0.000 HD
BRANCH  18  21
ATOM     21  C   UNL     1      -0.411  12.961  19.395  0.00  0.00    +0.000 A 
ATOM     22  C   UNL     1       0.678  12.147  19.090  0.00  0.00    +0.000 A 
ATOM     23  C   UNL     1       1.875  12.730  18.666  0.00  0.00    +0.000 A 
ATOM     24  C   UNL     1       1.958  14.121  18.563  0.00  0.00    +0.000 A 
ATOM     25  N   UNL     1       0.898  14.930  18.842  0.00  0.00    +0.000 NA
ATOM     26  C   UNL     1      -0.249  14.333  19.256  0.00  0.00    +0.000 A 
BRANCH  24  27
ATOM     27  C   UNL     1       3.266  14.765  18.151  0.00  0.00    +0.000 C 
ATOM     28  F   UNL     1       4.273  13.857  17.996  0.00  0.00    +0.000 F 
ATOM     29  F   UNL     1       3.177  15.419  16.956  0.00  0.00    +0.000 F 
ENDBRANCH  24  27
ENDBRANCH  18  21
ENDBRANCH   1  19
TORSDOF 5
ENDMDL
MODEL 2
REMARK VINA RESULT:      -6.4      7.745     10.916
REMARK  Name = 
REMARK  5 active torsions:
REMARK  status: ('A' for Active; 'I' for Inactive)
REMARK    1  A    between atoms: C_2  and  C_20
REMARK    2  A    between atoms: N_3  and  C_4
REMARK    3  A    between atoms: C_5  and  N_6
REMARK    4  A    between atoms: C_14  and  N_15
REMARK    5  A    between atoms: C_23  and  C_24
REMARK                            x       y       z     vdW  Elec       q    Type
REMARK                         _______ _______ _______ _____ _____    ______ ____
ROOT
ATOM      1  C   UNL     1       4.770   5.150  17.355  0.00  0.00    +0.000 A 
ATOM      2  C   UNL     1       4.154   3.960  16.880  0.00  0.00    +0.000 A 
ATOM      3  C   UNL     1       4.913   3.164  15.999  0.00  0.00    +0.000 A 
ATOM      4  C   UNL     1       6.189   3.533  15.583  0.00  0.00    +0.000 A 
ATOM      5  C   UNL     1       6.763   4.710  16.055  0.00  0.00    +0.000 A 
ATOM      6  C   UNL     1       6.087   5.549  16.956  0.00  0.00    +0.000 A 
ENDROOT
BRANCH   2   7
ATOM      7  N   UNL     1       2.871   3.505  17.172  0.00  0.00    +0.000 N 
ATOM      8  C   UNL     1       1.743   4.352  17.542  0.00  0.00    +0.000 C 
ATOM      9  C   UNL     1       1.172   3.704  18.798  0.00  0.00    +0.000 C 
ATOM     10  C   UNL     1       1.440   2.227  18.565  0.00  0.00    +0.000 C 
ATOM     11  C   UNL     1       2.804   2.217  17.880  0.00  0.00    +0.000 C 
ENDBRANCH   2   7
BRANCH   6  12
ATOM     12  N   UNL     1       6.730   6.641  17.539  0.00  0.00    +0.000 N 
ATOM     13  C   UNL     1       7.972   6.431  18.285  0.00  0.00    +0.000 C 
ATOM     14  C   UNL     1       8.170   7.801  18.911  0.00  0.00    +0.000 C 
ATOM     15  C   UNL     1       7.761   8.755  17.792  0.00  0.00    +0.000 C 
ATOM     16  C   UNL     1       6.813   7.947  16.887  0.00  0.00    +0.000 C 
ENDBRANCH   6  12
BRANCH   1  19
ATOM     17  O   UNL     1       3.342   7.552  16.707  0.00  0.00    +0.000 OA
ATOM     18  C   UNL     1       3.357   7.079  17.836  0.00  0.00    +0.000 C 
ATOM     19  N   UNL     1       4.082   5.985  18.275  0.00  0.00    +0.000 N 
ATOM     20  H   UNL     1       3.558   5.444  18.942  0.00  0.00    +0.000 HD
BRANCH  18  21
ATOM     21  C   UNL     1       2.508   7.696  18.889  0.00  0.00    +0.000 A 
ATOM     22  C   UNL     1       2.260   7.042  20.094  0.00  0.00    +0.000 A 
ATOM     23  C   UNL     1       1.415   7.634  21.037  0.00  0.00    +0.000 A 
ATOM     24  C   UNL     1       0.829   8.869  20.748  0.00  0.00    +0.000 A 
ATOM     25  N   UNL     1       1.074   9.528  19.582  0.00  0.00    +0.000 NA
ATOM     26  C   UNL     1       1.894   8.925  18.685  0.00  0.00    +0.000 A 
BRANCH  24  27
ATOM     27  C   UNL     1      -0.126   9.496  21.744  0.00  0.00    +0.000 C 
ATOM     28  F   UNL     1      -0.855   8.568  22.430  0.00  0.00    +0.000 F 
ATOM     29  F   UNL     1       0.516  10.233  22.697  0.00  0.00    +0.000 F 
ENDBRANCH  24  27
ENDBRANCH  18  21
ENDBRANCH   1  19
TORSDOF 5
ENDMDL
MODEL 3
REMARK VINA RESULT:      -6.3      0.735      1.123
REMARK  Name = 
REMARK  5 active torsions:
REMARK  status: ('A' for Active; 'I' for Inactive)
REMARK    1  A    between atoms: C_2  and  C_20
REMARK    2  A    between atoms: N_3  and  C_4
REMARK    3  A    between atoms: C_5  and  N_6
REMARK    4  A    between atoms: C_14  and  N_15
REMARK    5  A    between atoms: C_23  and  C_24
REMARK                            x       y       z     vdW  Elec       q    Type
REMARK                         _______ _______ _______ _____ _____    ______ ____
ROOT
ATOM      1  C   UNL     1      -4.049  12.440  19.543  0.00  0.00    +0.000 A 
ATOM      2  C   UNL     1      -4.779  12.794  20.711  0.00  0.00    +0.000 A 
ATOM      3  C   UNL     1      -6.048  12.202  20.866  0.00  0.00    +0.000 A 
ATOM      4  C   UNL     1      -6.582  11.339  19.914  0.00  0.00    +0.000 A 
ATOM      5  C   UNL     1      -5.851  11.019  18.774  0.00  0.00    +0.000 A 
ATOM      6  C   UNL     1      -4.567  11.544  18.552  0.00  0.00    +0.000 A 
ENDROOT
BRANCH   2   7
ATOM      7  N   UNL     1      -4.387  13.682  21.708  0.00  0.00    +0.000 N 
ATOM      8  C   UNL     1      -3.897  15.037  21.483  0.00  0.00    +0.000 C 
ATOM      9  C   UNL     1      -2.612  15.122  22.299  0.00  0.00    +0.000 C 
ATOM     10  C   UNL     1      -2.906  14.216  23.482  0.00  0.00    +0.000 C 
ATOM     11  C   UNL     1      -3.708  13.074  22.864  0.00  0.00    +0.000 C 
ENDBRANCH   2   7
BRANCH   6  12
ATOM     12  N   UNL     1      -3.784  11.098  17.487  0.00  0.00    +0.000 N 
ATOM     13  C   UNL     1      -3.092   9.812  17.592  0.00  0.00    +0.000 C 
ATOM     14  C   UNL     1      -2.213   9.853  16.353  0.00  0.00    +0.000 C 
ATOM     15  C   UNL     1      -3.127  10.475  15.302  0.00  0.00    +0.000 C 
ATOM     16  C   UNL     1      -4.171  11.287  16.090  0.00  0.00    +0.000 C 
ENDBRANCH   6  12
BRANCH   1  19
ATOM     17  O   UNL     1      -1.611  11.392  20.631  0.00  0.00    +0.000 OA
ATOM     18  C   UNL     1      -1.631  12.330  19.844  0.00  0.00    +0.000 C 
ATOM     19  N   UNL     1      -2.747  12.968  19.334  0.00  0.00    +0.000 N 
ATOM     20  H   UNL     1      -2.609  13.234  18.374  0.00  0.00    +0.000 HD
BRANCH  18  21
ATOM     21  C   UNL     1      -0.345  12.873  19.335  0.00  0.00    +0.000 A 
ATOM     22  C   UNL     1       0.708  12.030  18.984  0.00  0.00    +0.000 A 
ATOM     23  C   UNL     1       1.918  12.582  18.557  0.00  0.00    +0.000 A 
ATOM     24  C   UNL     1       2.052  13.972  18.498  0.00  0.00    +0.000 A 
ATOM     25  N   UNL     1       1.027  14.809  18.823  0.00  0.00    +0.000 NA
ATOM     26  C   UNL     1      -0.134  14.242  19.238  0.00  0.00    +0.000 A 
BRANCH  24  27
ATOM     27  C   UNL     1       3.376  14.581  18.083  0.00  0.00    +0.000 C 
ATOM     28  F   UNL     1       3.253  15.434  17.024  0.00  0.00    +0.000 F 
ATOM     29  F   UNL     1       3.953  15.315  19.078  0.00  0.00    +0.000 F 
ENDBRANCH  24  27
ENDBRANCH  18  21
ENDBRANCH   1  19
TORSDOF 5
ENDMDL
MODEL 4
REMARK VINA RESULT:      -6.3      0.716      1.133
REMARK  Name = 
REMARK  5 active torsions:
REMARK  status: ('A' for Active; 'I' for Inactive)
REMARK    1  A    between atoms: C_2  and  C_20
REMARK    2  A    between atoms: N_3  and  C_4
REMARK    3  A    between atoms: C_5  and  N_6
REMARK    4  A    between atoms: C_14  and  N_15
REMARK    5  A    between atoms: C_23  and  C_24
REMARK                            x       y       z     vdW  Elec       q    Type
REMARK                         _______ _______ _______ _____ _____    ______ ____
ROOT
ATOM      1  C   UNL     1      -4.267  12.305  19.420  0.00  0.00    +0.000 A 
ATOM      2  C   UNL     1      -5.108  12.639  20.517  0.00  0.00    +0.000 A 
ATOM      3  C   UNL     1      -6.355  11.989  20.579  0.00  0.00    +0.000 A 
ATOM      4  C   UNL     1      -6.768  11.087  19.602  0.00  0.00    +0.000 A 
ATOM      5  C   UNL     1      -5.930  10.787  18.531  0.00  0.00    +0.000 A 
ATOM      6  C   UNL     1      -4.659  11.371  18.406  0.00  0.00    +0.000 A 
ENDROOT
BRANCH   2   7
ATOM      7  N   UNL     1      -4.841  13.559  21.527  0.00  0.00    +0.000 N 
ATOM      8  C   UNL     1      -4.263  13.237  22.827  0.00  0.00    +0.000 C 
ATOM      9  C   UNL     1      -5.186  13.910  23.836  0.00  0.00    +0.000 C 
ATOM     10  C   UNL     1      -5.652  15.148  23.090  0.00  0.00    +0.000 C 
ATOM     11  C   UNL     1      -5.812  14.658  21.654  0.00  0.00    +0.000 C 
ENDBRANCH   2   7
BRANCH   6  12
ATOM     12  N   UNL     1      -3.770  10.948  17.417  0.00  0.00    +0.000 N 
ATOM     13  C   UNL     1      -3.018   9.707  17.608  0.00  0.00    +0.000 C 
ATOM     14  C   UNL     1      -2.047   9.772  16.441  0.00  0.00    +0.000 C 
ATOM     15  C   UNL     1      -2.908  10.319  15.306  0.00  0.00    +0.000 C 
ATOM     16  C   UNL     1      -4.055  11.085  15.990  0.00  0.00    +0.000 C 
ENDBRANCH   6  12
BRANCH   1  19
ATOM     17  O   UNL     1      -1.921  11.508  20.865  0.00  0.00    +0.000 OA
ATOM     18  C   UNL     1      -1.899  12.371  19.997  0.00  0.00    +0.000 C 
ATOM     19  N   UNL     1      -2.979  12.893  19.309  0.00  0.00    +0.000 N 
ATOM     20  H   UNL     1      -2.744  13.082  18.349  0.00  0.00    +0.000 HD
BRANCH  18  21
ATOM     21  C   UNL     1      -0.591  12.947  19.585  0.00  0.00    +0.000 A 
ATOM     22  C   UNL     1      -0.463  14.299  19.272  0.00  0.00    +0.000 A 
ATOM     23  C   UNL     1       0.771  14.791  18.840  0.00  0.00    +0.000 A 
ATOM     24  C   UNL     1       1.853  13.914  18.723  0.00  0.00    +0.000 A 
ATOM     25  N   UNL     1       1.748  12.593  19.040  0.00  0.00    +0.000 NA
ATOM     26  C   UNL     1       0.535  12.145  19.452  0.00  0.00    +0.000 A 
BRANCH  24  27
ATOM     27  C   UNL     1       3.183  14.428  18.210  0.00  0.00    +0.000 C 
ATOM     28  F   UNL     1       3.046  15.258  17.135  0.00  0.00    +0.000 F 
ATOM     29  F   UNL     1       3.864  15.152  19.146  0.00  0.00    +0.000 F 
ENDBRANCH  24  27
ENDBRANCH  18  21
ENDBRANCH   1  19
TORSDOF 5
ENDMDL
MODEL 5
REMARK VINA RESULT:      -6.3      0.931      1.021
REMARK  Name = 
REMARK  5 active torsions:
REMARK  status: ('A' for Active; 'I' for Inactive)
REMARK    1  A    between atoms: C_2  and  C_20
REMARK    2  A    between atoms: N_3  and  C_4
REMARK    3  A    between atoms: C_5  and  N_6
REMARK    4  A    between atoms: C_14  and  N_15
REMARK    5  A    between atoms: C_23  and  C_24
REMARK                            x       y       z     vdW  Elec       q    Type
REMARK                         _______ _______ _______ _____ _____    ______ ____
ROOT
ATOM      1  C   UNL     1      -4.646  12.315  19.547  0.00  0.00    +0.000 A 
ATOM      2  C   UNL     1      -5.520  12.563  20.641  0.00  0.00    +0.000 A 
ATOM      3  C   UNL     1      -6.682  11.770  20.715  0.00  0.00    +0.000 A 
ATOM      4  C   UNL     1      -6.984  10.812  19.752  0.00  0.00    +0.000 A 
ATOM      5  C   UNL     1      -6.117  10.598  18.684  0.00  0.00    +0.000 A 
ATOM      6  C   UNL     1      -4.924  11.327  18.548  0.00  0.00    +0.000 A 
ENDROOT
BRANCH   2   7
ATOM      7  N   UNL     1      -5.365  13.523  21.638  0.00  0.00    +0.000 N 
ATOM      8  C   UNL     1      -5.185  13.239  23.057  0.00  0.00    +0.000 C 
ATOM      9  C   UNL     1      -6.205  14.128  23.759  0.00  0.00    +0.000 C 
ATOM     10  C   UNL     1      -6.266  15.347  22.856  0.00  0.00    +0.000 C 
ATOM     11  C   UNL     1      -6.145  14.757  21.454  0.00  0.00    +0.000 C 
ENDBRANCH   2   7
BRANCH   6  12
ATOM     12  N   UNL     1      -3.992  10.998  17.564  0.00  0.00    +0.000 N 
ATOM     13  C   UNL     1      -3.208   9.769  17.696  0.00  0.00    +0.000 C 
ATOM     14  C   UNL     1      -2.203   9.942  16.570  0.00  0.00    +0.000 C 
ATOM     15  C   UNL     1      -3.043  10.540  15.445  0.00  0.00    +0.000 C 
ATOM     16  C   UNL     1      -4.235  11.225  16.140  0.00  0.00    +0.000 C 
ENDBRANCH   6  12
BRANCH   1  19
ATOM     17  O   UNL     1      -2.177  11.732  20.886  0.00  0.00    +0.000 OA
ATOM     18  C   UNL     1      -2.282  12.628  20.058  0.00  0.00    +0.000 C 
ATOM     19  N   UNL     1      -3.437  13.050  19.425  0.00  0.00    +0.000 N 
ATOM     20  H   UNL     1      -3.257  13.305  18.469  0.00  0.00    +0.000 HD
BRANCH  18  21
ATOM     21  C   UNL     1      -1.063  13.366  19.635  0.00  0.00    +0.000 A 
ATOM     22  C   UNL     1      -0.090  12.760  18.842  0.00  0.00    +0.000 A 
ATOM     23  C   UNL     1       1.066  13.471  18.509  0.00  0.00    +0.000 A 
ATOM     24  C   UNL     1       1.226  14.776  18.983  0.00  0.00    +0.000 A 
ATOM     25  N   UNL     1       0.277  15.387  19.745  0.00  0.00    +0.000 NA
ATOM     26  C   UNL     1      -0.831  14.669  20.056  0.00  0.00    +0.000 A 
BRANCH  24  27
ATOM     27  C   UNL     1       2.497  15.538  18.666  0.00  0.00    +0.000 C 
ATOM     28  F   UNL     1       3.052  15.163  17.477  0.00  0.00    +0.000 F 
ATOM     29  F   UNL     1       2.292  16.884  18.565  0.00  0.00    +0.000 F 
ENDBRANCH  24  27
ENDBRANCH  18  21
ENDBRANCH   1  19
TORSDOF 5
ENDMDL
MODEL 6
REMARK VINA RESULT:      -6.3      0.762      1.248
REMARK  Name = 
REMARK  5 active torsions:
REMARK  status: ('A' for Active; 'I' for Inactive)
REMARK    1  A    between atoms: C_2  and  C_20
REMARK    2  A    between atoms: N_3  and  C_4
REMARK    3  A    between atoms: C_5  and  N_6
REMARK    4  A    between atoms: C_14  and  N_15
REMARK    5  A    between atoms: C_23  and  C_24
REMARK                            x       y       z     vdW  Elec       q    Type
REMARK                         _______ _______ _______ _____ _____    ______ ____
ROOT
ATOM      1  C   UNL     1      -4.276  12.428  19.646  0.00  0.00    +0.000 A 
ATOM      2  C   UNL     1      -5.120  12.739  20.748  0.00  0.00    +0.000 A 
ATOM      3  C   UNL     1      -6.361  12.075  20.801  0.00  0.00    +0.000 A 
ATOM      4  C   UNL     1      -6.764  11.184  19.811  0.00  0.00    +0.000 A 
ATOM      5  C   UNL     1      -5.923  10.907  18.737  0.00  0.00    +0.000 A 
ATOM      6  C   UNL     1      -4.658  11.505  18.620  0.00  0.00    +0.000 A 
ENDROOT
BRANCH   2   7
ATOM      7  N   UNL     1      -4.862  13.647  21.771  0.00  0.00    +0.000 N 
ATOM      8  C   UNL     1      -4.399  15.017  21.583  0.00  0.00    +0.000 C 
ATOM      9  C   UNL     1      -3.209  15.153  22.526  0.00  0.00    +0.000 C 
ATOM     10  C   UNL     1      -3.590  14.245  23.681  0.00  0.00    +0.000 C 
ATOM     11  C   UNL     1      -4.285  13.072  22.996  0.00  0.00    +0.000 C 
ENDBRANCH   2   7
BRANCH   6  12
ATOM     12  N   UNL     1      -3.765  11.105  17.625  0.00  0.00    +0.000 N 
ATOM     13  C   UNL     1      -3.036   9.845  17.776  0.00  0.00    +0.000 C 
ATOM     14  C   UNL     1      -2.051   9.938  16.623  0.00  0.00    +0.000 C 
ATOM     15  C   UNL     1      -2.890  10.542  15.501  0.00  0.00    +0.000 C 
ATOM     16  C   UNL     1      -4.031  11.301  16.201  0.00  0.00    +0.000 C 
ENDBRANCH   6  12
BRANCH   1  19
ATOM     17  O   UNL     1      -1.889  11.546  20.971  0.00  0.00    +0.000 OA
ATOM     18  C   UNL     1      -1.893  12.469  20.166  0.00  0.00    +0.000 C 
ATOM     19  N   UNL     1      -2.994  13.030  19.544  0.00  0.00    +0.000 N 
ATOM     20  H   UNL     1      -2.784  13.288  18.594  0.00  0.00    +0.000 HD
BRANCH  18  21
ATOM     21  C   UNL     1      -0.600  13.080  19.762  0.00  0.00    +0.000 A 
ATOM     22  C   UNL     1      -0.545  14.361  19.216  0.00  0.00    +0.000 A 
ATOM     23  C   UNL     1       0.685  14.880  18.802  0.00  0.00    +0.000 A 
ATOM     24  C   UNL     1       1.836  14.099  18.937  0.00  0.00    +0.000 A 
ATOM     25  N   UNL     1       1.801  12.851  19.482  0.00  0.00    +0.000 NA
ATOM     26  C   UNL     1       0.591  12.374  19.870  0.00  0.00    +0.000 A 
BRANCH  24  27
ATOM     27  C   UNL     1       3.166  14.634  18.447  0.00  0.00    +0.000 C 
ATOM     28  F   UNL     1       3.987  13.650  17.975  0.00  0.00    +0.000 F 
ATOM     29  F   UNL     1       3.031  15.520  17.418  0.00  0.00    +0.000 F 
ENDBRANCH  24  27
ENDBRANCH  18  21
ENDBRANCH   1  19
TORSDOF 5
ENDMDL
MODEL 7
REMARK VINA RESULT:      -6.1      0.727      4.567
REMARK  Name = 
REMARK  5 active torsions:
REMARK  status: ('A' for Active; 'I' for Inactive)
REMARK    1  A    between atoms: C_2  and  C_20
REMARK    2  A    between atoms: N_3  and  C_4
REMARK    3  A    between atoms: C_5  and  N_6
REMARK    4  A    between atoms: C_14  and  N_15
REMARK    5  A    between atoms: C_23  and  C_24
REMARK                            x       y       z     vdW  Elec       q    Type
REMARK                         _______ _______ _______ _____ _____    ______ ____
ROOT
ATOM      1  C   UNL     1      -4.445  12.238  19.414  0.00  0.00    +0.000 A 
ATOM      2  C   UNL     1      -4.942  11.196  18.583  0.00  0.00    +0.000 A 
ATOM      3  C   UNL     1      -6.253  10.751  18.844  0.00  0.00    +0.000 A 
ATOM      4  C   UNL     1      -7.018  11.275  19.882  0.00  0.00    +0.000 A 
ATOM      5  C   UNL     1      -6.502  12.286  20.688  0.00  0.00    +0.000 A 
ATOM      6  C   UNL     1      -5.214  12.805  20.481  0.00  0.00    +0.000 A 
ENDROOT
BRANCH   2   7
ATOM      7  N   UNL     1      -4.266  10.551  17.552  0.00  0.00    +0.000 N 
ATOM      8  C   UNL     1      -3.140   9.639  17.726  0.00  0.00    +0.000 C 
ATOM      9  C   UNL     1      -2.082  10.145  16.752  0.00  0.00    +0.000 C 
ATOM     10  C   UNL     1      -2.916  10.695  15.608  0.00  0.00    +0.000 C 
ATOM     11  C   UNL     1      -4.112  11.329  16.313  0.00  0.00    +0.000 C 
ENDBRANCH   2   7
BRANCH   6  12
ATOM     12  N   UNL     1      -4.767  13.919  21.194  0.00  0.00    +0.000 N 
ATOM     13  C   UNL     1      -5.292  15.244  20.860  0.00  0.00    +0.000 C 
ATOM     14  C   UNL     1      -4.386  16.135  21.693  0.00  0.00    +0.000 C 
ATOM     15  C   UNL     1      -4.240  15.356  22.998  0.00  0.00    +0.000 C 
ATOM     16  C   UNL     1      -4.515  13.885  22.633  0.00  0.00    +0.000 C 
ENDBRANCH   6  12
BRANCH   1  19
ATOM     17  O   UNL     1      -2.112  11.701  20.995  0.00  0.00    +0.000 OA
ATOM     18  C   UNL     1      -2.074  12.370  19.970  0.00  0.00    +0.000 C 
ATOM     19  N   UNL     1      -3.145  12.764  19.189  0.00  0.00    +0.000 N 
ATOM     20  H   UNL     1      -2.908  12.751  18.211  0.00  0.00    +0.000 HD
BRANCH  18  21
ATOM     21  C   UNL     1      -0.756  12.824  19.453  0.00  0.00    +0.000 A 
ATOM     22  C   UNL     1       0.239  11.911  19.109  0.00  0.00    +0.000 A 
ATOM     23  C   UNL     1       1.482  12.380  18.675  0.00  0.00    +0.000 A 
ATOM     24  C   UNL     1       1.705  13.757  18.602  0.00  0.00    +0.000 A 
ATOM     25  N   UNL     1       0.737  14.662  18.920  0.00  0.00    +0.000 NA
ATOM     26  C   UNL     1      -0.457  14.176  19.342  0.00  0.00    +0.000 A 
BRANCH  24  27
ATOM     27  C   UNL     1       3.064  14.275  18.178  0.00  0.00    +0.000 C 
ATOM     28  F   UNL     1       2.981  15.302  17.283  0.00  0.00    +0.000 F 
ATOM     29  F   UNL     1       3.792  14.762  19.225  0.00  0.00    +0.000 F 
ENDBRANCH  24  27
ENDBRANCH  18  21
ENDBRANCH   1  19
TORSDOF 5
ENDMDL
MODEL 8
REMARK VINA RESULT:      -6.1      8.763     10.484
REMARK  Name = 
REMARK  5 active torsions:
REMARK  status: ('A' for Active; 'I' for Inactive)
REMARK    1  A    between atoms: C_2  and  C_20
REMARK    2  A    between atoms: N_3  and  C_4
REMARK    3  A    between atoms: C_5  and  N_6
REMARK    4  A    between atoms: C_14  and  N_15
REMARK    5  A    between atoms: C_23  and  C_24
REMARK                            x       y       z     vdW  Elec       q    Type
REMARK                         _______ _______ _______ _____ _____    ______ ____
ROOT
ATOM      1  C   UNL     1       2.797   5.491  19.107  0.00  0.00    +0.000 A 
ATOM      2  C   UNL     1       2.220   6.669  19.655  0.00  0.00    +0.000 A 
ATOM      3  C   UNL     1       1.454   6.511  20.827  0.00  0.00    +0.000 A 
ATOM      4  C   UNL     1       1.239   5.265  21.407  0.00  0.00    +0.000 A 
ATOM      5  C   UNL     1       1.807   4.126  20.842  0.00  0.00    +0.000 A 
ATOM      6  C   UNL     1       2.605   4.196  19.689  0.00  0.00    +0.000 A 
ENDROOT
BRANCH   2   7
ATOM      7  N   UNL     1       2.310   7.962  19.147  0.00  0.00    +0.000 N 
ATOM      8  C   UNL     1       1.763   9.156  19.783  0.00  0.00    +0.000 C 
ATOM      9  C   UNL     1       0.978   9.854  18.679  0.00  0.00    +0.000 C 
ATOM     10  C   UNL     1       1.775   9.510  17.433  0.00  0.00    +0.000 C 
ATOM     11  C   UNL     1       2.223   8.073  17.683  0.00  0.00    +0.000 C 
ENDBRANCH   2   7
BRANCH   6  12
ATOM     12  N   UNL     1       3.292   3.075  19.223  0.00  0.00    +0.000 N 
ATOM     13  C   UNL     1       4.010   2.224  20.173  0.00  0.00    +0.000 C 
ATOM     14  C   UNL     1       4.768   1.307  19.229  0.00  0.00    +0.000 C 
ATOM     15  C   UNL     1       3.751   1.030  18.126  0.00  0.00    +0.000 C 
ATOM     16  C   UNL     1       2.773   2.219  18.158  0.00  0.00    +0.000 C 
ENDBRANCH   6  12
BRANCH   1  19
ATOM     17  O   UNL     1       5.664   5.396  19.052  0.00  0.00    +0.000 OA
ATOM     18  C   UNL     1       4.986   5.435  18.033  0.00  0.00    +0.000 C 
ATOM     19  N   UNL     1       3.613   5.575  17.948  0.00  0.00    +0.000 N 
ATOM     20  H   UNL     1       3.236   5.026  17.193  0.00  0.00    +0.000 HD
BRANCH  18  21
ATOM     21  C   UNL     1       5.659   5.307  16.713  0.00  0.00    +0.000 A 
ATOM     22  C   UNL     1       5.078   4.586  15.673  0.00  0.00    +0.000 A 
ATOM     23  C   UNL     1       5.766   4.447  14.464  0.00  0.00    +0.000 A 
ATOM     24  C   UNL     1       7.029   5.029  14.327  0.00  0.00    +0.000 A 
ATOM     25  N   UNL     1       7.604   5.750  15.329  0.00  0.00    +0.000 NA
ATOM     26  C   UNL     1       6.913   5.863  16.492  0.00  0.00    +0.000 A 
BRANCH  24  27
ATOM     27  C   UNL     1       7.803   4.843  13.038  0.00  0.00    +0.000 C 
ATOM     28  F   UNL     1       7.050   4.280  12.048  0.00  0.00    +0.000 F 
ATOM     29  F   UNL     1       8.260   6.021  12.523  0.00  0.00    +0.000 F 
ENDBRANCH  24  27
ENDBRANCH  18  21
ENDBRANCH   1  19
TORSDOF 5
ENDMDL
MODEL 9
REMARK VINA RESULT:      -5.9      0.745      4.823
REMARK  Name = 
REMARK  5 active torsions:
REMARK  status: ('A' for Active; 'I' for Inactive)
REMARK    1  A    between atoms: C_2  and  C_20
REMARK    2  A    between atoms: N_3  and  C_4
REMARK    3  A    between atoms: C_5  and  N_6
REMARK    4  A    between atoms: C_14  and  N_15
REMARK    5  A    between atoms: C_23  and  C_24
REMARK                            x       y       z     vdW  Elec       q    Type
REMARK                         _______ _______ _______ _____ _____    ______ ____
ROOT
ATOM      1  C   UNL     1      -3.830  12.427  19.394  0.00  0.00    +0.000 A 
ATOM      2  C   UNL     1      -4.259  11.586  18.331  0.00  0.00    +0.000 A 
ATOM      3  C   UNL     1      -5.549  11.031  18.446  0.00  0.00    +0.000 A 
ATOM      4  C   UNL     1      -6.355  11.261  19.556  0.00  0.00    +0.000 A 
ATOM      5  C   UNL     1      -5.905  12.079  20.589  0.00  0.00    +0.000 A 
ATOM      6  C   UNL     1      -4.643  12.693  20.543  0.00  0.00    +0.000 A 
ENDROOT
BRANCH   2   7
ATOM      7  N   UNL     1      -3.535  11.232  17.196  0.00  0.00    +0.000 N 
ATOM      8  C   UNL     1      -3.950  11.484  15.820  0.00  0.00    +0.000 C 
ATOM      9  C   UNL     1      -3.784  10.142  15.117  0.00  0.00    +0.000 C 
ATOM     10  C   UNL     1      -2.595   9.531  15.837  0.00  0.00    +0.000 C 
ATOM     11  C   UNL     1      -2.798   9.962  17.288  0.00  0.00    +0.000 C 
ENDBRANCH   2   7
BRANCH   6  12
ATOM     12  N   UNL     1      -4.266  13.629  21.506  0.00  0.00    +0.000 N 
ATOM     13  C   UNL     1      -4.972  14.909  21.581  0.00  0.00    +0.000 C 
ATOM     14  C   UNL     1      -4.102  15.664  22.572  0.00  0.00    +0.000 C 
ATOM     15  C   UNL     1      -3.744  14.596  23.601  0.00  0.00    +0.000 C 
ATOM     16  C   UNL     1      -3.876  13.251  22.863  0.00  0.00    +0.000 C 
ENDBRANCH   6  12
BRANCH   1  19
ATOM     17  O   UNL     1      -1.374  11.356  20.420  0.00  0.00    +0.000 OA
ATOM     18  C   UNL     1      -1.423  12.404  19.789  0.00  0.00    +0.000 C 
ATOM     19  N   UNL     1      -2.556  13.052  19.332  0.00  0.00    +0.000 N 
ATOM     20  H   UNL     1      -2.397  13.474  18.432  0.00  0.00    +0.000 HD
BRANCH  18  21
ATOM     21  C   UNL     1      -0.154  13.091  19.432  0.00  0.00    +0.000 A 
ATOM     22  C   UNL     1       0.035  14.445  19.699  0.00  0.00    +0.000 A 
ATOM     23  C   UNL     1       1.223  15.065  19.301  0.00  0.00    +0.000 A 
ATOM     24  C   UNL     1       2.196  14.315  18.636  0.00  0.00    +0.000 A 
ATOM     25  N   UNL     1       2.033  12.987  18.382  0.00  0.00    +0.000 NA
ATOM     26  C   UNL     1       0.867  12.415  18.776  0.00  0.00    +0.000 A 
BRANCH  24  27
ATOM     27  C   UNL     1       3.466  14.989  18.159  0.00  0.00    +0.000 C 
ATOM     28  F   UNL     1       4.538  14.144  18.147  0.00  0.00    +0.000 F 
ATOM     29  F   UNL     1       3.362  15.465  16.884  0.00  0.00    +0.000 F 
ENDBRANCH  24  27
ENDBRANCH  18  21
ENDBRANCH   1  19
TORSDOF 5
ENDMDL
