MODEL 1
REMARK VINA RESULT:      -9.4      0.000      0.000
REMARK  Name = 
REMARK  3 active torsions:
REMARK  status: ('A' for Active; 'I' for Inactive)
REMARK    1  A    between atoms: C_4  and  C_5
REMARK    2  A    between atoms: N_7  and  C_8
REMARK    3  A    between atoms: C_13  and  C_14
REMARK                            x       y       z     vdW  Elec       q    Type
REMARK                         _______ _______ _______ _____ _____    ______ ____
ROOT
ATOM      1  C   UNL     1       2.850   5.759  17.789  0.00  0.00    +0.000 C 
ATOM      2  O   UNL     1       1.737   5.230  17.780  0.00  0.00    +0.000 OA
ATOM      3  N   UNL     1       3.107   7.081  18.126  0.00  0.00    +0.000 N 
ATOM      4  H   UNL     1       4.016   7.458  17.877  0.00  0.00    +0.000 HD
ENDROOT
BRANCH   1   8
ATOM      5  O   UNL     1       4.059   2.506  20.064  0.00  0.00    +0.000 OA
ATOM      6  C   UNL     1       4.509   3.325  19.272  0.00  0.00    +0.000 C 
ATOM      7  C   UNL     1       3.953   3.493  17.881  0.00  0.00    +0.000 C 
ATOM      8  C   UNL     1       4.058   4.924  17.374  0.00  0.00    +0.000 C 
ATOM      9  C   UNL     1       5.369   5.585  17.723  0.00  0.00    +0.000 A 
ATOM     10  C   UNL     1       5.823   6.699  17.002  0.00  0.00    +0.000 A 
ATOM     11  C   UNL     1       7.011   7.329  17.369  0.00  0.00    +0.000 A 
ATOM     12  C   UNL     1       7.737   6.844  18.450  0.00  0.00    +0.000 A 
ATOM     13  F   UNL     1       8.878   7.451  18.802  0.00  0.00    +0.000 F 
ATOM     14  C   UNL     1       7.297   5.746  19.182  0.00  0.00    +0.000 A 
ATOM     15  C   UNL     1       6.107   5.123  18.817  0.00  0.00    +0.000 A 
ATOM     16  N   UNL     1       5.608   4.069  19.587  0.00  0.00    +0.000 N 
ATOM     17  H   UNL     1       6.061   3.824  20.462  0.00  0.00    +0.000 HD
ENDBRANCH   1   8
BRANCH   3  18
ATOM     18  C   UNL     1       2.127   8.019  18.522  0.00  0.00    +0.000 A 
ATOM     19  C   UNL     1       1.552   8.925  17.635  0.00  0.00    +0.000 A 
ATOM     20  C   UNL     1       0.674   9.906  18.090  0.00  0.00    +0.000 A 
ATOM     21  C   UNL     1       0.346   9.999  19.446  0.00  0.00    +0.000 A 
ATOM     22 BR   UNL     1      -0.800  11.437  19.913  0.00  0.00    +0.000 Br
ATOM     23  C   UNL     1       0.866   9.074  20.358  0.00  0.00    +0.000 A 
ATOM     24  C   UNL     1       1.737   8.064  19.866  0.00  0.00    +0.000 A 
BRANCH  23  25
ATOM     25  C   UNL     1       0.591   9.080  21.843  0.00  0.00    +0.000 C 
ATOM     26  F   UNL     1       0.447  10.292  22.434  0.00  0.00    +0.000 F 
ATOM     27  F   UNL     1      -0.539   8.382  22.152  0.00  0.00    +0.000 F 
ATOM     28  F   UNL     1       1.594   8.463  22.536  0.00  0.00    +0.000 F 
ENDBRANCH  23  25
ENDBRANCH   3  18
TORSDOF 3
ENDMDL
MODEL 2
REMARK VINA RESULT:      -9.0      2.161      2.530
REMARK  Name = 
REMARK  3 active torsions:
REMARK  status: ('A' for Active; 'I' for Inactive)
REMARK    1  A    between atoms: C_4  and  C_5
REMARK    2  A    between atoms: N_7  and  C_8
REMARK    3  A    between atoms: C_13  and  C_14
REMARK                            x       y       z     vdW  Elec       q    Type
REMARK                         _______ _______ _______ _____ _____    ______ ____
ROOT
ATOM      1  C   UNL     1       3.352   5.058  17.849  0.00  0.00    +0.000 C 
ATOM      2  O   UNL     1       2.214   4.704  17.535  0.00  0.00    +0.000 OA
ATOM      3  N   UNL     1       3.702   6.324  18.301  0.00  0.00    +0.000 N 
ATOM      4  H   UNL     1       4.689   6.561  18.306  0.00  0.00    +0.000 HD
ENDROOT
BRANCH   1   8
ATOM      5  O   UNL     1       6.835   5.495  20.060  0.00  0.00    +0.000 OA
ATOM      6  C   UNL     1       6.435   4.996  19.016  0.00  0.00    +0.000 C 
ATOM      7  C   UNL     1       5.327   3.975  18.981  0.00  0.00    +0.000 C 
ATOM      8  C   UNL     1       4.493   4.054  17.711  0.00  0.00    +0.000 C 
ATOM      9  C   UNL     1       5.319   4.279  16.469  0.00  0.00    +0.000 A 
ATOM     10  C   UNL     1       4.810   3.955  15.202  0.00  0.00    +0.000 A 
ATOM     11  C   UNL     1       5.566   4.217  14.061  0.00  0.00    +0.000 A 
ATOM     12  C   UNL     1       6.822   4.796  14.190  0.00  0.00    +0.000 A 
ATOM     13  F   UNL     1       7.547   5.047  13.091  0.00  0.00    +0.000 F 
ATOM     14  C   UNL     1       7.338   5.131  15.437  0.00  0.00    +0.000 A 
ATOM     15  C   UNL     1       6.578   4.876  16.574  0.00  0.00    +0.000 A 
ATOM     16  N   UNL     1       7.046   5.278  17.829  0.00  0.00    +0.000 N 
ATOM     17  H   UNL     1       7.889   5.839  17.898  0.00  0.00    +0.000 HD
ENDBRANCH   1   8
BRANCH   3  18
ATOM     18  C   UNL     1       2.799   7.396  18.482  0.00  0.00    +0.000 A 
ATOM     19  C   UNL     1       2.546   8.340  17.491  0.00  0.00    +0.000 A 
ATOM     20  C   UNL     1       1.736   9.444  17.750  0.00  0.00    +0.000 A 
ATOM     21  C   UNL     1       1.155   9.623  19.008  0.00  0.00    +0.000 A 
ATOM     22 BR   UNL     1       0.144  11.215  19.223  0.00  0.00    +0.000 Br
ATOM     23  C   UNL     1       1.347   8.668  20.012  0.00  0.00    +0.000 A 
ATOM     24  C   UNL     1       2.154   7.536  19.716  0.00  0.00    +0.000 A 
BRANCH  23  25
ATOM     25  C   UNL     1       0.779   8.759  21.409  0.00  0.00    +0.000 C 
ATOM     26  F   UNL     1       0.958   9.931  22.068  0.00  0.00    +0.000 F 
ATOM     27  F   UNL     1      -0.565   8.528  21.426  0.00  0.00    +0.000 F 
ATOM     28  F   UNL     1       1.316   7.806  22.227  0.00  0.00    +0.000 F 
ENDBRANCH  23  25
ENDBRANCH   3  18
TORSDOF 3
ENDMDL
MODEL 3
REMARK VINA RESULT:      -8.6      2.600      3.093
REMARK  Name = 
REMARK  3 active torsions:
REMARK  status: ('A' for Active; 'I' for Inactive)
REMARK    1  A    between atoms: C_4  and  C_5
REMARK    2  A    between atoms: N_7  and  C_8
REMARK    3  A    between atoms: C_13  and  C_14
REMARK                            x       y       z     vdW  Elec       q    Type
REMARK                         _______ _______ _______ _____ _____    ______ ____
ROOT
ATOM      1  C   UNL     1       4.181   6.503  17.737  0.00  0.00    +0.000 C 
ATOM      2  O   UNL     1       4.335   7.334  16.840  0.00  0.00    +0.000 OA
ATOM      3  N   UNL     1       3.240   6.585  18.755  0.00  0.00    +0.000 N 
ATOM      4  H   UNL     1       3.361   5.969  19.553  0.00  0.00    +0.000 HD
ENDROOT
BRANCH   1   8
ATOM      5  O   UNL     1       8.159   6.904  18.846  0.00  0.00    +0.000 OA
ATOM      6  C   UNL     1       7.431   6.174  18.184  0.00  0.00    +0.000 C 
ATOM      7  C   UNL     1       6.235   5.474  18.776  0.00  0.00    +0.000 C 
ATOM      8  C   UNL     1       5.106   5.290  17.773  0.00  0.00    +0.000 C 
ATOM      9  C   UNL     1       5.587   4.884  16.401  0.00  0.00    +0.000 A 
ATOM     10  C   UNL     1       4.717   4.261  15.493  0.00  0.00    +0.000 A 
ATOM     11  C   UNL     1       5.163   3.939  14.212  0.00  0.00    +0.000 A 
ATOM     12  C   UNL     1       6.470   4.237  13.848  0.00  0.00    +0.000 A 
ATOM     13  F   UNL     1       6.897   3.928  12.616  0.00  0.00    +0.000 F 
ATOM     14  C   UNL     1       7.343   4.862  14.732  0.00  0.00    +0.000 A 
ATOM     15  C   UNL     1       6.893   5.189  16.008  0.00  0.00    +0.000 A 
ATOM     16  N   UNL     1       7.730   5.888  16.884  0.00  0.00    +0.000 N 
ATOM     17  H   UNL     1       8.623   6.239  16.556  0.00  0.00    +0.000 HD
ENDBRANCH   1   8
BRANCH   3  18
ATOM     18  C   UNL     1       2.305   7.633  18.908  0.00  0.00    +0.000 A 
ATOM     19  C   UNL     1       1.905   8.443  17.849  0.00  0.00    +0.000 A 
ATOM     20  C   UNL     1       1.068   9.536  18.066  0.00  0.00    +0.000 A 
ATOM     21  C   UNL     1       0.606   9.838  19.350  0.00  0.00    +0.000 A 
ATOM     22 BR   UNL     1      -0.460  11.401  19.488  0.00  0.00    +0.000 Br
ATOM     23  C   UNL     1       0.947   9.016  20.429  0.00  0.00    +0.000 A 
ATOM     24  C   UNL     1       1.779   7.890  20.180  0.00  0.00    +0.000 A 
BRANCH  23  25
ATOM     25  C   UNL     1       0.517   9.247  21.859  0.00  0.00    +0.000 C 
ATOM     26  F   UNL     1       0.329  10.535  22.241  0.00  0.00    +0.000 F 
ATOM     27  F   UNL     1      -0.649   8.603  22.148  0.00  0.00    +0.000 F 
ATOM     28  F   UNL     1       1.432   8.745  22.740  0.00  0.00    +0.000 F 
ENDBRANCH  23  25
ENDBRANCH   3  18
TORSDOF 3
ENDMDL
MODEL 4
REMARK VINA RESULT:      -8.5      2.455      2.918
REMARK  Name = 
REMARK  3 active torsions:
REMARK  status: ('A' for Active; 'I' for Inactive)
REMARK    1  A    between atoms: C_4  and  C_5
REMARK    2  A    between atoms: N_7  and  C_8
REMARK    3  A    between atoms: C_13  and  C_14
REMARK                            x       y       z     vdW  Elec       q    Type
REMARK                         _______ _______ _______ _____ _____    ______ ____
ROOT
ATOM      1  C   UNL     1       2.277   7.534  18.504  0.00  0.00    +0.000 C 
ATOM      2  O   UNL     1       2.235   7.653  19.730  0.00  0.00    +0.000 OA
ATOM      3  N   UNL     1       1.844   8.486  17.590  0.00  0.00    +0.000 N 
ATOM      4  H   UNL     1       1.716   8.185  16.629  0.00  0.00    +0.000 HD
ENDROOT
BRANCH   1   8
ATOM      5  O   UNL     1       1.869   3.950  20.554  0.00  0.00    +0.000 OA
ATOM      6  C   UNL     1       2.585   4.483  19.715  0.00  0.00    +0.000 C 
ATOM      7  C   UNL     1       2.043   5.025  18.418  0.00  0.00    +0.000 C 
ATOM      8  C   UNL     1       2.818   6.234  17.916  0.00  0.00    +0.000 C 
ATOM      9  C   UNL     1       4.311   6.097  18.084  0.00  0.00    +0.000 A 
ATOM     10  C   UNL     1       5.193   6.874  17.317  0.00  0.00    +0.000 A 
ATOM     11  C   UNL     1       6.568   6.772  17.521  0.00  0.00    +0.000 A 
ATOM     12  C   UNL     1       7.054   5.896  18.484  0.00  0.00    +0.000 A 
ATOM     13  F   UNL     1       8.376   5.800  18.680  0.00  0.00    +0.000 F 
ATOM     14  C   UNL     1       6.194   5.125  19.259  0.00  0.00    +0.000 A 
ATOM     15  C   UNL     1       4.821   5.234  19.058  0.00  0.00    +0.000 A 
ATOM     16  N   UNL     1       3.939   4.527  19.881  0.00  0.00    +0.000 N 
ATOM     17  H   UNL     1       4.295   4.015  20.681  0.00  0.00    +0.000 HD
ENDBRANCH   1   8
BRANCH   3  18
ATOM     18  C   UNL     1       1.298   9.744  17.931  0.00  0.00    +0.000 A 
ATOM     19  C   UNL     1       2.088  10.829  18.300  0.00  0.00    +0.000 A 
ATOM     20  C   UNL     1       1.504  12.017  18.738  0.00  0.00    +0.000 A 
ATOM     21  C   UNL     1       0.114  12.146  18.809  0.00  0.00    +0.000 A 
ATOM     22 BR   UNL     1      -0.519  13.796  19.499  0.00  0.00    +0.000 Br
ATOM     23  C   UNL     1      -0.710  11.093  18.398  0.00  0.00    +0.000 A 
ATOM     24  C   UNL     1      -0.093   9.901  17.929  0.00  0.00    +0.000 A 
BRANCH  23  25
ATOM     25  C   UNL     1      -2.220  11.113  18.439  0.00  0.00    +0.000 C 
ATOM     26  F   UNL     1      -2.795  11.549  19.588  0.00  0.00    +0.000 F 
ATOM     27  F   UNL     1      -2.743  11.889  17.447  0.00  0.00    +0.000 F 
ATOM     28  F   UNL     1      -2.740   9.867  18.231  0.00  0.00    +0.000 F 
ENDBRANCH  23  25
ENDBRANCH   3  18
TORSDOF 3
ENDMDL
MODEL 5
REMARK VINA RESULT:      -8.5      2.182      2.742
REMARK  Name = 
REMARK  3 active torsions:
REMARK  status: ('A' for Active; 'I' for Inactive)
REMARK    1  A    between atoms: C_4  and  C_5
REMARK    2  A    between atoms: N_7  and  C_8
REMARK    3  A    between atoms: C_13  and  C_14
REMARK                            x       y       z     vdW  Elec       q    Type
REMARK                         _______ _______ _______ _____ _____    ______ ____
ROOT
ATOM      1  C   UNL     1       2.354   4.723  18.084  0.00  0.00    +0.000 C 
ATOM      2  O   UNL     1       1.172   4.752  17.735  0.00  0.00    +0.000 OA
ATOM      3  N   UNL     1       2.962   5.639  18.933  0.00  0.00    +0.000 N 
ATOM      4  H   UNL     1       3.977   5.646  18.962  0.00  0.00    +0.000 HD
ENDROOT
BRANCH   1   8
ATOM      5  O   UNL     1       4.662   2.398  20.630  0.00  0.00    +0.000 OA
ATOM      6  C   UNL     1       4.635   2.787  19.468  0.00  0.00    +0.000 C 
ATOM      7  C   UNL     1       3.472   2.512  18.551  0.00  0.00    +0.000 C 
ATOM      8  C   UNL     1       3.251   3.620  17.532  0.00  0.00    +0.000 C 
ATOM      9  C   UNL     1       4.535   4.154  16.945  0.00  0.00    +0.000 A 
ATOM     10  C   UNL     1       4.533   4.839  15.721  0.00  0.00    +0.000 A 
ATOM     11  C   UNL     1       5.719   5.370  15.218  0.00  0.00    +0.000 A 
ATOM     12  C   UNL     1       6.898   5.213  15.937  0.00  0.00    +0.000 A 
ATOM     13  F   UNL     1       8.037   5.725  15.453  0.00  0.00    +0.000 F 
ATOM     14  C   UNL     1       6.917   4.545  17.157  0.00  0.00    +0.000 A 
ATOM     15  C   UNL     1       5.729   4.022  17.660  0.00  0.00    +0.000 A 
ATOM     16  N   UNL     1       5.714   3.417  18.920  0.00  0.00    +0.000 N 
ATOM     17  H   UNL     1       6.543   3.446  19.505  0.00  0.00    +0.000 HD
ENDBRANCH   1   8
BRANCH   3  18
ATOM     18  C   UNL     1       2.311   6.738  19.536  0.00  0.00    +0.000 A 
ATOM     19  C   UNL     1       1.728   6.667  20.798  0.00  0.00    +0.000 A 
ATOM     20  C   UNL     1       0.998   7.740  21.306  0.00  0.00    +0.000 A 
ATOM     21  C   UNL     1       0.840   8.912  20.563  0.00  0.00    +0.000 A 
ATOM     22 BR   UNL     1      -0.246  10.246  21.363  0.00  0.00    +0.000 Br
ATOM     23  C   UNL     1       1.454   9.037  19.312  0.00  0.00    +0.000 A 
ATOM     24  C   UNL     1       2.217   7.942  18.826  0.00  0.00    +0.000 A 
BRANCH  23  25
ATOM     25  C   UNL     1       1.346  10.249  18.416  0.00  0.00    +0.000 C 
ATOM     26  F   UNL     1       1.668  11.447  18.966  0.00  0.00    +0.000 F 
ATOM     27  F   UNL     1       2.128  10.130  17.306  0.00  0.00    +0.000 F 
ATOM     28  F   UNL     1       0.074  10.406  17.943  0.00  0.00    +0.000 F 
ENDBRANCH  23  25
ENDBRANCH   3  18
TORSDOF 3
ENDMDL
MODEL 6
REMARK VINA RESULT:      -8.4      1.748      1.924
REMARK  Name = 
REMARK  3 active torsions:
REMARK  status: ('A' for Active; 'I' for Inactive)
REMARK    1  A    between atoms: C_4  and  C_5
REMARK    2  A    between atoms: N_7  and  C_8
REMARK    3  A    between atoms: C_13  and  C_14
REMARK                            x       y       z     vdW  Elec       q    Type
REMARK                         _______ _______ _______ _____ _____    ______ ____
ROOT
ATOM      1  C   UNL     1       2.527   4.834  17.633  0.00  0.00    +0.000 C 
ATOM      2  O   UNL     1       1.305   4.682  17.573  0.00  0.00    +0.000 OA
ATOM      3  N   UNL     1       3.172   6.017  17.968  0.00  0.00    +0.000 N 
ATOM      4  H   UNL     1       4.164   6.082  17.761  0.00  0.00    +0.000 HD
ENDROOT
BRANCH   1   8
ATOM      5  O   UNL     1       4.919   3.075  20.530  0.00  0.00    +0.000 OA
ATOM      6  C   UNL     1       4.862   3.227  19.316  0.00  0.00    +0.000 C 
ATOM      7  C   UNL     1       3.683   2.768  18.498  0.00  0.00    +0.000 C 
ATOM      8  C   UNL     1       3.427   3.652  17.287  0.00  0.00    +0.000 C 
ATOM      9  C   UNL     1       4.691   4.071  16.577  0.00  0.00    +0.000 A 
ATOM     10  C   UNL     1       4.653   4.502  15.242  0.00  0.00    +0.000 A 
ATOM     11  C   UNL     1       5.821   4.935  14.617  0.00  0.00    +0.000 A 
ATOM     12  C   UNL     1       7.017   4.933  15.325  0.00  0.00    +0.000 A 
ATOM     13  F   UNL     1       8.139   5.350  14.724  0.00  0.00    +0.000 F 
ATOM     14  C   UNL     1       7.071   4.517  16.652  0.00  0.00    +0.000 A 
ATOM     15  C   UNL     1       5.901   4.093  17.275  0.00  0.00    +0.000 A 
ATOM     16  N   UNL     1       5.921   3.747  18.630  0.00  0.00    +0.000 N 
ATOM     17  H   UNL     1       6.761   3.898  19.178  0.00  0.00    +0.000 HD
ENDBRANCH   1   8
BRANCH   3  18
ATOM     18  C   UNL     1       2.522   7.225  18.305  0.00  0.00    +0.000 A 
ATOM     19  C   UNL     1       2.419   8.295  17.421  0.00  0.00    +0.000 A 
ATOM     20  C   UNL     1       1.869   9.508  17.833  0.00  0.00    +0.000 A 
ATOM     21  C   UNL     1       1.403   9.674  19.140  0.00  0.00    +0.000 A 
ATOM     22 BR   UNL     1       0.757  11.407  19.563  0.00  0.00    +0.000 Br
ATOM     23  C   UNL     1       1.445   8.604  20.040  0.00  0.00    +0.000 A 
ATOM     24  C   UNL     1       1.983   7.368  19.590  0.00  0.00    +0.000 A 
BRANCH  23  25
ATOM     25  C   UNL     1       0.981   8.667  21.476  0.00  0.00    +0.000 C 
ATOM     26  F   UNL     1       1.566   9.600  22.269  0.00  0.00    +0.000 F 
ATOM     27  F   UNL     1      -0.360   8.897  21.566  0.00  0.00    +0.000 F 
ATOM     28  F   UNL     1       1.183   7.478  22.118  0.00  0.00    +0.000 F 
ENDBRANCH  23  25
ENDBRANCH   3  18
TORSDOF 3
ENDMDL
MODEL 7
REMARK VINA RESULT:      -8.4      1.848      2.392
REMARK  Name = 
REMARK  3 active torsions:
REMARK  status: ('A' for Active; 'I' for Inactive)
REMARK    1  A    between atoms: C_4  and  C_5
REMARK    2  A    between atoms: N_7  and  C_8
REMARK    3  A    between atoms: C_13  and  C_14
REMARK                            x       y       z     vdW  Elec       q    Type
REMARK                         _______ _______ _______ _____ _____    ______ ____
ROOT
ATOM      1  C   UNL     1       2.289   5.590  19.156  0.00  0.00    +0.000 C 
ATOM      2  O   UNL     1       1.518   5.015  19.928  0.00  0.00    +0.000 OA
ATOM      3  N   UNL     1       2.475   6.964  19.083  0.00  0.00    +0.000 N 
ATOM      4  H   UNL     1       2.954   7.327  18.265  0.00  0.00    +0.000 HD
ENDROOT
BRANCH   1   8
ATOM      5  O   UNL     1       4.304   2.192  20.424  0.00  0.00    +0.000 OA
ATOM      6  C   UNL     1       4.344   3.041  19.541  0.00  0.00    +0.000 C 
ATOM      7  C   UNL     1       3.185   3.296  18.613  0.00  0.00    +0.000 C 
ATOM      8  C   UNL     1       3.095   4.749  18.170  0.00  0.00    +0.000 C 
ATOM      9  C   UNL     1       4.438   5.358  17.849  0.00  0.00    +0.000 A 
ATOM     10  C   UNL     1       4.531   6.498  17.036  0.00  0.00    +0.000 A 
ATOM     11  C   UNL     1       5.775   7.078  16.791  0.00  0.00    +0.000 A 
ATOM     12  C   UNL     1       6.914   6.517  17.355  0.00  0.00    +0.000 A 
ATOM     13  F   UNL     1       8.109   7.077  17.119  0.00  0.00    +0.000 F 
ATOM     14  C   UNL     1       6.839   5.393  18.170  0.00  0.00    +0.000 A 
ATOM     15  C   UNL     1       5.595   4.821  18.419  0.00  0.00    +0.000 A 
ATOM     16  N   UNL     1       5.491   3.739  19.299  0.00  0.00    +0.000 N 
ATOM     17  H   UNL     1       6.303   3.437  19.827  0.00  0.00    +0.000 HD
ENDBRANCH   1   8
BRANCH   3  18
ATOM     18  C   UNL     1       1.814   7.913  19.895  0.00  0.00    +0.000 A 
ATOM     19  C   UNL     1       1.789   7.825  21.284  0.00  0.00    +0.000 A 
ATOM     20  C   UNL     1       1.031   8.718  22.039  0.00  0.00    +0.000 A 
ATOM     21  C   UNL     1       0.286   9.725  21.420  0.00  0.00    +0.000 A 
ATOM     22 BR   UNL     1      -0.752  10.807  22.583  0.00  0.00    +0.000 Br
ATOM     23  C   UNL     1       0.329   9.874  20.029  0.00  0.00    +0.000 A 
ATOM     24  C   UNL     1       1.131   8.970  19.281  0.00  0.00    +0.000 A 
BRANCH  23  25
ATOM     25  C   UNL     1      -0.439  10.916  19.250  0.00  0.00    +0.000 C 
ATOM     26  F   UNL     1      -1.782  10.954  19.438  0.00  0.00    +0.000 F 
ATOM     27  F   UNL     1       0.007  12.177  19.515  0.00  0.00    +0.000 F 
ATOM     28  F   UNL     1      -0.272  10.753  17.904  0.00  0.00    +0.000 F 
ENDBRANCH  23  25
ENDBRANCH   3  18
TORSDOF 3
ENDMDL
MODEL 8
REMARK VINA RESULT:      -8.4      3.480      4.771
REMARK  Name = 
REMARK  3 active torsions:
REMARK  status: ('A' for Active; 'I' for Inactive)
REMARK    1  A    between atoms: C_4  and  C_5
REMARK    2  A    between atoms: N_7  and  C_8
REMARK    3  A    between atoms: C_13  and  C_14
REMARK                            x       y       z     vdW  Elec       q    Type
REMARK                         _______ _______ _______ _____ _____    ______ ____
ROOT
ATOM      1  C   UNL     1       2.425   7.431  19.296  0.00  0.00    +0.000 C 
ATOM      2  O   UNL     1       2.357   7.934  18.173  0.00  0.00    +0.000 OA
ATOM      3  N   UNL     1       1.807   7.926  20.437  0.00  0.00    +0.000 N 
ATOM      4  H   UNL     1       2.120   7.564  21.332  0.00  0.00    +0.000 HD
ENDROOT
BRANCH   1   8
ATOM      5  O   UNL     1       4.980   6.137  16.294  0.00  0.00    +0.000 OA
ATOM      6  C   UNL     1       4.353   5.704  17.253  0.00  0.00    +0.000 C 
ATOM      7  C   UNL     1       4.547   6.232  18.651  0.00  0.00    +0.000 C 
ATOM      8  C   UNL     1       3.275   6.178  19.483  0.00  0.00    +0.000 C 
ATOM      9  C   UNL     1       2.487   4.906  19.285  0.00  0.00    +0.000 A 
ATOM     10  C   UNL     1       1.557   4.483  20.246  0.00  0.00    +0.000 A 
ATOM     11  C   UNL     1       0.800   3.333  20.024  0.00  0.00    +0.000 A 
ATOM     12  C   UNL     1       0.979   2.613  18.849  0.00  0.00    +0.000 A 
ATOM     13  F   UNL     1       0.251   1.509  18.636  0.00  0.00    +0.000 F 
ATOM     14  C   UNL     1       1.891   3.023  17.881  0.00  0.00    +0.000 A 
ATOM     15  C   UNL     1       2.639   4.175  18.103  0.00  0.00    +0.000 A 
ATOM     16  N   UNL     1       3.503   4.646  17.109  0.00  0.00    +0.000 N 
ATOM     17  H   UNL     1       3.510   4.205  16.195  0.00  0.00    +0.000 HD
ENDBRANCH   1   8
BRANCH   3  18
ATOM     18  C   UNL     1       0.992   9.080  20.477  0.00  0.00    +0.000 A 
ATOM     19  C   UNL     1       0.884   9.883  21.609  0.00  0.00    +0.000 A 
ATOM     20  C   UNL     1      -0.017  10.946  21.643  0.00  0.00    +0.000 A 
ATOM     21  C   UNL     1      -0.826  11.233  20.540  0.00  0.00    +0.000 A 
ATOM     22 BR   UNL     1      -2.053  12.661  20.775  0.00  0.00    +0.000 Br
ATOM     23  C   UNL     1      -0.707  10.477  19.368  0.00  0.00    +0.000 A 
ATOM     24  C   UNL     1       0.238   9.416  19.346  0.00  0.00    +0.000 A 
BRANCH  23  25
ATOM     25  C   UNL     1      -1.532  10.686  18.120  0.00  0.00    +0.000 C 
ATOM     26  F   UNL     1      -1.511  11.928  17.574  0.00  0.00    +0.000 F 
ATOM     27  F   UNL     1      -1.162   9.837  17.120  0.00  0.00    +0.000 F 
ATOM     28  F   UNL     1      -2.853  10.420  18.346  0.00  0.00    +0.000 F 
ENDBRANCH  23  25
ENDBRANCH   3  18
TORSDOF 3
ENDMDL
MODEL 9
REMARK VINA RESULT:      -8.3      2.743      3.305
REMARK  Name = 
REMARK  3 active torsions:
REMARK  status: ('A' for Active; 'I' for Inactive)
REMARK    1  A    between atoms: C_4  and  C_5
REMARK    2  A    between atoms: N_7  and  C_8
REMARK    3  A    between atoms: C_13  and  C_14
REMARK                            x       y       z     vdW  Elec       q    Type
REMARK                         _______ _______ _______ _____ _____    ______ ____
ROOT
ATOM      1  C   UNL     1       2.277   7.621  18.519  0.00  0.00    +0.000 C 
ATOM      2  O   UNL     1       2.244   7.639  19.751  0.00  0.00    +0.000 OA
ATOM      3  N   UNL     1       1.863   8.656  17.690  0.00  0.00    +0.000 N 
ATOM      4  H   UNL     1       1.724   8.441  16.708  0.00  0.00    +0.000 HD
ENDROOT
BRANCH   1   8
ATOM      5  O   UNL     1       1.680   3.878  20.204  0.00  0.00    +0.000 OA
ATOM      6  C   UNL     1       2.437   4.459  19.436  0.00  0.00    +0.000 C 
ATOM      7  C   UNL     1       1.950   5.144  18.186  0.00  0.00    +0.000 C 
ATOM      8  C   UNL     1       2.784   6.363  17.820  0.00  0.00    +0.000 C 
ATOM      9  C   UNL     1       4.266   6.150  18.008  0.00  0.00    +0.000 A 
ATOM     10  C   UNL     1       5.196   6.960  17.339  0.00  0.00    +0.000 A 
ATOM     11  C   UNL     1       6.560   6.784  17.563  0.00  0.00    +0.000 A 
ATOM     12  C   UNL     1       6.987   5.801  18.448  0.00  0.00    +0.000 A 
ATOM     13  F   UNL     1       8.299   5.633  18.663  0.00  0.00    +0.000 F 
ATOM     14  C   UNL     1       6.078   4.995  19.126  0.00  0.00    +0.000 A 
ATOM     15  C   UNL     1       4.716   5.179  18.906  0.00  0.00    +0.000 A 
ATOM     16  N   UNL     1       3.787   4.432  19.636  0.00  0.00    +0.000 N 
ATOM     17  H   UNL     1       4.102   3.832  20.391  0.00  0.00    +0.000 HD
ENDBRANCH   1   8
BRANCH   3  18
ATOM     18  C   UNL     1       1.350   9.894  18.139  0.00  0.00    +0.000 A 
ATOM     19  C   UNL     1       0.010  10.077  18.469  0.00  0.00    +0.000 A 
ATOM     20  C   UNL     1      -0.475  11.341  18.798  0.00  0.00    +0.000 A 
ATOM     21  C   UNL     1       0.373  12.451  18.810  0.00  0.00    +0.000 A 
ATOM     22 BR   UNL     1      -0.458  14.111  19.202  0.00  0.00    +0.000 Br
ATOM     23  C   UNL     1       1.736  12.296  18.532  0.00  0.00    +0.000 A 
ATOM     24  C   UNL     1       2.214  10.992  18.227  0.00  0.00    +0.000 A 
BRANCH  23  25
ATOM     25  C   UNL     1       2.744  13.420  18.506  0.00  0.00    +0.000 C 
ATOM     26  F   UNL     1       2.391  14.543  17.832  0.00  0.00    +0.000 F 
ATOM     27  F   UNL     1       3.076  13.833  19.762  0.00  0.00    +0.000 F 
ATOM     28  F   UNL     1       3.920  13.020  17.938  0.00  0.00    +0.000 F 
ENDBRANCH  23  25
ENDBRANCH   3  18
TORSDOF 3
ENDMDL
