MODEL 1
REMARK VINA RESULT:     -10.3      0.000      0.000
REMARK  Name = 
REMARK  6 active torsions:
REMARK  status: ('A' for Active; 'I' for Inactive)
REMARK    1  A    between atoms: C_1  and  C_2
REMARK    2  A    between atoms: C_6  and  C_7
REMARK    3  A    between atoms: N_13  and  C_14
REMARK    4  A    between atoms: C_18  and  C_19
REMARK    5  A    between atoms: C_19  and  N_20
REMARK    6  A    between atoms: N_25  and  C_26
REMARK                            x       y       z     vdW  Elec       q    Type
REMARK                         _______ _______ _______ _____ _____    ______ ____
ROOT
ATOM      1  C   UNL     1       2.574   6.573  18.385  0.00  0.00    +0.000 A 
ATOM      2  C   UNL     1       1.807   5.401  18.385  0.00  0.00    +0.000 A 
ATOM      3  C   UNL     1       2.321   4.193  17.930  0.00  0.00    +0.000 A 
ATOM      4  C   UNL     1       3.631   4.136  17.476  0.00  0.00    +0.000 A 
ATOM      5  C   UNL     1       4.461   5.274  17.455  0.00  0.00    +0.000 A 
ATOM      6  C   UNL     1       3.882   6.496  17.882  0.00  0.00    +0.000 A 
ENDROOT
BRANCH   1  15
ATOM      7  C   UNL     1      -0.333  13.324  19.389  0.00  0.00    +0.000 C 
ATOM      8  C   UNL     1       0.112  11.926  19.691  0.00  0.00    +0.000 A 
ATOM      9  C   UNL     1       0.800  11.193  18.730  0.00  0.00    +0.000 A 
ATOM     10  C   UNL     1       1.194   9.909  19.055  0.00  0.00    +0.000 A 
ATOM     11  C   UNL     1       0.932   9.304  20.282  0.00  0.00    +0.000 A 
ATOM     12  C   UNL     1       0.258  10.019  21.266  0.00  0.00    +0.000 A 
ATOM     13  C   UNL     1      -0.148  11.339  20.952  0.00  0.00    +0.000 A 
ATOM     14  C   UNL     1       1.472   7.902  20.255  0.00  0.00    +0.000 C 
ATOM     15  N   UNL     1       2.055   7.785  18.915  0.00  0.00    +0.000 N 
ATOM     16  C   UNL     1       1.917   8.976  18.198  0.00  0.00    +0.000 C 
ATOM     17  O   UNL     1       2.278   9.300  17.082  0.00  0.00    +0.000 OA
BRANCH  12  18
ATOM     18  C   UNL     1      -0.041   9.460  22.634  0.00  0.00    +0.000 C 
ATOM     19  F   UNL     1      -0.736  10.314  23.433  0.00  0.00    +0.000 F 
ATOM     20  F   UNL     1      -0.776   8.316  22.575  0.00  0.00    +0.000 F 
ATOM     21  F   UNL     1       1.091   9.143  23.322  0.00  0.00    +0.000 F 
ENDBRANCH  12  18
ENDBRANCH   1  15
BRANCH   5  22
ATOM     22  C   UNL     1       5.980   5.152  17.007  0.00  0.00    +0.000 C 
ATOM     23  C   UNL     1       6.969   4.654  18.107  0.00  0.00    +0.000 C 
ATOM     24  O   UNL     1       7.937   5.670  17.762  0.00  0.00    +0.000 OA
ATOM     25  C   UNL     1       6.919   6.386  17.008  0.00  0.00    +0.000 C 
BRANCH  22  26
ATOM     26  N   UNL     1       6.070   4.326  15.808  0.00  0.00    +0.000 N 
ATOM     27  C   UNL     1       6.793   4.710  14.726  0.00  0.00    +0.000 A 
ATOM     28  N   UNL     1       7.825   5.526  14.665  0.00  0.00    +0.000 NA
ATOM     29  N   UNL     1       8.207   5.648  13.349  0.00  0.00    +0.000 NA
ATOM     30  C   UNL     1       7.392   4.912  12.633  0.00  0.00    +0.000 A 
ATOM     31  N   UNL     1       6.494   4.298  13.452  0.00  0.00    +0.000 N 
ATOM     32  C   UNL     1       5.418   3.450  13.020  0.00  0.00    +0.000 C 
ATOM     33  H   UNL     1       5.228   3.784  15.661  0.00  0.00    +0.000 HD
ENDBRANCH  22  26
ENDBRANCH   5  22
TORSDOF 4
ENDMDL
MODEL 2
REMARK VINA RESULT:     -10.3      1.675      2.878
REMARK  Name = 
REMARK  6 active torsions:
REMARK  status: ('A' for Active; 'I' for Inactive)
REMARK    1  A    between atoms: C_1  and  C_2
REMARK    2  A    between atoms: C_6  and  C_7
REMARK    3  A    between atoms: N_13  and  C_14
REMARK    4  A    between atoms: C_18  and  C_19
REMARK    5  A    between atoms: C_19  and  N_20
REMARK    6  A    between atoms: N_25  and  C_26
REMARK                            x       y       z     vdW  Elec       q    Type
REMARK                         _______ _______ _______ _____ _____    ______ ____
ROOT
ATOM      1  C   UNL     1       2.789   6.324  18.581  0.00  0.00    +0.000 A 
ATOM      2  C   UNL     1       2.445   5.129  19.224  0.00  0.00    +0.000 A 
ATOM      3  C   UNL     1       3.026   3.918  18.870  0.00  0.00    +0.000 A 
ATOM      4  C   UNL     1       3.982   3.887  17.864  0.00  0.00    +0.000 A 
ATOM      5  C   UNL     1       4.380   5.053  17.180  0.00  0.00    +0.000 A 
ATOM      6  C   UNL     1       3.727   6.259  17.539  0.00  0.00    +0.000 A 
ENDROOT
BRANCH   1  15
ATOM      7  C   UNL     1      -0.262  13.076  18.972  0.00  0.00    +0.000 C 
ATOM      8  C   UNL     1       0.199  11.715  19.395  0.00  0.00    +0.000 A 
ATOM      9  C   UNL     1       0.926  10.923  18.513  0.00  0.00    +0.000 A 
ATOM     10  C   UNL     1       1.333   9.676  18.949  0.00  0.00    +0.000 A 
ATOM     11  C   UNL     1       1.047   9.164  20.213  0.00  0.00    +0.000 A 
ATOM     12  C   UNL     1       0.334   9.940  21.119  0.00  0.00    +0.000 A 
ATOM     13  C   UNL     1      -0.086  11.224  20.692  0.00  0.00    +0.000 A 
ATOM     14  C   UNL     1       1.613   7.775  20.311  0.00  0.00    +0.000 C 
ATOM     15  N   UNL     1       2.234   7.564  19.000  0.00  0.00    +0.000 N 
ATOM     16  C   UNL     1       2.096   8.692  18.188  0.00  0.00    +0.000 C 
ATOM     17  O   UNL     1       2.482   8.935  17.060  0.00  0.00    +0.000 OA
BRANCH  12  18
ATOM     18  C   UNL     1       0.007   9.485  22.519  0.00  0.00    +0.000 C 
ATOM     19  F   UNL     1      -0.761   8.364  22.564  0.00  0.00    +0.000 F 
ATOM     20  F   UNL     1       1.125   9.205  23.244  0.00  0.00    +0.000 F 
ATOM     21  F   UNL     1      -0.670  10.431  23.225  0.00  0.00    +0.000 F 
ENDBRANCH  12  18
ENDBRANCH   1  15
BRANCH   5  22
ATOM     22  C   UNL     1       5.536   4.990  16.093  0.00  0.00    +0.000 C 
ATOM     23  C   UNL     1       5.079   5.174  14.611  0.00  0.00    +0.000 C 
ATOM     24  O   UNL     1       5.902   4.071  14.172  0.00  0.00    +0.000 OA
ATOM     25  C   UNL     1       6.054   3.633  15.550  0.00  0.00    +0.000 C 
BRANCH  22  26
ATOM     26  N   UNL     1       6.585   5.942  16.441  0.00  0.00    +0.000 N 
ATOM     27  C   UNL     1       7.249   5.876  17.622  0.00  0.00    +0.000 A 
ATOM     28  N   UNL     1       7.449   4.836  18.405  0.00  0.00    +0.000 NA
ATOM     29  N   UNL     1       8.142   5.254  19.517  0.00  0.00    +0.000 NA
ATOM     30  C   UNL     1       8.340   6.544  19.395  0.00  0.00    +0.000 A 
ATOM     31  N   UNL     1       7.806   6.978  18.220  0.00  0.00    +0.000 N 
ATOM     32  C   UNL     1       7.789   8.341  17.766  0.00  0.00    +0.000 C 
ATOM     33  H   UNL     1       6.420   6.850  16.027  0.00  0.00    +0.000 HD
ENDBRANCH  22  26
ENDBRANCH   5  22
TORSDOF 4
ENDMDL
MODEL 3
REMARK VINA RESULT:      -9.9      4.005      8.750
REMARK  Name = 
REMARK  6 active torsions:
REMARK  status: ('A' for Active; 'I' for Inactive)
REMARK    1  A    between atoms: C_1  and  C_2
REMARK    2  A    between atoms: C_6  and  C_7
REMARK    3  A    between atoms: N_13  and  C_14
REMARK    4  A    between atoms: C_18  and  C_19
REMARK    5  A    between atoms: C_19  and  N_20
REMARK    6  A    between atoms: N_25  and  C_26
REMARK                            x       y       z     vdW  Elec       q    Type
REMARK                         _______ _______ _______ _____ _____    ______ ____
ROOT
ATOM      1  C   UNL     1       0.992   9.095  20.324  0.00  0.00    +0.000 A 
ATOM      2  C   UNL     1       0.559   9.180  21.653  0.00  0.00    +0.000 A 
ATOM      3  C   UNL     1      -0.062  10.320  22.146  0.00  0.00    +0.000 A 
ATOM      4  C   UNL     1      -0.277  11.400  21.302  0.00  0.00    +0.000 A 
ATOM      5  C   UNL     1       0.126  11.380  19.951  0.00  0.00    +0.000 A 
ATOM      6  C   UNL     1       0.800  10.216  19.502  0.00  0.00    +0.000 A 
ENDROOT
BRANCH   1  15
ATOM      7  C   UNL     1       5.038   4.006  16.749  0.00  0.00    +0.000 C 
ATOM      8  C   UNL     1       4.115   4.610  17.763  0.00  0.00    +0.000 A 
ATOM      9  C   UNL     1       3.723   5.938  17.641  0.00  0.00    +0.000 A 
ATOM     10  C   UNL     1       2.869   6.451  18.599  0.00  0.00    +0.000 A 
ATOM     11  C   UNL     1       2.389   5.719  19.683  0.00  0.00    +0.000 A 
ATOM     12  C   UNL     1       2.755   4.385  19.822  0.00  0.00    +0.000 A 
ATOM     13  C   UNL     1       3.625   3.841  18.846  0.00  0.00    +0.000 A 
ATOM     14  C   UNL     1       1.525   6.614  20.527  0.00  0.00    +0.000 C 
ATOM     15  N   UNL     1       1.566   7.897  19.819  0.00  0.00    +0.000 N 
ATOM     16  C   UNL     1       2.341   7.810  18.660  0.00  0.00    +0.000 C 
ATOM     17  O   UNL     1       2.606   8.624  17.795  0.00  0.00    +0.000 OA
BRANCH  12  18
ATOM     18  C   UNL     1       2.260   3.505  20.942  0.00  0.00    +0.000 C 
ATOM     19  F   UNL     1       2.903   2.309  21.022  0.00  0.00    +0.000 F 
ATOM     20  F   UNL     1       2.405   4.093  22.161  0.00  0.00    +0.000 F 
ATOM     21  F   UNL     1       0.937   3.211  20.823  0.00  0.00    +0.000 F 
ENDBRANCH  12  18
ENDBRANCH   1  15
BRANCH   5  22
ATOM     22  C   UNL     1      -0.211  12.602  18.995  0.00  0.00    +0.000 C 
ATOM     23  C   UNL     1       1.019  13.406  18.469  0.00  0.00    +0.000 C 
ATOM     24  O   UNL     1       0.371  14.668  18.743  0.00  0.00    +0.000 OA
ATOM     25  C   UNL     1      -0.611  13.986  19.571  0.00  0.00    +0.000 C 
BRANCH  22  26
ATOM     26  N   UNL     1      -1.049  12.143  17.893  0.00  0.00    +0.000 N 
ATOM     27  C   UNL     1      -2.344  11.786  18.078  0.00  0.00    +0.000 A 
ATOM     28  N   UNL     1      -3.184  12.168  19.017  0.00  0.00    +0.000 NA
ATOM     29  N   UNL     1      -4.380  11.514  18.826  0.00  0.00    +0.000 NA
ATOM     30  C   UNL     1      -4.239  10.736  17.780  0.00  0.00    +0.000 A 
ATOM     31  N   UNL     1      -2.984  10.879  17.272  0.00  0.00    +0.000 N 
ATOM     32  C   UNL     1      -2.452  10.151  16.153  0.00  0.00    +0.000 C 
ATOM     33  H   UNL     1      -0.509  11.660  17.186  0.00  0.00    +0.000 HD
ENDBRANCH  22  26
ENDBRANCH   5  22
TORSDOF 4
ENDMDL
MODEL 4
REMARK VINA RESULT:      -9.8      4.144      8.792
REMARK  Name = 
REMARK  6 active torsions:
REMARK  status: ('A' for Active; 'I' for Inactive)
REMARK    1  A    between atoms: C_1  and  C_2
REMARK    2  A    between atoms: C_6  and  C_7
REMARK    3  A    between atoms: N_13  and  C_14
REMARK    4  A    between atoms: C_18  and  C_19
REMARK    5  A    between atoms: C_19  and  N_20
REMARK    6  A    between atoms: N_25  and  C_26
REMARK                            x       y       z     vdW  Elec       q    Type
REMARK                         _______ _______ _______ _____ _____    ______ ____
ROOT
ATOM      1  C   UNL     1       0.779   8.992  20.766  0.00  0.00    +0.000 A 
ATOM      2  C   UNL     1       0.617   9.045  22.156  0.00  0.00    +0.000 A 
ATOM      3  C   UNL     1      -0.043  10.101  22.772  0.00  0.00    +0.000 A 
ATOM      4  C   UNL     1      -0.570  11.123  21.997  0.00  0.00    +0.000 A 
ATOM      5  C   UNL     1      -0.450  11.129  20.592  0.00  0.00    +0.000 A 
ATOM      6  C   UNL     1       0.273  10.059  20.008  0.00  0.00    +0.000 A 
ENDROOT
BRANCH   1  15
ATOM      7  C   UNL     1       5.020   4.440  16.723  0.00  0.00    +0.000 C 
ATOM      8  C   UNL     1       4.073   4.904  17.788  0.00  0.00    +0.000 A 
ATOM      9  C   UNL     1       3.632   6.223  17.797  0.00  0.00    +0.000 A 
ATOM     10  C   UNL     1       2.757   6.605  18.796  0.00  0.00    +0.000 A 
ATOM     11  C   UNL     1       2.302   5.750  19.798  0.00  0.00    +0.000 A 
ATOM     12  C   UNL     1       2.716   4.423  19.804  0.00  0.00    +0.000 A 
ATOM     13  C   UNL     1       3.608   4.013  18.784  0.00  0.00    +0.000 A 
ATOM     14  C   UNL     1       1.403   6.524  20.721  0.00  0.00    +0.000 C 
ATOM     15  N   UNL     1       1.398   7.872  20.146  0.00  0.00    +0.000 N 
ATOM     16  C   UNL     1       2.179   7.931  18.990  0.00  0.00    +0.000 C 
ATOM     17  O   UNL     1       2.416   8.837  18.213  0.00  0.00    +0.000 OA
BRANCH  12  18
ATOM     18  C   UNL     1       2.251   3.418  20.827  0.00  0.00    +0.000 C 
ATOM     19  F   UNL     1       2.909   2.229  20.763  0.00  0.00    +0.000 F 
ATOM     20  F   UNL     1       2.409   3.868  22.101  0.00  0.00    +0.000 F 
ATOM     21  F   UNL     1       0.929   3.121  20.696  0.00  0.00    +0.000 F 
ENDBRANCH  12  18
ENDBRANCH   1  15
BRANCH   5  22
ATOM     22  C   UNL     1      -1.139  12.274  19.733  0.00  0.00    +0.000 C 
ATOM     23  C   UNL     1      -0.304  12.805  18.526  0.00  0.00    +0.000 C 
ATOM     24  O   UNL     1      -0.614  14.177  18.857  0.00  0.00    +0.000 OA
ATOM     25  C   UNL     1      -1.070  13.759  20.173  0.00  0.00    +0.000 C 
BRANCH  22  26
ATOM     26  N   UNL     1      -2.461  11.832  19.303  0.00  0.00    +0.000 N 
ATOM     27  C   UNL     1      -2.675  11.306  18.071  0.00  0.00    +0.000 A 
ATOM     28  N   UNL     1      -1.826  10.694  17.271  0.00  0.00    +0.000 NA
ATOM     29  N   UNL     1      -2.482  10.367  16.107  0.00  0.00    +0.000 NA
ATOM     30  C   UNL     1      -3.716  10.798  16.216  0.00  0.00    +0.000 A 
ATOM     31  N   UNL     1      -3.887  11.386  17.432  0.00  0.00    +0.000 N 
ATOM     32  C   UNL     1      -5.094  12.016  17.890  0.00  0.00    +0.000 C 
ATOM     33  H   UNL     1      -3.197  12.378  19.732  0.00  0.00    +0.000 HD
ENDBRANCH  22  26
ENDBRANCH   5  22
TORSDOF 4
ENDMDL
MODEL 5
REMARK VINA RESULT:      -9.8      3.864      8.741
REMARK  Name = 
REMARK  6 active torsions:
REMARK  status: ('A' for Active; 'I' for Inactive)
REMARK    1  A    between atoms: C_1  and  C_2
REMARK    2  A    between atoms: C_6  and  C_7
REMARK    3  A    between atoms: N_13  and  C_14
REMARK    4  A    between atoms: C_18  and  C_19
REMARK    5  A    between atoms: C_19  and  N_20
REMARK    6  A    between atoms: N_25  and  C_26
REMARK                            x       y       z     vdW  Elec       q    Type
REMARK                         _______ _______ _______ _____ _____    ______ ____
ROOT
ATOM      1  C   UNL     1       1.670   8.163  19.752  0.00  0.00    +0.000 A 
ATOM      2  C   UNL     1       1.196   7.990  21.058  0.00  0.00    +0.000 A 
ATOM      3  C   UNL     1       0.563   9.018  21.745  0.00  0.00    +0.000 A 
ATOM      4  C   UNL     1       0.379  10.244  21.122  0.00  0.00    +0.000 A 
ATOM      5  C   UNL     1       0.824  10.484  19.807  0.00  0.00    +0.000 A 
ATOM      6  C   UNL     1       1.508   9.425  19.160  0.00  0.00    +0.000 A 
ENDROOT
BRANCH   1  15
ATOM      7  C   UNL     1       5.954   3.787  15.563  0.00  0.00    +0.000 C 
ATOM      8  C   UNL     1       4.923   4.198  16.569  0.00  0.00    +0.000 A 
ATOM      9  C   UNL     1       4.613   5.543  16.736  0.00  0.00    +0.000 A 
ATOM     10  C   UNL     1       3.654   5.875  17.673  0.00  0.00    +0.000 A 
ATOM     11  C   UNL     1       2.990   4.942  18.468  0.00  0.00    +0.000 A 
ATOM     12  C   UNL     1       3.272   3.590  18.314  0.00  0.00    +0.000 A 
ATOM     13  C   UNL     1       4.248   3.231  17.352  0.00  0.00    +0.000 A 
ATOM     14  C   UNL     1       2.056   5.672  19.391  0.00  0.00    +0.000 C 
ATOM     15  N   UNL     1       2.256   7.081  19.040  0.00  0.00    +0.000 N 
ATOM     16  C   UNL     1       3.185   7.216  18.006  0.00  0.00    +0.000 C 
ATOM     17  O   UNL     1       3.608   8.192  17.415  0.00  0.00    +0.000 OA
BRANCH  12  18
ATOM     18  C   UNL     1       2.581   2.507  19.104  0.00  0.00    +0.000 C 
ATOM     19  F   UNL     1       1.224   2.560  19.033  0.00  0.00    +0.000 F 
ATOM     20  F   UNL     1       2.932   1.260  18.685  0.00  0.00    +0.000 F 
ATOM     21  F   UNL     1       2.888   2.557  20.429  0.00  0.00    +0.000 F 
ENDBRANCH  12  18
ENDBRANCH   1  15
BRANCH   5  22
ATOM     22  C   UNL     1       0.521  11.873  19.098  0.00  0.00    +0.000 C 
ATOM     23  C   UNL     1       1.770  12.652  18.579  0.00  0.00    +0.000 C 
ATOM     24  O   UNL     1       1.275  13.898  19.117  0.00  0.00    +0.000 OA
ATOM     25  C   UNL     1       0.312  13.168  19.926  0.00  0.00    +0.000 C 
BRANCH  22  26
ATOM     26  N   UNL     1      -0.455  11.674  18.032  0.00  0.00    +0.000 N 
ATOM     27  C   UNL     1      -1.789  11.672  18.273  0.00  0.00    +0.000 A 
ATOM     28  N   UNL     1      -2.457  12.246  19.253  0.00  0.00    +0.000 NA
ATOM     29  N   UNL     1      -3.790  11.938  19.112  0.00  0.00    +0.000 NA
ATOM     30  C   UNL     1      -3.907  11.171  18.055  0.00  0.00    +0.000 A 
ATOM     31  N   UNL     1      -2.682  10.983  17.491  0.00  0.00    +0.000 N 
ATOM     32  C   UNL     1      -2.410  10.161  16.344  0.00  0.00    +0.000 C 
ATOM     33  H   UNL     1      -0.093  11.078  17.298  0.00  0.00    +0.000 HD
ENDBRANCH  22  26
ENDBRANCH   5  22
TORSDOF 4
ENDMDL
MODEL 6
REMARK VINA RESULT:      -9.8      4.454      9.007
REMARK  Name = 
REMARK  6 active torsions:
REMARK  status: ('A' for Active; 'I' for Inactive)
REMARK    1  A    between atoms: C_1  and  C_2
REMARK    2  A    between atoms: C_6  and  C_7
REMARK    3  A    between atoms: N_13  and  C_14
REMARK    4  A    between atoms: C_18  and  C_19
REMARK    5  A    between atoms: C_19  and  N_20
REMARK    6  A    between atoms: N_25  and  C_26
REMARK                            x       y       z     vdW  Elec       q    Type
REMARK                         _______ _______ _______ _____ _____    ______ ____
ROOT
ATOM      1  C   UNL     1       1.565   8.399  20.045  0.00  0.00    +0.000 A 
ATOM      2  C   UNL     1       0.941   8.322  21.296  0.00  0.00    +0.000 A 
ATOM      3  C   UNL     1       0.221   9.389  21.818  0.00  0.00    +0.000 A 
ATOM      4  C   UNL     1       0.101  10.558  21.081  0.00  0.00    +0.000 A 
ATOM      5  C   UNL     1       0.698  10.702  19.812  0.00  0.00    +0.000 A 
ATOM      6  C   UNL     1       1.464   9.607  19.338  0.00  0.00    +0.000 A 
ENDROOT
BRANCH   1  15
ATOM      7  C   UNL     1       3.693   1.619  17.912  0.00  0.00    +0.000 C 
ATOM      8  C   UNL     1       3.615   3.114  17.973  0.00  0.00    +0.000 A 
ATOM      9  C   UNL     1       2.823   3.729  18.937  0.00  0.00    +0.000 A 
ATOM     10  C   UNL     1       2.786   5.110  18.957  0.00  0.00    +0.000 A 
ATOM     11  C   UNL     1       3.484   5.919  18.062  0.00  0.00    +0.000 A 
ATOM     12  C   UNL     1       4.293   5.330  17.098  0.00  0.00    +0.000 A 
ATOM     13  C   UNL     1       4.350   3.915  17.067  0.00  0.00    +0.000 A 
ATOM     14  C   UNL     1       3.168   7.357  18.364  0.00  0.00    +0.000 C 
ATOM     15  N   UNL     1       2.241   7.275  19.497  0.00  0.00    +0.000 N 
ATOM     16  C   UNL     1       2.022   5.949  19.875  0.00  0.00    +0.000 C 
ATOM     17  O   UNL     1       1.354   5.456  20.765  0.00  0.00    +0.000 OA
BRANCH  12  18
ATOM     18  C   UNL     1       5.112   6.123  16.111  0.00  0.00    +0.000 C 
ATOM     19  F   UNL     1       4.440   7.171  15.561  0.00  0.00    +0.000 F 
ATOM     20  F   UNL     1       6.233   6.648  16.675  0.00  0.00    +0.000 F 
ATOM     21  F   UNL     1       5.539   5.364  15.065  0.00  0.00    +0.000 F 
ENDBRANCH  12  18
ENDBRANCH   1  15
BRANCH   5  22
ATOM     22  C   UNL     1       0.469  12.024  18.963  0.00  0.00    +0.000 C 
ATOM     23  C   UNL     1       1.759  12.685  18.383  0.00  0.00    +0.000 C 
ATOM     24  O   UNL     1       1.322  14.002  18.786  0.00  0.00    +0.000 OA
ATOM     25  C   UNL     1       0.318  13.405  19.653  0.00  0.00    +0.000 C 
BRANCH  22  26
ATOM     26  N   UNL     1      -0.507  11.766  17.910  0.00  0.00    +0.000 N 
ATOM     27  C   UNL     1      -1.838  11.712  18.165  0.00  0.00    +0.000 A 
ATOM     28  N   UNL     1      -2.520  12.277  19.141  0.00  0.00    +0.000 NA
ATOM     29  N   UNL     1      -3.841  11.912  19.019  0.00  0.00    +0.000 NA
ATOM     30  C   UNL     1      -3.935  11.121  17.977  0.00  0.00    +0.000 A 
ATOM     31  N   UNL     1      -2.708  10.973  17.404  0.00  0.00    +0.000 N 
ATOM     32  C   UNL     1      -2.414  10.142  16.270  0.00  0.00    +0.000 C 
ATOM     33  H   UNL     1      -0.128  11.171  17.185  0.00  0.00    +0.000 HD
ENDBRANCH  22  26
ENDBRANCH   5  22
TORSDOF 4
ENDMDL
MODEL 7
REMARK VINA RESULT:      -9.7      3.857      8.741
REMARK  Name = 
REMARK  6 active torsions:
REMARK  status: ('A' for Active; 'I' for Inactive)
REMARK    1  A    between atoms: C_1  and  C_2
REMARK    2  A    between atoms: C_6  and  C_7
REMARK    3  A    between atoms: N_13  and  C_14
REMARK    4  A    between atoms: C_18  and  C_19
REMARK    5  A    between atoms: C_19  and  N_20
REMARK    6  A    between atoms: N_25  and  C_26
REMARK                            x       y       z     vdW  Elec       q    Type
REMARK                         _______ _______ _______ _____ _____    ______ ____
ROOT
ATOM      1  C   UNL     1       1.760   7.937  19.732  0.00  0.00    +0.000 A 
ATOM      2  C   UNL     1       1.426   7.678  21.067  0.00  0.00    +0.000 A 
ATOM      3  C   UNL     1       0.760   8.616  21.846  0.00  0.00    +0.000 A 
ATOM      4  C   UNL     1       0.401   9.835  21.290  0.00  0.00    +0.000 A 
ATOM      5  C   UNL     1       0.699  10.158  19.951  0.00  0.00    +0.000 A 
ATOM      6  C   UNL     1       1.423   9.193  19.206  0.00  0.00    +0.000 A 
ENDROOT
BRANCH   1  15
ATOM      7  C   UNL     1       6.205   4.081  15.212  0.00  0.00    +0.000 C 
ATOM      8  C   UNL     1       5.152   4.370  16.238  0.00  0.00    +0.000 A 
ATOM      9  C   UNL     1       4.806   5.686  16.525  0.00  0.00    +0.000 A 
ATOM     10  C   UNL     1       3.827   5.904  17.476  0.00  0.00    +0.000 A 
ATOM     11  C   UNL     1       3.178   4.885  18.170  0.00  0.00    +0.000 A 
ATOM     12  C   UNL     1       3.496   3.560  17.893  0.00  0.00    +0.000 A 
ATOM     13  C   UNL     1       4.492   3.318  16.916  0.00  0.00    +0.000 A 
ATOM     14  C   UNL     1       2.214   5.501  19.144  0.00  0.00    +0.000 C 
ATOM     15  N   UNL     1       2.382   6.942  18.929  0.00  0.00    +0.000 N 
ATOM     16  C   UNL     1       3.320   7.196  17.926  0.00  0.00    +0.000 C 
ATOM     17  O   UNL     1       3.726   8.234  17.436  0.00  0.00    +0.000 OA
BRANCH  12  18
ATOM     18  C   UNL     1       2.823   2.391  18.567  0.00  0.00    +0.000 C 
ATOM     19  F   UNL     1       2.885   2.434  19.925  0.00  0.00    +0.000 F 
ATOM     20  F   UNL     1       1.502   2.305  18.253  0.00  0.00    +0.000 F 
ATOM     21  F   UNL     1       3.373   1.199  18.206  0.00  0.00    +0.000 F 
ENDBRANCH  12  18
ENDBRANCH   1  15
BRANCH   5  22
ATOM     22  C   UNL     1       0.199  11.530  19.326  0.00  0.00    +0.000 C 
ATOM     23  C   UNL     1      -0.770  12.365  20.221  0.00  0.00    +0.000 C 
ATOM     24  O   UNL     1      -1.648  12.629  19.105  0.00  0.00    +0.000 OA
ATOM     25  C   UNL     1      -0.999  11.574  18.342  0.00  0.00    +0.000 C 
BRANCH  22  26
ATOM     26  N   UNL     1       1.349  12.326  18.912  0.00  0.00    +0.000 N 
ATOM     27  C   UNL     1       2.053  13.080  19.793  0.00  0.00    +0.000 A 
ATOM     28  N   UNL     1       2.184  12.930  21.096  0.00  0.00    +0.000 NA
ATOM     29  N   UNL     1       2.960  13.958  21.578  0.00  0.00    +0.000 NA
ATOM     30  C   UNL     1       3.277  14.722  20.560  0.00  0.00    +0.000 A 
ATOM     31  N   UNL     1       2.739  14.208  19.420  0.00  0.00    +0.000 N 
ATOM     32  C   UNL     1       2.835  14.800  18.114  0.00  0.00    +0.000 C 
ATOM     33  H   UNL     1       1.256  12.654  17.960  0.00  0.00    +0.000 HD
ENDBRANCH  22  26
ENDBRANCH   5  22
TORSDOF 4
ENDMDL
MODEL 8
REMARK VINA RESULT:      -9.6      3.945      8.738
REMARK  Name = 
REMARK  6 active torsions:
REMARK  status: ('A' for Active; 'I' for Inactive)
REMARK    1  A    between atoms: C_1  and  C_2
REMARK    2  A    between atoms: C_6  and  C_7
REMARK    3  A    between atoms: N_13  and  C_14
REMARK    4  A    between atoms: C_18  and  C_19
REMARK    5  A    between atoms: C_19  and  N_20
REMARK    6  A    between atoms: N_25  and  C_26
REMARK                            x       y       z     vdW  Elec       q    Type
REMARK                         _______ _______ _______ _____ _____    ______ ____
ROOT
ATOM      1  C   UNL     1       1.401   8.558  20.059  0.00  0.00    +0.000 A 
ATOM      2  C   UNL     1       1.201   8.294  21.420  0.00  0.00    +0.000 A 
ATOM      3  C   UNL     1       0.459   9.147  22.226  0.00  0.00    +0.000 A 
ATOM      4  C   UNL     1      -0.115  10.283  21.673  0.00  0.00    +0.000 A 
ATOM      5  C   UNL     1       0.039  10.606  20.310  0.00  0.00    +0.000 A 
ATOM      6  C   UNL     1       0.845   9.735  19.534  0.00  0.00    +0.000 A 
ENDROOT
BRANCH   1  15
ATOM      7  C   UNL     1       5.961   5.283  15.210  0.00  0.00    +0.000 C 
ATOM      8  C   UNL     1       4.996   5.444  16.344  0.00  0.00    +0.000 A 
ATOM      9  C   UNL     1       4.438   6.690  16.609  0.00  0.00    +0.000 A 
ATOM     10  C   UNL     1       3.550   6.789  17.663  0.00  0.00    +0.000 A 
ATOM     11  C   UNL     1       3.191   5.719  18.480  0.00  0.00    +0.000 A 
ATOM     12  C   UNL     1       3.723   4.460  18.228  0.00  0.00    +0.000 A 
ATOM     13  C   UNL     1       4.631   4.338  17.148  0.00  0.00    +0.000 A 
ATOM     14  C   UNL     1       2.243   6.214  19.536  0.00  0.00    +0.000 C 
ATOM     15  N   UNL     1       2.107   7.642  19.234  0.00  0.00    +0.000 N 
ATOM     16  C   UNL     1       2.859   7.994  18.111  0.00  0.00    +0.000 C 
ATOM     17  O   UNL     1       3.000   9.052  17.525  0.00  0.00    +0.000 OA
BRANCH  12  18
ATOM     18  C   UNL     1       3.368   3.237  19.036  0.00  0.00    +0.000 C 
ATOM     19  F   UNL     1       2.034   2.978  19.077  0.00  0.00    +0.000 F 
ATOM     20  F   UNL     1       3.957   2.110  18.550  0.00  0.00    +0.000 F 
ATOM     21  F   UNL     1       3.769   3.339  20.333  0.00  0.00    +0.000 F 
ENDBRANCH  12  18
ENDBRANCH   1  15
BRANCH   5  22
ATOM     22  C   UNL     1      -0.702  11.870  19.696  0.00  0.00    +0.000 C 
ATOM     23  C   UNL     1      -0.003  12.529  18.467  0.00  0.00    +0.000 C 
ATOM     24  O   UNL     1      -0.209  13.855  19.002  0.00  0.00    +0.000 OA
ATOM     25  C   UNL     1      -0.514  13.284  20.304  0.00  0.00    +0.000 C 
BRANCH  22  26
ATOM     26  N   UNL     1      -2.085  11.523  19.390  0.00  0.00    +0.000 N 
ATOM     27  C   UNL     1      -2.449  11.027  18.181  0.00  0.00    +0.000 A 
ATOM     28  N   UNL     1      -1.722  10.368  17.301  0.00  0.00    +0.000 NA
ATOM     29  N   UNL     1      -2.505  10.100  16.202  0.00  0.00    +0.000 NA
ATOM     30  C   UNL     1      -3.691  10.612  16.429  0.00  0.00    +0.000 A 
ATOM     31  N   UNL     1      -3.707  11.195  17.660  0.00  0.00    +0.000 N 
ATOM     32  C   UNL     1      -4.820  11.900  18.232  0.00  0.00    +0.000 C 
ATOM     33  H   UNL     1      -2.739  12.112  19.889  0.00  0.00    +0.000 HD
ENDBRANCH  22  26
ENDBRANCH   5  22
TORSDOF 4
ENDMDL
MODEL 9
REMARK VINA RESULT:      -9.4      3.996      8.624
REMARK  Name = 
REMARK  6 active torsions:
REMARK  status: ('A' for Active; 'I' for Inactive)
REMARK    1  A    between atoms: C_1  and  C_2
REMARK    2  A    between atoms: C_6  and  C_7
REMARK    3  A    between atoms: N_13  and  C_14
REMARK    4  A    between atoms: C_18  and  C_19
REMARK    5  A    between atoms: C_19  and  N_20
REMARK    6  A    between atoms: N_25  and  C_26
REMARK                            x       y       z     vdW  Elec       q    Type
REMARK                         _______ _______ _______ _____ _____    ______ ____
ROOT
ATOM      1  C   UNL     1       1.209   8.623  20.566  0.00  0.00    +0.000 A 
ATOM      2  C   UNL     1       1.123   8.695  21.962  0.00  0.00    +0.000 A 
ATOM      3  C   UNL     1       0.484   9.751  22.599  0.00  0.00    +0.000 A 
ATOM      4  C   UNL     1      -0.097  10.756  21.839  0.00  0.00    +0.000 A 
ATOM      5  C   UNL     1      -0.055  10.743  20.431  0.00  0.00    +0.000 A 
ATOM      6  C   UNL     1       0.648   9.673  19.822  0.00  0.00    +0.000 A 
ENDROOT
BRANCH   1  15
ATOM      7  C   UNL     1       5.258   4.062  16.341  0.00  0.00    +0.000 C 
ATOM      8  C   UNL     1       4.375   4.532  17.457  0.00  0.00    +0.000 A 
ATOM      9  C   UNL     1       3.910   5.843  17.469  0.00  0.00    +0.000 A 
ATOM     10  C   UNL     1       3.097   6.230  18.517  0.00  0.00    +0.000 A 
ATOM     11  C   UNL     1       2.726   5.389  19.564  0.00  0.00    +0.000 A 
ATOM     12  C   UNL     1       3.166   4.070  19.570  0.00  0.00    +0.000 A 
ATOM     13  C   UNL     1       3.995   3.654  18.500  0.00  0.00    +0.000 A 
ATOM     14  C   UNL     1       1.876   6.166  20.530  0.00  0.00    +0.000 C 
ATOM     15  N   UNL     1       1.807   7.502  19.929  0.00  0.00    +0.000 N 
ATOM     16  C   UNL     1       2.508   7.549  18.722  0.00  0.00    +0.000 C 
ATOM     17  O   UNL     1       2.675   8.443  17.913  0.00  0.00    +0.000 OA
BRANCH  12  18
ATOM     18  C   UNL     1       2.789   3.079  20.641  0.00  0.00    +0.000 C 
ATOM     19  F   UNL     1       2.442   3.657  21.823  0.00  0.00    +0.000 F 
ATOM     20  F   UNL     1       1.733   2.302  20.277  0.00  0.00    +0.000 F 
ATOM     21  F   UNL     1       3.804   2.219  20.930  0.00  0.00    +0.000 F 
ENDBRANCH  12  18
ENDBRANCH   1  15
BRANCH   5  22
ATOM     22  C   UNL     1      -0.804  11.866  19.595  0.00  0.00    +0.000 C 
ATOM     23  C   UNL     1      -2.341  11.980  19.842  0.00  0.00    +0.000 C 
ATOM     24  O   UNL     1      -2.609  12.081  18.426  0.00  0.00    +0.000 OA
ATOM     25  C   UNL     1      -1.264  11.609  18.136  0.00  0.00    +0.000 C 
BRANCH  22  26
ATOM     26  N   UNL     1      -0.143  13.150  19.801  0.00  0.00    +0.000 N 
ATOM     27  C   UNL     1       1.112  13.391  19.346  0.00  0.00    +0.000 A 
ATOM     28  N   UNL     1       1.756  12.825  18.345  0.00  0.00    +0.000 NA
ATOM     29  N   UNL     1       3.021  13.362  18.280  0.00  0.00    +0.000 NA
ATOM     30  C   UNL     1       3.127  14.237  19.251  0.00  0.00    +0.000 A 
ATOM     31  N   UNL     1       1.954  14.296  19.941  0.00  0.00    +0.000 N 
ATOM     32  C   UNL     1       1.711  15.109  21.101  0.00  0.00    +0.000 C 
ATOM     33  H   UNL     1      -0.440  13.592  20.661  0.00  0.00    +0.000 HD
ENDBRANCH  22  26
ENDBRANCH   5  22
TORSDOF 4
ENDMDL
