MODEL 1
REMARK VINA RESULT:      -7.6      0.000      0.000
REMARK  Name = 
REMARK  4 active torsions:
REMARK  status: ('A' for Active; 'I' for Inactive)
REMARK    1  A    between atoms: C_1  and  C_2
REMARK    2  A    between atoms: C_12  and  C_13
REMARK    3  A    between atoms: C_15  and  C_16
REMARK    4  A    between atoms: C_16  and  C_17
REMARK                            x       y       z     vdW  Elec       q    Type
REMARK                         _______ _______ _______ _____ _____    ______ ____
ROOT
ATOM      1  C   UNL     1       3.127   7.182  18.630  0.00  0.00    +0.000 A 
ATOM      2  N   UNL     1       2.647   8.084  17.801  0.00  0.00    +0.000 NA
ATOM      3  C   UNL     1       1.688   8.702  18.572  0.00  0.00    +0.000 A 
ATOM      4  N   UNL     1       1.605   8.249  19.831  0.00  0.00    +0.000 NA
ATOM      5  O   UNL     1       2.562   7.239  19.873  0.00  0.00    +0.000 OA
ENDROOT
BRANCH   1  17
ATOM      6  C   UNL     1       2.377   2.966  17.226  0.00  0.00    +0.000 C 
ATOM      7  C   UNL     1       2.665   4.258  17.934  0.00  0.00    +0.000 C 
ATOM      8  O   UNL     1       1.932   4.590  18.871  0.00  0.00    +0.000 OA
ATOM      9  N   UNL     1       3.763   5.014  17.574  0.00  0.00    +0.000 N 
ATOM     10  C   UNL     1       4.777   4.792  16.619  0.00  0.00    +0.000 A 
ATOM     11  C   UNL     1       4.900   3.826  15.632  0.00  0.00    +0.000 A 
ATOM     12  C   UNL     1       6.049   3.812  14.829  0.00  0.00    +0.000 A 
ATOM     13  C   UNL     1       7.067   4.755  15.013  0.00  0.00    +0.000 A 
ATOM     14  C   UNL     1       6.939   5.737  15.990  0.00  0.00    +0.000 A 
ATOM     15  C   UNL     1       5.791   5.744  16.774  0.00  0.00    +0.000 A 
ATOM     16  C   UNL     1       5.454   6.745  17.832  0.00  0.00    +0.000 C 
ATOM     17  C   UNL     1       4.182   6.143  18.451  0.00  0.00    +0.000 C 
ENDBRANCH   1  17
BRANCH   3  18
ATOM     18  C   UNL     1       0.750   9.714  18.026  0.00  0.00    +0.000 C 
BRANCH  18  19
ATOM     19  C   UNL     1       0.881  10.941  18.883  0.00  0.00    +0.000 A 
ATOM     20  C   UNL     1       1.887  11.881  18.650  0.00  0.00    +0.000 A 
ATOM     21  F   UNL     1       2.756  11.694  17.646  0.00  0.00    +0.000 F 
ATOM     22  C   UNL     1       2.004  13.033  19.425  0.00  0.00    +0.000 A 
ATOM     23  C   UNL     1       1.104  13.264  20.465  0.00  0.00    +0.000 A 
ATOM     24  C   UNL     1       0.093  12.337  20.716  0.00  0.00    +0.000 A 
ATOM     25  C   UNL     1      -0.010  11.191  19.929  0.00  0.00    +0.000 A 
ATOM     26  F   UNL     1      -1.005  10.329  20.179  0.00  0.00    +0.000 F 
ENDBRANCH  18  19
ENDBRANCH   3  18
TORSDOF 3
ENDMDL
MODEL 2
REMARK VINA RESULT:      -7.6      0.042      1.616
REMARK  Name = 
REMARK  4 active torsions:
REMARK  status: ('A' for Active; 'I' for Inactive)
REMARK    1  A    between atoms: C_1  and  C_2
REMARK    2  A    between atoms: C_12  and  C_13
REMARK    3  A    between atoms: C_15  and  C_16
REMARK    4  A    between atoms: C_16  and  C_17
REMARK                            x       y       z     vdW  Elec       q    Type
REMARK                         _______ _______ _______ _____ _____    ______ ____
ROOT
ATOM      1  C   UNL     1       3.092   7.200  18.648  0.00  0.00    +0.000 A 
ATOM      2  N   UNL     1       2.614   8.096  17.810  0.00  0.00    +0.000 NA
ATOM      3  C   UNL     1       1.658   8.725  18.576  0.00  0.00    +0.000 A 
ATOM      4  N   UNL     1       1.576   8.286  19.839  0.00  0.00    +0.000 NA
ATOM      5  O   UNL     1       2.529   7.273  19.890  0.00  0.00    +0.000 OA
ENDROOT
BRANCH   1  17
ATOM      6  C   UNL     1       2.332   2.991  17.228  0.00  0.00    +0.000 C 
ATOM      7  C   UNL     1       2.621   4.281  17.942  0.00  0.00    +0.000 C 
ATOM      8  O   UNL     1       1.881   4.615  18.872  0.00  0.00    +0.000 OA
ATOM      9  N   UNL     1       3.727   5.031  17.594  0.00  0.00    +0.000 N 
ATOM     10  C   UNL     1       4.749   4.805  16.648  0.00  0.00    +0.000 A 
ATOM     11  C   UNL     1       4.876   3.840  15.661  0.00  0.00    +0.000 A 
ATOM     12  C   UNL     1       6.033   3.822  14.870  0.00  0.00    +0.000 A 
ATOM     13  C   UNL     1       7.055   4.758  15.066  0.00  0.00    +0.000 A 
ATOM     14  C   UNL     1       6.922   5.739  16.044  0.00  0.00    +0.000 A 
ATOM     15  C   UNL     1       5.767   5.751  16.816  0.00  0.00    +0.000 A 
ATOM     16  C   UNL     1       5.424   6.752  17.872  0.00  0.00    +0.000 C 
ATOM     17  C   UNL     1       4.143   6.157  18.477  0.00  0.00    +0.000 C 
ENDBRANCH   1  17
BRANCH   3  18
ATOM     18  C   UNL     1       0.723   9.735  18.021  0.00  0.00    +0.000 C 
BRANCH  18  19
ATOM     19  C   UNL     1       0.858  10.969  18.866  0.00  0.00    +0.000 A 
ATOM     20  C   UNL     1      -0.019  11.221  19.923  0.00  0.00    +0.000 A 
ATOM     21  F   UNL     1      -1.002  10.351  20.197  0.00  0.00    +0.000 F 
ATOM     22  C   UNL     1       0.110  12.351  20.727  0.00  0.00    +0.000 A 
ATOM     23  C   UNL     1       1.134  13.266  20.479  0.00  0.00    +0.000 A 
ATOM     24  C   UNL     1       2.019  13.035  19.426  0.00  0.00    +0.000 A 
ATOM     25  C   UNL     1       1.875  11.898  18.634  0.00  0.00    +0.000 A 
ATOM     26  F   UNL     1       2.754  11.691  17.645  0.00  0.00    +0.000 F 
ENDBRANCH  18  19
ENDBRANCH   3  18
TORSDOF 3
ENDMDL
MODEL 3
REMARK VINA RESULT:      -7.5      3.112      8.187
REMARK  Name = 
REMARK  4 active torsions:
REMARK  status: ('A' for Active; 'I' for Inactive)
REMARK    1  A    between atoms: C_1  and  C_2
REMARK    2  A    between atoms: C_12  and  C_13
REMARK    3  A    between atoms: C_15  and  C_16
REMARK    4  A    between atoms: C_16  and  C_17
REMARK                            x       y       z     vdW  Elec       q    Type
REMARK                         _______ _______ _______ _____ _____    ______ ____
ROOT
ATOM      1  C   UNL     1       1.381   9.565  18.754  0.00  0.00    +0.000 A 
ATOM      2  N   UNL     1       1.953   8.884  17.784  0.00  0.00    +0.000 NA
ATOM      3  C   UNL     1       2.310   7.718  18.422  0.00  0.00    +0.000 A 
ATOM      4  N   UNL     1       1.938   7.647  19.708  0.00  0.00    +0.000 NA
ATOM      5  O   UNL     1       1.319   8.874  19.931  0.00  0.00    +0.000 OA
ENDROOT
BRANCH   1  17
ATOM      6  C   UNL     1      -2.977  10.470  18.045  0.00  0.00    +0.000 C 
ATOM      7  C   UNL     1      -1.488  10.272  18.037  0.00  0.00    +0.000 C 
ATOM      8  O   UNL     1      -0.995   9.561  17.156  0.00  0.00    +0.000 OA
ATOM      9  N   UNL     1      -0.698  10.927  18.961  0.00  0.00    +0.000 N 
ATOM     10  C   UNL     1      -1.021  11.846  19.981  0.00  0.00    +0.000 A 
ATOM     11  C   UNL     1      -2.248  12.258  20.478  0.00  0.00    +0.000 A 
ATOM     12  C   UNL     1      -2.285  13.231  21.488  0.00  0.00    +0.000 A 
ATOM     13  C   UNL     1      -1.105  13.787  21.993  0.00  0.00    +0.000 A 
ATOM     14  C   UNL     1       0.129  13.364  21.509  0.00  0.00    +0.000 A 
ATOM     15  C   UNL     1       0.151  12.393  20.514  0.00  0.00    +0.000 A 
ATOM     16  C   UNL     1       1.374  11.780  19.911  0.00  0.00    +0.000 C 
ATOM     17  C   UNL     1       0.780  10.929  18.777  0.00  0.00    +0.000 C 
ENDBRANCH   1  17
BRANCH   3  18
ATOM     18  C   UNL     1       3.131   6.666  17.772  0.00  0.00    +0.000 C 
BRANCH  18  19
ATOM     19  C   UNL     1       2.796   5.367  18.447  0.00  0.00    +0.000 A 
ATOM     20  C   UNL     1       1.683   4.618  18.059  0.00  0.00    +0.000 A 
ATOM     21  F   UNL     1       0.894   5.058  17.068  0.00  0.00    +0.000 F 
ATOM     22  C   UNL     1       1.374   3.401  18.663  0.00  0.00    +0.000 A 
ATOM     23  C   UNL     1       2.186   2.908  19.685  0.00  0.00    +0.000 A 
ATOM     24  C   UNL     1       3.301   3.642  20.089  0.00  0.00    +0.000 A 
ATOM     25  C   UNL     1       3.595   4.857  19.472  0.00  0.00    +0.000 A 
ATOM     26  F   UNL     1       4.685   5.528  19.865  0.00  0.00    +0.000 F 
ENDBRANCH  18  19
ENDBRANCH   3  18
TORSDOF 3
ENDMDL
MODEL 4
REMARK VINA RESULT:      -7.5      3.533      8.333
REMARK  Name = 
REMARK  4 active torsions:
REMARK  status: ('A' for Active; 'I' for Inactive)
REMARK    1  A    between atoms: C_1  and  C_2
REMARK    2  A    between atoms: C_12  and  C_13
REMARK    3  A    between atoms: C_15  and  C_16
REMARK    4  A    between atoms: C_16  and  C_17
REMARK                            x       y       z     vdW  Elec       q    Type
REMARK                         _______ _______ _______ _____ _____    ______ ____
ROOT
ATOM      1  C   UNL     1       1.216   9.222  19.834  0.00  0.00    +0.000 A 
ATOM      2  N   UNL     1       2.097   8.481  19.197  0.00  0.00    +0.000 NA
ATOM      3  C   UNL     1       2.093   7.323  19.943  0.00  0.00    +0.000 A 
ATOM      4  N   UNL     1       1.221   7.317  20.961  0.00  0.00    +0.000 NA
ATOM      5  O   UNL     1       0.636   8.578  20.891  0.00  0.00    +0.000 OA
ENDROOT
BRANCH   1  17
ATOM      6  C   UNL     1      -2.377  10.300  17.337  0.00  0.00    +0.000 C 
ATOM      7  C   UNL     1      -1.038  10.035  17.962  0.00  0.00    +0.000 C 
ATOM      8  O   UNL     1      -0.258   9.274  17.380  0.00  0.00    +0.000 OA
ATOM      9  N   UNL     1      -0.678  10.682  19.127  0.00  0.00    +0.000 N 
ATOM     10  C   UNL     1      -1.351  11.648  19.905  0.00  0.00    +0.000 A 
ATOM     11  C   UNL     1      -2.648  12.131  19.831  0.00  0.00    +0.000 A 
ATOM     12  C   UNL     1      -3.054  13.136  20.720  0.00  0.00    +0.000 A 
ATOM     13  C   UNL     1      -2.170  13.655  21.672  0.00  0.00    +0.000 A 
ATOM     14  C   UNL     1      -0.873  13.161  21.761  0.00  0.00    +0.000 A 
ATOM     15  C   UNL     1      -0.485  12.159  20.879  0.00  0.00    +0.000 A 
ATOM     16  C   UNL     1       0.842  11.471  20.856  0.00  0.00    +0.000 C 
ATOM     17  C   UNL     1       0.737  10.612  19.586  0.00  0.00    +0.000 C 
ENDBRANCH   1  17
BRANCH   3  18
ATOM     18  C   UNL     1       3.048   6.212  19.706  0.00  0.00    +0.000 C 
BRANCH  18  19
ATOM     19  C   UNL     1       2.243   4.946  19.651  0.00  0.00    +0.000 A 
ATOM     20  C   UNL     1       2.021   4.180  20.797  0.00  0.00    +0.000 A 
ATOM     21  F   UNL     1       2.530   4.575  21.973  0.00  0.00    +0.000 F 
ATOM     22  C   UNL     1       1.258   3.015  20.762  0.00  0.00    +0.000 A 
ATOM     23  C   UNL     1       0.699   2.588  19.556  0.00  0.00    +0.000 A 
ATOM     24  C   UNL     1       0.912   3.336  18.399  0.00  0.00    +0.000 A 
ATOM     25  C   UNL     1       1.676   4.500  18.454  0.00  0.00    +0.000 A 
ATOM     26  F   UNL     1       1.844   5.210  17.331  0.00  0.00    +0.000 F 
ENDBRANCH  18  19
ENDBRANCH   3  18
TORSDOF 3
ENDMDL
MODEL 5
REMARK VINA RESULT:      -7.5      3.578      8.288
REMARK  Name = 
REMARK  4 active torsions:
REMARK  status: ('A' for Active; 'I' for Inactive)
REMARK    1  A    between atoms: C_1  and  C_2
REMARK    2  A    between atoms: C_12  and  C_13
REMARK    3  A    between atoms: C_15  and  C_16
REMARK    4  A    between atoms: C_16  and  C_17
REMARK                            x       y       z     vdW  Elec       q    Type
REMARK                         _______ _______ _______ _____ _____    ______ ____
ROOT
ATOM      1  C   UNL     1       1.151   9.224  19.944  0.00  0.00    +0.000 A 
ATOM      2  N   UNL     1       2.054   8.483  19.337  0.00  0.00    +0.000 NA
ATOM      3  C   UNL     1       2.033   7.330  20.090  0.00  0.00    +0.000 A 
ATOM      4  N   UNL     1       1.133   7.326  21.083  0.00  0.00    +0.000 NA
ATOM      5  O   UNL     1       0.544   8.584  20.988  0.00  0.00    +0.000 OA
ENDROOT
BRANCH   1  17
ATOM      6  C   UNL     1      -2.281  10.279  17.221  0.00  0.00    +0.000 C 
ATOM      7  C   UNL     1      -0.983  10.024  17.931  0.00  0.00    +0.000 C 
ATOM      8  O   UNL     1      -0.157   9.277  17.398  0.00  0.00    +0.000 OA
ATOM      9  N   UNL     1      -0.709  10.668  19.122  0.00  0.00    +0.000 N 
ATOM     10  C   UNL     1      -1.443  11.620  19.860  0.00  0.00    +0.000 A 
ATOM     11  C   UNL     1      -2.738  12.088  19.703  0.00  0.00    +0.000 A 
ATOM     12  C   UNL     1      -3.215  13.083  20.570  0.00  0.00    +0.000 A 
ATOM     13  C   UNL     1      -2.402  13.605  21.582  0.00  0.00    +0.000 A 
ATOM     14  C   UNL     1      -1.108  13.124  21.753  0.00  0.00    +0.000 A 
ATOM     15  C   UNL     1      -0.650  12.133  20.892  0.00  0.00    +0.000 A 
ATOM     16  C   UNL     1       0.684  11.461  20.954  0.00  0.00    +0.000 C 
ATOM     17  C   UNL     1       0.674  10.610  19.674  0.00  0.00    +0.000 C 
ENDBRANCH   1  17
BRANCH   3  18
ATOM     18  C   UNL     1       3.000   6.222  19.887  0.00  0.00    +0.000 C 
BRANCH  18  19
ATOM     19  C   UNL     1       2.198   4.960  19.747  0.00  0.00    +0.000 A 
ATOM     20  C   UNL     1       1.645   4.588  18.519  0.00  0.00    +0.000 A 
ATOM     21  F   UNL     1       1.829   5.364  17.441  0.00  0.00    +0.000 F 
ATOM     22  C   UNL     1       0.918   3.409  18.372  0.00  0.00    +0.000 A 
ATOM     23  C   UNL     1       0.725   2.571  19.472  0.00  0.00    +0.000 A 
ATOM     24  C   UNL     1       1.266   2.925  20.707  0.00  0.00    +0.000 A 
ATOM     25  C   UNL     1       1.993   4.108  20.834  0.00  0.00    +0.000 A 
ATOM     26  F   UNL     1       2.520   4.411  22.028  0.00  0.00    +0.000 F 
ENDBRANCH  18  19
ENDBRANCH   3  18
TORSDOF 3
ENDMDL
MODEL 6
REMARK VINA RESULT:      -7.5      3.063      8.093
REMARK  Name = 
REMARK  4 active torsions:
REMARK  status: ('A' for Active; 'I' for Inactive)
REMARK    1  A    between atoms: C_1  and  C_2
REMARK    2  A    between atoms: C_12  and  C_13
REMARK    3  A    between atoms: C_15  and  C_16
REMARK    4  A    between atoms: C_16  and  C_17
REMARK                            x       y       z     vdW  Elec       q    Type
REMARK                         _______ _______ _______ _____ _____    ______ ____
ROOT
ATOM      1  C   UNL     1       1.443   9.614  18.638  0.00  0.00    +0.000 A 
ATOM      2  N   UNL     1       2.055   8.943  17.685  0.00  0.00    +0.000 NA
ATOM      3  C   UNL     1       2.385   7.770  18.327  0.00  0.00    +0.000 A 
ATOM      4  N   UNL     1       1.961   7.687  19.595  0.00  0.00    +0.000 NA
ATOM      5  O   UNL     1       1.332   8.912  19.805  0.00  0.00    +0.000 OA
ENDROOT
BRANCH   1  17
ATOM      6  C   UNL     1      -2.946  10.494  18.111  0.00  0.00    +0.000 C 
ATOM      7  C   UNL     1      -1.459  10.297  18.037  0.00  0.00    +0.000 C 
ATOM      8  O   UNL     1      -1.007   9.560  17.155  0.00  0.00    +0.000 OA
ATOM      9  N   UNL     1      -0.627  10.980  18.903  0.00  0.00    +0.000 N 
ATOM     10  C   UNL     1      -0.903  11.929  19.909  0.00  0.00    +0.000 A 
ATOM     11  C   UNL     1      -2.106  12.355  20.451  0.00  0.00    +0.000 A 
ATOM     12  C   UNL     1      -2.096  13.357  21.432  0.00  0.00    +0.000 A 
ATOM     13  C   UNL     1      -0.895  13.930  21.864  0.00  0.00    +0.000 A 
ATOM     14  C   UNL     1       0.315  13.493  21.334  0.00  0.00    +0.000 A 
ATOM     15  C   UNL     1       0.292  12.493  20.368  0.00  0.00    +0.000 A 
ATOM     16  C   UNL     1       1.486  11.862  19.726  0.00  0.00    +0.000 C 
ATOM     17  C   UNL     1       0.840  10.978  18.648  0.00  0.00    +0.000 C 
ENDBRANCH   1  17
BRANCH   3  18
ATOM     18  C   UNL     1       3.234   6.725  17.701  0.00  0.00    +0.000 C 
BRANCH  18  19
ATOM     19  C   UNL     1       2.891   5.424  18.369  0.00  0.00    +0.000 A 
ATOM     20  C   UNL     1       3.685   4.908  19.395  0.00  0.00    +0.000 A 
ATOM     21  F   UNL     1       4.773   5.578  19.800  0.00  0.00    +0.000 F 
ATOM     22  C   UNL     1       3.364   3.713  20.036  0.00  0.00    +0.000 A 
ATOM     23  C   UNL     1       2.228   3.001  19.650  0.00  0.00    +0.000 A 
ATOM     24  C   UNL     1       1.423   3.498  18.625  0.00  0.00    +0.000 A 
ATOM     25  C   UNL     1       1.758   4.696  17.997  0.00  0.00    +0.000 A 
ATOM     26  F   UNL     1       0.954   5.160  17.032  0.00  0.00    +0.000 F 
ENDBRANCH  18  19
ENDBRANCH   3  18
TORSDOF 3
ENDMDL
MODEL 7
REMARK VINA RESULT:      -7.3      4.455      8.918
REMARK  Name = 
REMARK  4 active torsions:
REMARK  status: ('A' for Active; 'I' for Inactive)
REMARK    1  A    between atoms: C_1  and  C_2
REMARK    2  A    between atoms: C_12  and  C_13
REMARK    3  A    between atoms: C_15  and  C_16
REMARK    4  A    between atoms: C_16  and  C_17
REMARK                            x       y       z     vdW  Elec       q    Type
REMARK                         _______ _______ _______ _____ _____    ______ ____
ROOT
ATOM      1  C   UNL     1       6.013   4.522  15.991  0.00  0.00    +0.000 A 
ATOM      2  N   UNL     1       5.601   4.370  14.750  0.00  0.00    +0.000 NA
ATOM      3  C   UNL     1       6.711   4.750  14.029  0.00  0.00    +0.000 A 
ATOM      4  N   UNL     1       7.777   5.074  14.773  0.00  0.00    +0.000 NA
ATOM      5  O   UNL     1       7.317   4.922  16.078  0.00  0.00    +0.000 OA
ENDROOT
BRANCH   1  17
ATOM      6  C   UNL     1       3.088   7.410  17.838  0.00  0.00    +0.000 C 
ATOM      7  C   UNL     1       4.230   6.533  17.414  0.00  0.00    +0.000 C 
ATOM      8  O   UNL     1       5.291   7.070  17.081  0.00  0.00    +0.000 OA
ATOM      9  N   UNL     1       4.101   5.158  17.460  0.00  0.00    +0.000 N 
ATOM     10  C   UNL     1       3.040   4.334  17.889  0.00  0.00    +0.000 A 
ATOM     11  C   UNL     1       1.737   4.643  18.247  0.00  0.00    +0.000 A 
ATOM     12  C   UNL     1       0.885   3.616  18.678  0.00  0.00    +0.000 A 
ATOM     13  C   UNL     1       1.334   2.293  18.752  0.00  0.00    +0.000 A 
ATOM     14  C   UNL     1       2.635   1.976  18.377  0.00  0.00    +0.000 A 
ATOM     15  C   UNL     1       3.467   3.002  17.944  0.00  0.00    +0.000 A 
ATOM     16  C   UNL     1       4.871   2.850  17.454  0.00  0.00    +0.000 C 
ATOM     17  C   UNL     1       5.316   4.312  17.291  0.00  0.00    +0.000 C 
ENDBRANCH   1  17
BRANCH   3  18
ATOM     18  C   UNL     1       6.697   4.892  12.551  0.00  0.00    +0.000 C 
BRANCH  18  19
ATOM     19  C   UNL     1       6.421   3.530  11.982  0.00  0.00    +0.000 A 
ATOM     20  C   UNL     1       5.113   3.081  11.786  0.00  0.00    +0.000 A 
ATOM     21  F   UNL     1       4.080   3.873  12.107  0.00  0.00    +0.000 F 
ATOM     22  C   UNL     1       4.845   1.828  11.239  0.00  0.00    +0.000 A 
ATOM     23  C   UNL     1       5.899   0.988  10.878  0.00  0.00    +0.000 A 
ATOM     24  C   UNL     1       7.212   1.416  11.068  0.00  0.00    +0.000 A 
ATOM     25  C   UNL     1       7.461   2.674  11.615  0.00  0.00    +0.000 A 
ATOM     26  F   UNL     1       8.733   3.067  11.765  0.00  0.00    +0.000 F 
ENDBRANCH  18  19
ENDBRANCH   3  18
TORSDOF 3
ENDMDL
MODEL 8
REMARK VINA RESULT:      -7.3      1.340      1.945
REMARK  Name = 
REMARK  4 active torsions:
REMARK  status: ('A' for Active; 'I' for Inactive)
REMARK    1  A    between atoms: C_1  and  C_2
REMARK    2  A    between atoms: C_12  and  C_13
REMARK    3  A    between atoms: C_15  and  C_16
REMARK    4  A    between atoms: C_16  and  C_17
REMARK                            x       y       z     vdW  Elec       q    Type
REMARK                         _______ _______ _______ _____ _____    ______ ____
ROOT
ATOM      1  C   UNL     1       2.830   7.308  18.886  0.00  0.00    +0.000 A 
ATOM      2  N   UNL     1       2.089   7.623  19.927  0.00  0.00    +0.000 NA
ATOM      3  C   UNL     1       1.316   8.649  19.430  0.00  0.00    +0.000 A 
ATOM      4  N   UNL     1       1.523   8.928  18.136  0.00  0.00    +0.000 NA
ATOM      5  O   UNL     1       2.528   8.038  17.771  0.00  0.00    +0.000 OA
ENDROOT
BRANCH   1  17
ATOM      6  C   UNL     1       2.182   3.088  17.441  0.00  0.00    +0.000 C 
ATOM      7  C   UNL     1       2.434   4.381  18.162  0.00  0.00    +0.000 C 
ATOM      8  O   UNL     1       1.679   4.693  19.089  0.00  0.00    +0.000 OA
ATOM      9  N   UNL     1       3.524   5.159  17.827  0.00  0.00    +0.000 N 
ATOM     10  C   UNL     1       4.558   4.962  16.887  0.00  0.00    +0.000 A 
ATOM     11  C   UNL     1       4.715   4.006  15.897  0.00  0.00    +0.000 A 
ATOM     12  C   UNL     1       5.878   4.019  15.113  0.00  0.00    +0.000 A 
ATOM     13  C   UNL     1       6.875   4.978  15.321  0.00  0.00    +0.000 A 
ATOM     14  C   UNL     1       6.712   5.951  16.303  0.00  0.00    +0.000 A 
ATOM     15  C   UNL     1       5.551   5.931  17.067  0.00  0.00    +0.000 A 
ATOM     16  C   UNL     1       5.178   6.919  18.125  0.00  0.00    +0.000 C 
ATOM     17  C   UNL     1       3.907   6.290  18.717  0.00  0.00    +0.000 C 
ENDBRANCH   1  17
BRANCH   3  18
ATOM     18  C   UNL     1       0.404   9.451  20.283  0.00  0.00    +0.000 C 
BRANCH  18  19
ATOM     19  C   UNL     1       0.061  10.693  19.512  0.00  0.00    +0.000 A 
ATOM     20  C   UNL     1      -1.055  10.739  18.673  0.00  0.00    +0.000 A 
ATOM     21  F   UNL     1      -1.841   9.660  18.549  0.00  0.00    +0.000 F 
ATOM     22  C   UNL     1      -1.394  11.892  17.970  0.00  0.00    +0.000 A 
ATOM     23  C   UNL     1      -0.605  13.037  18.093  0.00  0.00    +0.000 A 
ATOM     24  C   UNL     1       0.515  13.012  18.923  0.00  0.00    +0.000 A 
ATOM     25  C   UNL     1       0.838  11.850  19.620  0.00  0.00    +0.000 A 
ATOM     26  F   UNL     1       1.906  11.862  20.428  0.00  0.00    +0.000 F 
ENDBRANCH  18  19
ENDBRANCH   3  18
TORSDOF 3
ENDMDL
MODEL 9
REMARK VINA RESULT:      -7.3      4.472      8.820
REMARK  Name = 
REMARK  4 active torsions:
REMARK  status: ('A' for Active; 'I' for Inactive)
REMARK    1  A    between atoms: C_1  and  C_2
REMARK    2  A    between atoms: C_12  and  C_13
REMARK    3  A    between atoms: C_15  and  C_16
REMARK    4  A    between atoms: C_16  and  C_17
REMARK                            x       y       z     vdW  Elec       q    Type
REMARK                         _______ _______ _______ _____ _____    ______ ____
ROOT
ATOM      1  C   UNL     1       6.035   4.525  15.941  0.00  0.00    +0.000 A 
ATOM      2  N   UNL     1       5.613   4.381  14.703  0.00  0.00    +0.000 NA
ATOM      3  C   UNL     1       6.723   4.749  13.976  0.00  0.00    +0.000 A 
ATOM      4  N   UNL     1       7.798   5.057  14.714  0.00  0.00    +0.000 NA
ATOM      5  O   UNL     1       7.344   4.908  16.022  0.00  0.00    +0.000 OA
ENDROOT
BRANCH   1  17
ATOM      6  C   UNL     1       3.131   7.431  17.796  0.00  0.00    +0.000 C 
ATOM      7  C   UNL     1       4.268   6.547  17.368  0.00  0.00    +0.000 C 
ATOM      8  O   UNL     1       5.330   7.079  17.029  0.00  0.00    +0.000 OA
ATOM      9  N   UNL     1       4.133   5.174  17.418  0.00  0.00    +0.000 N 
ATOM     10  C   UNL     1       3.069   4.355  17.853  0.00  0.00    +0.000 A 
ATOM     11  C   UNL     1       1.769   4.671  18.217  0.00  0.00    +0.000 A 
ATOM     12  C   UNL     1       0.915   3.649  18.654  0.00  0.00    +0.000 A 
ATOM     13  C   UNL     1       1.358   2.324  18.729  0.00  0.00    +0.000 A 
ATOM     14  C   UNL     1       2.656   2.001  18.349  0.00  0.00    +0.000 A 
ATOM     15  C   UNL     1       3.490   3.022  17.910  0.00  0.00    +0.000 A 
ATOM     16  C   UNL     1       4.892   2.862  17.413  0.00  0.00    +0.000 C 
ATOM     17  C   UNL     1       5.342   4.321  17.246  0.00  0.00    +0.000 C 
ENDBRANCH   1  17
BRANCH   3  18
ATOM     18  C   UNL     1       6.703   4.894  12.499  0.00  0.00    +0.000 C 
BRANCH  18  19
ATOM     19  C   UNL     1       6.426   3.533  11.928  0.00  0.00    +0.000 A 
ATOM     20  C   UNL     1       7.467   2.668  11.585  0.00  0.00    +0.000 A 
ATOM     21  F   UNL     1       8.739   3.049  11.765  0.00  0.00    +0.000 F 
ATOM     22  C   UNL     1       7.221   1.395  11.075  0.00  0.00    +0.000 A 
ATOM     23  C   UNL     1       5.907   0.962  10.892  0.00  0.00    +0.000 A 
ATOM     24  C   UNL     1       4.852   1.812  11.226  0.00  0.00    +0.000 A 
ATOM     25  C   UNL     1       5.118   3.081  11.737  0.00  0.00    +0.000 A 
ATOM     26  F   UNL     1       4.085   3.867  12.070  0.00  0.00    +0.000 F 
ENDBRANCH  18  19
ENDBRANCH   3  18
TORSDOF 3
ENDMDL
