MODEL 1
REMARK VINA RESULT:      -7.5      0.000      0.000
REMARK  Name = 
REMARK  6 active torsions:
REMARK  status: ('A' for Active; 'I' for Inactive)
REMARK    1  A    between atoms: C_1  and  C_2
REMARK    2  A    between atoms: C_6  and  N_7
REMARK    3  A    between atoms: C_8  and  C_10
REMARK    4  A    between atoms: C_18  and  N_19
REMARK    5  A    between atoms: C_20  and  C_22
REMARK    6  A    between atoms: C_26  and  C_27
REMARK                            x       y       z     vdW  Elec       q    Type
REMARK                         _______ _______ _______ _____ _____    ______ ____
ROOT
ATOM      1  C   UNL     1       3.884   6.686  17.241  0.00  0.00    +0.000 A 
ATOM      2  O   UNL     1       4.550   7.111  16.127  0.00  0.00    +0.000 OA
ATOM      3  C   UNL     1       5.275   6.047  15.672  0.00  0.00    +0.000 A 
ATOM      4  C   UNL     1       6.106   6.059  14.549  0.00  0.00    +0.000 A 
ATOM      5  C   UNL     1       6.758   4.864  14.223  0.00  0.00    +0.000 A 
ATOM      6  C   UNL     1       6.561   3.712  14.981  0.00  0.00    +0.000 A 
ATOM      7  C   UNL     1       5.717   3.728  16.099  0.00  0.00    +0.000 A 
ATOM      8  C   UNL     1       5.074   4.926  16.479  0.00  0.00    +0.000 A 
ATOM      9  C   UNL     1       4.195   5.354  17.516  0.00  0.00    +0.000 A 
ENDROOT
BRANCH   1  11
ATOM     10  N   UNL     1       2.514   8.687  17.335  0.00  0.00    +0.000 N 
ATOM     11  C   UNL     1       3.025   7.581  18.003  0.00  0.00    +0.000 C 
ATOM     12  O   UNL     1       2.776   7.306  19.180  0.00  0.00    +0.000 OA
ATOM     13  H   UNL     1       2.681   8.730  16.336  0.00  0.00    +0.000 HD
BRANCH  10  19
ATOM     14  C   UNL     1       2.055  13.327  19.062  0.00  0.00    +0.000 C 
ATOM     15  C   UNL     1       1.464  11.978  18.764  0.00  0.00    +0.000 A 
ATOM     16  C   UNL     1       0.100  11.764  18.977  0.00  0.00    +0.000 A 
ATOM     17  C   UNL     1      -0.463  10.527  18.692  0.00  0.00    +0.000 A 
ATOM     18  C   UNL     1       0.328   9.502  18.168  0.00  0.00    +0.000 A 
ATOM     19  C   UNL     1       1.691   9.693  17.915  0.00  0.00    +0.000 A 
ATOM     20  C   UNL     1       2.260  10.933  18.249  0.00  0.00    +0.000 A 
ENDBRANCH  10  19
ENDBRANCH   1  11
BRANCH   9  21
ATOM     21  N   UNL     1       3.664   4.710  18.634  0.00  0.00    +0.000 N 
ATOM     22  C   UNL     1       2.771   3.655  18.663  0.00  0.00    +0.000 C 
ATOM     23  O   UNL     1       2.305   3.120  17.663  0.00  0.00    +0.000 OA
ATOM     24  H   UNL     1       4.122   4.952  19.513  0.00  0.00    +0.000 HD
BRANCH  22  25
ATOM     25  C   UNL     1       2.455   3.154  19.989  0.00  0.00    +0.000 A 
ATOM     26  S   UNL     1       0.933   3.372  20.748  0.00  0.00    +0.000 S 
ATOM     27  N   UNL     1       1.386   2.566  22.133  0.00  0.00    +0.000 NA
ATOM     28  N   UNL     1       2.628   2.119  22.084  0.00  0.00    +0.000 NA
ATOM     29  C   UNL     1       3.248   2.439  20.880  0.00  0.00    +0.000 A 
ATOM     30  C   UNL     1       4.658   2.005  20.694  0.00  0.00    +0.000 C 
ENDBRANCH  22  25
ENDBRANCH   9  21
TORSDOF 4
ENDMDL
MODEL 2
REMARK VINA RESULT:      -7.4      0.488      1.390
REMARK  Name = 
REMARK  6 active torsions:
REMARK  status: ('A' for Active; 'I' for Inactive)
REMARK    1  A    between atoms: C_1  and  C_2
REMARK    2  A    between atoms: C_6  and  N_7
REMARK    3  A    between atoms: C_8  and  C_10
REMARK    4  A    between atoms: C_18  and  N_19
REMARK    5  A    between atoms: C_20  and  C_22
REMARK    6  A    between atoms: C_26  and  C_27
REMARK                            x       y       z     vdW  Elec       q    Type
REMARK                         _______ _______ _______ _____ _____    ______ ____
ROOT
ATOM      1  C   UNL     1       3.740   6.732  17.330  0.00  0.00    +0.000 A 
ATOM      2  O   UNL     1       4.411   7.179  16.227  0.00  0.00    +0.000 OA
ATOM      3  C   UNL     1       5.173   6.136  15.782  0.00  0.00    +0.000 A 
ATOM      4  C   UNL     1       6.021   6.175  14.672  0.00  0.00    +0.000 A 
ATOM      5  C   UNL     1       6.712   5.000  14.354  0.00  0.00    +0.000 A 
ATOM      6  C   UNL     1       6.535   3.841  15.106  0.00  0.00    +0.000 A 
ATOM      7  C   UNL     1       5.673   3.830  16.210  0.00  0.00    +0.000 A 
ATOM      8  C   UNL     1       4.991   5.009  16.583  0.00  0.00    +0.000 A 
ATOM      9  C   UNL     1       4.084   5.408  17.607  0.00  0.00    +0.000 A 
ENDROOT
BRANCH   1  11
ATOM     10  N   UNL     1       2.270   8.663  17.392  0.00  0.00    +0.000 N 
ATOM     11  C   UNL     1       2.843   7.600  18.080  0.00  0.00    +0.000 C 
ATOM     12  O   UNL     1       2.620   7.341  19.265  0.00  0.00    +0.000 OA
ATOM     13  H   UNL     1       2.426   8.690  16.390  0.00  0.00    +0.000 HD
BRANCH  10  19
ATOM     14  C   UNL     1      -2.367  10.247  18.237  0.00  0.00    +0.000 C 
ATOM     15  C   UNL     1      -0.880  10.419  18.375  0.00  0.00    +0.000 A 
ATOM     16  C   UNL     1      -0.379  11.482  19.131  0.00  0.00    +0.000 A 
ATOM     17  C   UNL     1       0.993  11.644  19.280  0.00  0.00    +0.000 A 
ATOM     18  C   UNL     1       1.872  10.732  18.695  0.00  0.00    +0.000 A 
ATOM     19  C   UNL     1       1.403   9.639  17.957  0.00  0.00    +0.000 A 
ATOM     20  C   UNL     1       0.017   9.509  17.775  0.00  0.00    +0.000 A 
ENDBRANCH  10  19
ENDBRANCH   1  11
BRANCH   9  21
ATOM     21  N   UNL     1       3.553   4.747  18.714  0.00  0.00    +0.000 N 
ATOM     22  C   UNL     1       2.863   3.549  18.740  0.00  0.00    +0.000 C 
ATOM     23  O   UNL     1       2.613   2.878  17.744  0.00  0.00    +0.000 OA
ATOM     24  H   UNL     1       3.860   5.122  19.612  0.00  0.00    +0.000 HD
BRANCH  22  25
ATOM     25  C   UNL     1       2.494   3.081  20.064  0.00  0.00    +0.000 A 
ATOM     26  S   UNL     1       0.961   3.364  20.778  0.00  0.00    +0.000 S 
ATOM     27  N   UNL     1       1.348   2.563  22.186  0.00  0.00    +0.000 NA
ATOM     28  N   UNL     1       2.574   2.072  22.177  0.00  0.00    +0.000 NA
ATOM     29  C   UNL     1       3.237   2.351  20.986  0.00  0.00    +0.000 A 
ATOM     30  C   UNL     1       4.636   1.866  20.844  0.00  0.00    +0.000 C 
ENDBRANCH  22  25
ENDBRANCH   9  21
TORSDOF 4
ENDMDL
MODEL 3
REMARK VINA RESULT:      -7.3      2.098      6.430
REMARK  Name = 
REMARK  6 active torsions:
REMARK  status: ('A' for Active; 'I' for Inactive)
REMARK    1  A    between atoms: C_1  and  C_2
REMARK    2  A    between atoms: C_6  and  N_7
REMARK    3  A    between atoms: C_8  and  C_10
REMARK    4  A    between atoms: C_18  and  N_19
REMARK    5  A    between atoms: C_20  and  C_22
REMARK    6  A    between atoms: C_26  and  C_27
REMARK                            x       y       z     vdW  Elec       q    Type
REMARK                         _______ _______ _______ _____ _____    ______ ____
ROOT
ATOM      1  C   UNL     1       2.496   8.003  18.654  0.00  0.00    +0.000 A 
ATOM      2  O   UNL     1       1.831   9.192  18.552  0.00  0.00    +0.000 OA
ATOM      3  C   UNL     1       1.069   9.315  19.679  0.00  0.00    +0.000 A 
ATOM      4  C   UNL     1       0.226  10.391  19.969  0.00  0.00    +0.000 A 
ATOM      5  C   UNL     1      -0.465  10.351  21.186  0.00  0.00    +0.000 A 
ATOM      6  C   UNL     1      -0.295   9.291  22.071  0.00  0.00    +0.000 A 
ATOM      7  C   UNL     1       0.562   8.228  21.756  0.00  0.00    +0.000 A 
ATOM      8  C   UNL     1       1.245   8.216  20.521  0.00  0.00    +0.000 A 
ATOM      9  C   UNL     1       2.148   7.350  19.837  0.00  0.00    +0.000 A 
ENDROOT
BRANCH   1  11
ATOM     10  N   UNL     1       4.286   6.530  17.937  0.00  0.00    +0.000 N 
ATOM     11  C   UNL     1       3.390   7.538  17.603  0.00  0.00    +0.000 C 
ATOM     12  O   UNL     1       3.294   8.037  16.479  0.00  0.00    +0.000 OA
ATOM     13  H   UNL     1       4.175   6.110  18.853  0.00  0.00    +0.000 HD
BRANCH  10  19
ATOM     14  C   UNL     1       5.316   3.914  13.836  0.00  0.00    +0.000 C 
ATOM     15  C   UNL     1       5.769   4.685  15.043  0.00  0.00    +0.000 A 
ATOM     16  C   UNL     1       7.134   4.918  15.238  0.00  0.00    +0.000 A 
ATOM     17  C   UNL     1       7.565   5.643  16.341  0.00  0.00    +0.000 A 
ATOM     18  C   UNL     1       6.636   6.161  17.245  0.00  0.00    +0.000 A 
ATOM     19  C   UNL     1       5.261   5.972  17.064  0.00  0.00    +0.000 A 
ATOM     20  C   UNL     1       4.837   5.200  15.969  0.00  0.00    +0.000 A 
ENDBRANCH  10  19
ENDBRANCH   1  11
BRANCH   9  21
ATOM     21  N   UNL     1       2.672   6.094  20.143  0.00  0.00    +0.000 N 
ATOM     22  C   UNL     1       2.340   4.875  19.582  0.00  0.00    +0.000 C 
ATOM     23  O   UNL     1       1.500   4.729  18.700  0.00  0.00    +0.000 OA
ATOM     24  H   UNL     1       3.505   6.120  20.731  0.00  0.00    +0.000 HD
BRANCH  22  25
ATOM     25  C   UNL     1       3.115   3.746  20.066  0.00  0.00    +0.000 A 
ATOM     26  S   UNL     1       4.660   3.323  19.454  0.00  0.00    +0.000 S 
ATOM     27  N   UNL     1       4.823   2.011  20.468  0.00  0.00    +0.000 NA
ATOM     28  N   UNL     1       3.784   1.849  21.267  0.00  0.00    +0.000 NA
ATOM     29  C   UNL     1       2.809   2.820  21.058  0.00  0.00    +0.000 A 
ATOM     30  C   UNL     1       1.576   2.749  21.885  0.00  0.00    +0.000 C 
ENDBRANCH  22  25
ENDBRANCH   9  21
TORSDOF 4
ENDMDL
MODEL 4
REMARK VINA RESULT:      -7.2      2.699      5.349
REMARK  Name = 
REMARK  6 active torsions:
REMARK  status: ('A' for Active; 'I' for Inactive)
REMARK    1  A    between atoms: C_1  and  C_2
REMARK    2  A    between atoms: C_6  and  N_7
REMARK    3  A    between atoms: C_8  and  C_10
REMARK    4  A    between atoms: C_18  and  N_19
REMARK    5  A    between atoms: C_20  and  C_22
REMARK    6  A    between atoms: C_26  and  C_27
REMARK                            x       y       z     vdW  Elec       q    Type
REMARK                         _______ _______ _______ _____ _____    ______ ____
ROOT
ATOM      1  C   UNL     1       2.409   6.099  19.514  0.00  0.00    +0.000 A 
ATOM      2  O   UNL     1       1.537   5.639  20.460  0.00  0.00    +0.000 OA
ATOM      3  C   UNL     1       1.930   4.367  20.770  0.00  0.00    +0.000 A 
ATOM      4  C   UNL     1       1.299   3.533  21.697  0.00  0.00    +0.000 A 
ATOM      5  C   UNL     1       1.856   2.265  21.899  0.00  0.00    +0.000 A 
ATOM      6  C   UNL     1       3.004   1.872  21.216  0.00  0.00    +0.000 A 
ATOM      7  C   UNL     1       3.619   2.732  20.297  0.00  0.00    +0.000 A 
ATOM      8  C   UNL     1       3.061   4.003  20.040  0.00  0.00    +0.000 A 
ATOM      9  C   UNL     1       3.351   5.118  19.201  0.00  0.00    +0.000 A 
ENDROOT
BRANCH   1  11
ATOM     10  N   UNL     1       1.541   8.361  19.658  0.00  0.00    +0.000 N 
ATOM     11  C   UNL     1       2.271   7.427  18.933  0.00  0.00    +0.000 C 
ATOM     12  O   UNL     1       2.820   7.662  17.854  0.00  0.00    +0.000 OA
ATOM     13  H   UNL     1       1.255   8.087  20.591  0.00  0.00    +0.000 HD
BRANCH  10  19
ATOM     14  C   UNL     1      -1.645  12.174  19.460  0.00  0.00    +0.000 C 
ATOM     15  C   UNL     1      -0.305  11.572  19.145  0.00  0.00    +0.000 A 
ATOM     16  C   UNL     1       0.675  12.358  18.531  0.00  0.00    +0.000 A 
ATOM     17  C   UNL     1       1.923  11.818  18.249  0.00  0.00    +0.000 A 
ATOM     18  C   UNL     1       2.210  10.498  18.599  0.00  0.00    +0.000 A 
ATOM     19  C   UNL     1       1.263   9.693  19.241  0.00  0.00    +0.000 A 
ATOM     20  C   UNL     1      -0.011  10.233  19.483  0.00  0.00    +0.000 A 
ENDBRANCH  10  19
ENDBRANCH   1  11
BRANCH   9  21
ATOM     21  N   UNL     1       4.324   5.345  18.227  0.00  0.00    +0.000 N 
ATOM     22  C   UNL     1       5.689   5.148  18.327  0.00  0.00    +0.000 C 
ATOM     23  O   UNL     1       6.252   4.730  19.333  0.00  0.00    +0.000 OA
ATOM     24  H   UNL     1       3.950   5.519  17.294  0.00  0.00    +0.000 HD
BRANCH  22  25
ATOM     25  C   UNL     1       6.438   5.412  17.111  0.00  0.00    +0.000 A 
ATOM     26  S   UNL     1       6.429   4.372  15.747  0.00  0.00    +0.000 S 
ATOM     27  N   UNL     1       7.470   5.333  14.871  0.00  0.00    +0.000 NA
ATOM     28  N   UNL     1       7.841   6.417  15.528  0.00  0.00    +0.000 NA
ATOM     29  C   UNL     1       7.267   6.482  16.794  0.00  0.00    +0.000 A 
ATOM     30  C   UNL     1       7.611   7.649  17.649  0.00  0.00    +0.000 C 
ENDBRANCH  22  25
ENDBRANCH   9  21
TORSDOF 4
ENDMDL
MODEL 5
REMARK VINA RESULT:      -7.1      3.848      4.742
REMARK  Name = 
REMARK  6 active torsions:
REMARK  status: ('A' for Active; 'I' for Inactive)
REMARK    1  A    between atoms: C_1  and  C_2
REMARK    2  A    between atoms: C_6  and  N_7
REMARK    3  A    between atoms: C_8  and  C_10
REMARK    4  A    between atoms: C_18  and  N_19
REMARK    5  A    between atoms: C_20  and  C_22
REMARK    6  A    between atoms: C_26  and  C_27
REMARK                            x       y       z     vdW  Elec       q    Type
REMARK                         _______ _______ _______ _____ _____    ______ ____
ROOT
ATOM      1  C   UNL     1       6.992   6.241  16.335  0.00  0.00    +0.000 A 
ATOM      2  O   UNL     1       7.757   5.974  15.235  0.00  0.00    +0.000 OA
ATOM      3  C   UNL     1       7.038   5.114  14.455  0.00  0.00    +0.000 A 
ATOM      4  C   UNL     1       7.464   4.585  13.233  0.00  0.00    +0.000 A 
ATOM      5  C   UNL     1       6.580   3.731  12.564  0.00  0.00    +0.000 A 
ATOM      6  C   UNL     1       5.323   3.446  13.090  0.00  0.00    +0.000 A 
ATOM      7  C   UNL     1       4.920   3.996  14.314  0.00  0.00    +0.000 A 
ATOM      8  C   UNL     1       5.801   4.830  15.036  0.00  0.00    +0.000 A 
ATOM      9  C   UNL     1       5.788   5.538  16.273  0.00  0.00    +0.000 A 
ENDROOT
BRANCH   1  11
ATOM     10  N   UNL     1       7.838   8.404  17.039  0.00  0.00    +0.000 N 
ATOM     11  C   UNL     1       7.467   7.114  17.398  0.00  0.00    +0.000 C 
ATOM     12  O   UNL     1       7.492   6.682  18.553  0.00  0.00    +0.000 OA
ATOM     13  H   UNL     1       7.644   8.681  16.083  0.00  0.00    +0.000 HD
BRANCH  10  19
ATOM     14  C   UNL     1       8.704  13.200  18.025  0.00  0.00    +0.000 C 
ATOM     15  C   UNL     1       8.786  11.750  18.411  0.00  0.00    +0.000 A 
ATOM     16  C   UNL     1       9.289  11.400  19.667  0.00  0.00    +0.000 A 
ATOM     17  C   UNL     1       9.356  10.065  20.043  0.00  0.00    +0.000 A 
ATOM     18  C   UNL     1       8.898   9.070  19.176  0.00  0.00    +0.000 A 
ATOM     19  C   UNL     1       8.361   9.388  17.924  0.00  0.00    +0.000 A 
ATOM     20  C   UNL     1       8.339  10.737  17.535  0.00  0.00    +0.000 A 
ENDBRANCH  10  19
ENDBRANCH   1  11
BRANCH   9  21
ATOM     21  N   UNL     1       4.856   5.621  17.308  0.00  0.00    +0.000 N 
ATOM     22  C   UNL     1       4.193   4.586  17.939  0.00  0.00    +0.000 C 
ATOM     23  O   UNL     1       4.341   3.401  17.659  0.00  0.00    +0.000 OA
ATOM     24  H   UNL     1       4.794   6.543  17.742  0.00  0.00    +0.000 HD
BRANCH  22  25
ATOM     25  C   UNL     1       3.329   4.989  19.035  0.00  0.00    +0.000 A 
ATOM     26  S   UNL     1       2.653   6.558  19.183  0.00  0.00    +0.000 S 
ATOM     27  N   UNL     1       1.865   6.202  20.608  0.00  0.00    +0.000 NA
ATOM     28  N   UNL     1       2.062   4.958  21.005  0.00  0.00    +0.000 NA
ATOM     29  C   UNL     1       2.883   4.255  20.130  0.00  0.00    +0.000 A 
ATOM     30  C   UNL     1       3.198   2.841  20.464  0.00  0.00    +0.000 C 
ENDBRANCH  22  25
ENDBRANCH   9  21
TORSDOF 4
ENDMDL
MODEL 6
REMARK VINA RESULT:      -7.0      3.900      5.093
REMARK  Name = 
REMARK  6 active torsions:
REMARK  status: ('A' for Active; 'I' for Inactive)
REMARK    1  A    between atoms: C_1  and  C_2
REMARK    2  A    between atoms: C_6  and  N_7
REMARK    3  A    between atoms: C_8  and  C_10
REMARK    4  A    between atoms: C_18  and  N_19
REMARK    5  A    between atoms: C_20  and  C_22
REMARK    6  A    between atoms: C_26  and  C_27
REMARK                            x       y       z     vdW  Elec       q    Type
REMARK                         _______ _______ _______ _____ _____    ______ ____
ROOT
ATOM      1  C   UNL     1       7.040   6.387  16.433  0.00  0.00    +0.000 A 
ATOM      2  O   UNL     1       7.816   5.941  15.401  0.00  0.00    +0.000 OA
ATOM      3  C   UNL     1       7.025   5.135  14.634  0.00  0.00    +0.000 A 
ATOM      4  C   UNL     1       7.436   4.468  13.476  0.00  0.00    +0.000 A 
ATOM      5  C   UNL     1       6.477   3.697  12.808  0.00  0.00    +0.000 A 
ATOM      6  C   UNL     1       5.167   3.625  13.274  0.00  0.00    +0.000 A 
ATOM      7  C   UNL     1       4.782   4.309  14.434  0.00  0.00    +0.000 A 
ATOM      8  C   UNL     1       5.732   5.064  15.155  0.00  0.00    +0.000 A 
ATOM      9  C   UNL     1       5.754   5.853  16.341  0.00  0.00    +0.000 A 
ENDROOT
BRANCH   1  11
ATOM     10  N   UNL     1       7.848   8.575  17.106  0.00  0.00    +0.000 N 
ATOM     11  C   UNL     1       7.576   7.261  17.467  0.00  0.00    +0.000 C 
ATOM     12  O   UNL     1       7.737   6.806  18.602  0.00  0.00    +0.000 OA
ATOM     13  H   UNL     1       7.546   8.862  16.181  0.00  0.00    +0.000 HD
BRANCH  10  19
ATOM     14  C   UNL     1       8.797  13.374  17.996  0.00  0.00    +0.000 C 
ATOM     15  C   UNL     1       8.875  11.929  18.400  0.00  0.00    +0.000 A 
ATOM     16  C   UNL     1       9.413  11.591  19.645  0.00  0.00    +0.000 A 
ATOM     17  C   UNL     1       9.476  10.260  20.037  0.00  0.00    +0.000 A 
ATOM     18  C   UNL     1       8.981   9.259  19.199  0.00  0.00    +0.000 A 
ATOM     19  C   UNL     1       8.408   9.565  17.960  0.00  0.00    +0.000 A 
ATOM     20  C   UNL     1       8.389  10.909  17.553  0.00  0.00    +0.000 A 
ENDBRANCH  10  19
ENDBRANCH   1  11
BRANCH   9  21
ATOM     21  N   UNL     1       4.791   6.135  17.310  0.00  0.00    +0.000 N 
ATOM     22  C   UNL     1       3.849   5.278  17.848  0.00  0.00    +0.000 C 
ATOM     23  O   UNL     1       3.729   4.100  17.528  0.00  0.00    +0.000 OA
ATOM     24  H   UNL     1       4.918   7.034  17.777  0.00  0.00    +0.000 HD
BRANCH  22  25
ATOM     25  C   UNL     1       3.023   5.852  18.895  0.00  0.00    +0.000 A 
ATOM     26  S   UNL     1       2.540   4.995  20.300  0.00  0.00    +0.000 S 
ATOM     27  N   UNL     1       1.678   6.279  20.919  0.00  0.00    +0.000 NA
ATOM     28  N   UNL     1       1.721   7.347  20.143  0.00  0.00    +0.000 NA
ATOM     29  C   UNL     1       2.478   7.127  18.997  0.00  0.00    +0.000 A 
ATOM     30  C   UNL     1       2.599   8.247  18.026  0.00  0.00    +0.000 C 
ENDBRANCH  22  25
ENDBRANCH   9  21
TORSDOF 4
ENDMDL
MODEL 7
REMARK VINA RESULT:      -6.9      2.742      5.362
REMARK  Name = 
REMARK  6 active torsions:
REMARK  status: ('A' for Active; 'I' for Inactive)
REMARK    1  A    between atoms: C_1  and  C_2
REMARK    2  A    between atoms: C_6  and  N_7
REMARK    3  A    between atoms: C_8  and  C_10
REMARK    4  A    between atoms: C_18  and  N_19
REMARK    5  A    between atoms: C_20  and  C_22
REMARK    6  A    between atoms: C_26  and  C_27
REMARK                            x       y       z     vdW  Elec       q    Type
REMARK                         _______ _______ _______ _____ _____    ______ ____
ROOT
ATOM      1  C   UNL     1       2.283   6.193  19.783  0.00  0.00    +0.000 A 
ATOM      2  O   UNL     1       1.366   5.613  20.613  0.00  0.00    +0.000 OA
ATOM      3  C   UNL     1       1.811   4.346  20.866  0.00  0.00    +0.000 A 
ATOM      4  C   UNL     1       1.159   3.410  21.672  0.00  0.00    +0.000 A 
ATOM      5  C   UNL     1       1.776   2.163  21.831  0.00  0.00    +0.000 A 
ATOM      6  C   UNL     1       3.000   1.889  21.226  0.00  0.00    +0.000 A 
ATOM      7  C   UNL     1       3.634   2.851  20.428  0.00  0.00    +0.000 A 
ATOM      8  C   UNL     1       3.021   4.104  20.214  0.00  0.00    +0.000 A 
ATOM      9  C   UNL     1       3.309   5.295  19.486  0.00  0.00    +0.000 A 
ENDROOT
BRANCH   1  11
ATOM     10  N   UNL     1       1.272   8.388  20.016  0.00  0.00    +0.000 N 
ATOM     11  C   UNL     1       2.110   7.552  19.288  0.00  0.00    +0.000 C 
ATOM     12  O   UNL     1       2.726   7.897  18.277  0.00  0.00    +0.000 OA
ATOM     13  H   UNL     1       0.933   8.029  20.901  0.00  0.00    +0.000 HD
BRANCH  10  19
ATOM     14  C   UNL     1      -1.765  11.564  17.690  0.00  0.00    +0.000 C 
ATOM     15  C   UNL     1      -0.549  11.295  18.530  0.00  0.00    +0.000 A 
ATOM     16  C   UNL     1       0.189  12.370  19.035  0.00  0.00    +0.000 A 
ATOM     17  C   UNL     1       1.307  12.135  19.825  0.00  0.00    +0.000 A 
ATOM     18  C   UNL     1       1.682  10.828  20.138  0.00  0.00    +0.000 A 
ATOM     19  C   UNL     1       0.948   9.730  19.674  0.00  0.00    +0.000 A 
ATOM     20  C   UNL     1      -0.154   9.975  18.839  0.00  0.00    +0.000 A 
ENDBRANCH  10  19
ENDBRANCH   1  11
BRANCH   9  21
ATOM     21  N   UNL     1       4.344   5.650  18.621  0.00  0.00    +0.000 N 
ATOM     22  C   UNL     1       5.704   5.503  18.817  0.00  0.00    +0.000 C 
ATOM     23  O   UNL     1       6.205   5.019  19.826  0.00  0.00    +0.000 OA
ATOM     24  H   UNL     1       4.037   5.893  17.678  0.00  0.00    +0.000 HD
BRANCH  22  25
ATOM     25  C   UNL     1       6.533   5.908  17.695  0.00  0.00    +0.000 A 
ATOM     26  S   UNL     1       7.499   7.325  17.692  0.00  0.00    +0.000 S 
ATOM     27  N   UNL     1       8.071   7.063  16.150  0.00  0.00    +0.000 NA
ATOM     28  N   UNL     1       7.592   5.959  15.606  0.00  0.00    +0.000 NA
ATOM     29  C   UNL     1       6.724   5.290  16.464  0.00  0.00    +0.000 A 
ATOM     30  C   UNL     1       6.100   4.033  15.973  0.00  0.00    +0.000 C 
ENDBRANCH  22  25
ENDBRANCH   9  21
TORSDOF 4
ENDMDL
MODEL 8
REMARK VINA RESULT:      -6.9      1.739      6.383
REMARK  Name = 
REMARK  6 active torsions:
REMARK  status: ('A' for Active; 'I' for Inactive)
REMARK    1  A    between atoms: C_1  and  C_2
REMARK    2  A    between atoms: C_6  and  N_7
REMARK    3  A    between atoms: C_8  and  C_10
REMARK    4  A    between atoms: C_18  and  N_19
REMARK    5  A    between atoms: C_20  and  C_22
REMARK    6  A    between atoms: C_26  and  C_27
REMARK                            x       y       z     vdW  Elec       q    Type
REMARK                         _______ _______ _______ _____ _____    ______ ____
ROOT
ATOM      1  C   UNL     1       2.602   8.088  18.441  0.00  0.00    +0.000 A 
ATOM      2  O   UNL     1       2.122   9.338  18.169  0.00  0.00    +0.000 OA
ATOM      3  C   UNL     1       1.247   9.650  19.171  0.00  0.00    +0.000 A 
ATOM      4  C   UNL     1       0.528  10.844  19.269  0.00  0.00    +0.000 A 
ATOM      5  C   UNL     1      -0.312  10.994  20.379  0.00  0.00    +0.000 A 
ATOM      6  C   UNL     1      -0.401   9.999  21.349  0.00  0.00    +0.000 A 
ATOM      7  C   UNL     1       0.337   8.815  21.227  0.00  0.00    +0.000 A 
ATOM      8  C   UNL     1       1.164   8.613  20.100  0.00  0.00    +0.000 A 
ATOM      9  C   UNL     1       2.021   7.586  19.607  0.00  0.00    +0.000 A 
ENDROOT
BRANCH   1  11
ATOM     10  N   UNL     1       4.329   6.417  18.107  0.00  0.00    +0.000 N 
ATOM     11  C   UNL     1       3.551   7.428  17.557  0.00  0.00    +0.000 C 
ATOM     12  O   UNL     1       3.601   7.775  16.374  0.00  0.00    +0.000 OA
ATOM     13  H   UNL     1       4.100   6.133  19.053  0.00  0.00    +0.000 HD
BRANCH  10  19
ATOM     14  C   UNL     1       5.826   4.132  13.953  0.00  0.00    +0.000 C 
ATOM     15  C   UNL     1       6.074   4.559  15.372  0.00  0.00    +0.000 A 
ATOM     16  C   UNL     1       7.317   4.309  15.958  0.00  0.00    +0.000 A 
ATOM     17  C   UNL     1       7.564   4.712  17.264  0.00  0.00    +0.000 A 
ATOM     18  C   UNL     1       6.580   5.390  17.985  0.00  0.00    +0.000 A 
ATOM     19  C   UNL     1       5.335   5.683  17.418  0.00  0.00    +0.000 A 
ATOM     20  C   UNL     1       5.079   5.232  16.113  0.00  0.00    +0.000 A 
ENDBRANCH  10  19
ENDBRANCH   1  11
BRANCH   9  21
ATOM     21  N   UNL     1       2.326   6.305  20.065  0.00  0.00    +0.000 N 
ATOM     22  C   UNL     1       2.012   5.094  19.477  0.00  0.00    +0.000 C 
ATOM     23  O   UNL     1       1.392   4.980  18.425  0.00  0.00    +0.000 OA
ATOM     24  H   UNL     1       2.997   6.285  20.834  0.00  0.00    +0.000 HD
BRANCH  22  25
ATOM     25  C   UNL     1       2.531   3.924  20.164  0.00  0.00    +0.000 A 
ATOM     26  S   UNL     1       2.202   3.566  21.808  0.00  0.00    +0.000 S 
ATOM     27  N   UNL     1       3.114   2.172  21.800  0.00  0.00    +0.000 NA
ATOM     28  N   UNL     1       3.667   1.928  20.626  0.00  0.00    +0.000 NA
ATOM     29  C   UNL     1       3.348   2.905  19.688  0.00  0.00    +0.000 A 
ATOM     30  C   UNL     1       3.917   2.761  18.321  0.00  0.00    +0.000 C 
ENDBRANCH  22  25
ENDBRANCH   9  21
TORSDOF 4
ENDMDL
MODEL 9
REMARK VINA RESULT:      -6.9      7.366      9.940
REMARK  Name = 
REMARK  6 active torsions:
REMARK  status: ('A' for Active; 'I' for Inactive)
REMARK    1  A    between atoms: C_1  and  C_2
REMARK    2  A    between atoms: C_6  and  N_7
REMARK    3  A    between atoms: C_8  and  C_10
REMARK    4  A    between atoms: C_18  and  N_19
REMARK    5  A    between atoms: C_20  and  C_22
REMARK    6  A    between atoms: C_26  and  C_27
REMARK                            x       y       z     vdW  Elec       q    Type
REMARK                         _______ _______ _______ _____ _____    ______ ____
ROOT
ATOM      1  C   UNL     1       9.594  11.792  18.713  0.00  0.00    +0.000 A 
ATOM      2  O   UNL     1      10.530  11.988  17.737  0.00  0.00    +0.000 OA
ATOM      3  C   UNL     1      10.796  13.328  17.713  0.00  0.00    +0.000 A 
ATOM      4  C   UNL     1      11.699  13.954  16.849  0.00  0.00    +0.000 A 
ATOM      5  C   UNL     1      11.855  15.339  16.982  0.00  0.00    +0.000 A 
ATOM      6  C   UNL     1      11.153  16.048  17.953  0.00  0.00    +0.000 A 
ATOM      7  C   UNL     1      10.258  15.392  18.809  0.00  0.00    +0.000 A 
ATOM      8  C   UNL     1      10.047  14.003  18.677  0.00  0.00    +0.000 A 
ATOM      9  C   UNL     1       9.243  13.007  19.304  0.00  0.00    +0.000 A 
ENDROOT
BRANCH   1  11
ATOM     10  N   UNL     1       8.594   9.728  17.918  0.00  0.00    +0.000 N 
ATOM     11  C   UNL     1       9.058  10.469  18.998  0.00  0.00    +0.000 C 
ATOM     12  O   UNL     1       9.063  10.066  20.164  0.00  0.00    +0.000 OA
ATOM     13  H   UNL     1       8.768  10.114  16.997  0.00  0.00    +0.000 HD
BRANCH  10  19
ATOM     14  C   UNL     1       5.163   6.520  16.288  0.00  0.00    +0.000 C 
ATOM     15  C   UNL     1       6.313   6.855  17.194  0.00  0.00    +0.000 A 
ATOM     16  C   UNL     1       6.839   5.868  18.032  0.00  0.00    +0.000 A 
ATOM     17  C   UNL     1       7.913   6.161  18.863  0.00  0.00    +0.000 A 
ATOM     18  C   UNL     1       8.485   7.434  18.846  0.00  0.00    +0.000 A 
ATOM     19  C   UNL     1       8.002   8.437  17.997  0.00  0.00    +0.000 A 
ATOM     20  C   UNL     1       6.888   8.145  17.193  0.00  0.00    +0.000 A 
ENDBRANCH  10  19
ENDBRANCH   1  11
BRANCH   9  21
ATOM     21  N   UNL     1       8.271  13.063  20.303  0.00  0.00    +0.000 N 
ATOM     22  C   UNL     1       8.445  13.353  21.643  0.00  0.00    +0.000 C 
ATOM     23  O   UNL     1       9.529  13.611  22.156  0.00  0.00    +0.000 OA
ATOM     24  H   UNL     1       7.312  13.045  19.955  0.00  0.00    +0.000 HD
BRANCH  22  25
ATOM     25  C   UNL     1       7.222  13.402  22.425  0.00  0.00    +0.000 A 
ATOM     26  S   UNL     1       5.919  14.463  22.082  0.00  0.00    +0.000 S 
ATOM     27  N   UNL     1       4.999  13.920  23.360  0.00  0.00    +0.000 NA
ATOM     28  N   UNL     1       5.596  12.969  24.055  0.00  0.00    +0.000 NA
ATOM     29  C   UNL     1       6.852  12.660  23.541  0.00  0.00    +0.000 A 
ATOM     30  C   UNL     1       7.643  11.610  24.236  0.00  0.00    +0.000 C 
ENDBRANCH  22  25
ENDBRANCH   9  21
TORSDOF 4
ENDMDL
