MODEL 1
REMARK VINA RESULT:      -8.7      0.000      0.000
REMARK  Name = 
REMARK  4 active torsions:
REMARK  status: ('A' for Active; 'I' for Inactive)
REMARK    1  A    between atoms: C_2  and  C_16
REMARK    2  A    between atoms: N_3  and  C_4
REMARK    3  A    between atoms: C_9  and  C_10
REMARK    4  A    between atoms: C_19  and  C_20
REMARK                            x       y       z     vdW  Elec       q    Type
REMARK                         _______ _______ _______ _____ _____    ______ ____
ROOT
ATOM      1  O   UNL     1       3.077   6.125  20.133  0.00  0.00    +0.000 OA
ATOM      2  C   UNL     1       2.554   6.521  19.092  0.00  0.00    +0.000 C 
ATOM      3  N   UNL     1       2.302   5.692  18.004  0.00  0.00    +0.000 N 
ATOM      4  H   UNL     1       1.601   6.015  17.349  0.00  0.00    +0.000 HD
ENDROOT
BRANCH   3   5
ATOM      5  C   UNL     1       2.596   4.302  18.067  0.00  0.00    +0.000 A 
ATOM      6  C   UNL     1       1.592   3.442  18.557  0.00  0.00    +0.000 A 
ATOM      7  C   UNL     1       1.791   2.067  18.643  0.00  0.00    +0.000 A 
ATOM      8  C   UNL     1       2.987   1.525  18.205  0.00  0.00    +0.000 A 
ATOM      9  C   UNL     1       3.992   2.366  17.719  0.00  0.00    +0.000 A 
ATOM     10  C   UNL     1       3.851   3.777  17.672  0.00  0.00    +0.000 A 
BRANCH  10  11
ATOM     11  C   UNL     1       4.996   4.589  17.180  0.00  0.00    +0.000 A 
ATOM     12  C   UNL     1       5.853   5.300  18.031  0.00  0.00    +0.000 A 
ATOM     13  C   UNL     1       6.934   5.988  17.499  0.00  0.00    +0.000 A 
ATOM     14  N   UNL     1       7.198   6.069  16.181  0.00  0.00    +0.000 NA
ATOM     15  C   UNL     1       6.343   5.433  15.359  0.00  0.00    +0.000 A 
ATOM     16  C   UNL     1       5.260   4.687  15.804  0.00  0.00    +0.000 A 
ENDBRANCH  10  11
ENDBRANCH   3   5
BRANCH   2  17
ATOM     17  C   UNL     1       2.097   7.894  18.975  0.00  0.00    +0.000 A 
ATOM     18  C   UNL     1       2.183   8.721  17.872  0.00  0.00    +0.000 A 
ATOM     19  C   UNL     1       1.601   9.952  18.233  0.00  0.00    +0.000 A 
ATOM     20  C   UNL     1       1.195   9.827  19.548  0.00  0.00    +0.000 A 
ATOM     21  O   UNL     1       1.494   8.567  20.011  0.00  0.00    +0.000 OA
BRANCH  20  22
ATOM     22  C   UNL     1       0.546  10.764  20.463  0.00  0.00    +0.000 A 
ATOM     23  C   UNL     1       0.761  12.149  20.380  0.00  0.00    +0.000 A 
ATOM     24  C   UNL     1       0.176  13.013  21.309  0.00  0.00    +0.000 A 
ATOM     25  C   UNL     1      -0.626  12.501  22.318  0.00  0.00    +0.000 A 
ATOM     26  F   UNL     1      -1.179  13.335  23.215  0.00  0.00    +0.000 F 
ATOM     27  C   UNL     1      -0.863  11.139  22.422  0.00  0.00    +0.000 A 
ATOM     28  C   UNL     1      -0.277  10.274  21.496  0.00  0.00    +0.000 A 
ENDBRANCH  20  22
ENDBRANCH   2  17
TORSDOF 4
ENDMDL
MODEL 2
REMARK VINA RESULT:      -8.6      0.814      1.306
REMARK  Name = 
REMARK  4 active torsions:
REMARK  status: ('A' for Active; 'I' for Inactive)
REMARK    1  A    between atoms: C_2  and  C_16
REMARK    2  A    between atoms: N_3  and  C_4
REMARK    3  A    between atoms: C_9  and  C_10
REMARK    4  A    between atoms: C_19  and  C_20
REMARK                            x       y       z     vdW  Elec       q    Type
REMARK                         _______ _______ _______ _____ _____    ______ ____
ROOT
ATOM      1  O   UNL     1       3.037   6.195  20.078  0.00  0.00    +0.000 OA
ATOM      2  C   UNL     1       2.551   6.537  19.000  0.00  0.00    +0.000 C 
ATOM      3  N   UNL     1       2.320   5.649  17.954  0.00  0.00    +0.000 N 
ATOM      4  H   UNL     1       1.643   5.943  17.261  0.00  0.00    +0.000 HD
ENDROOT
BRANCH   3   5
ATOM      5  C   UNL     1       2.592   4.262  18.105  0.00  0.00    +0.000 A 
ATOM      6  C   UNL     1       1.582   3.454  18.664  0.00  0.00    +0.000 A 
ATOM      7  C   UNL     1       1.760   2.084  18.839  0.00  0.00    +0.000 A 
ATOM      8  C   UNL     1       2.941   1.494  18.423  0.00  0.00    +0.000 A 
ATOM      9  C   UNL     1       3.953   2.284  17.869  0.00  0.00    +0.000 A 
ATOM     10  C   UNL     1       3.834   3.691  17.730  0.00  0.00    +0.000 A 
BRANCH  10  11
ATOM     11  C   UNL     1       4.984   4.449  17.170  0.00  0.00    +0.000 A 
ATOM     12  C   UNL     1       5.241   4.548  15.796  0.00  0.00    +0.000 A 
ATOM     13  C   UNL     1       6.302   5.321  15.348  0.00  0.00    +0.000 A 
ATOM     14  N   UNL     1       7.162   5.960  16.164  0.00  0.00    +0.000 NA
ATOM     15  C   UNL     1       6.950   5.819  17.485  0.00  0.00    +0.000 A 
ATOM     16  C   UNL     1       5.891   5.100  18.022  0.00  0.00    +0.000 A 
ENDBRANCH  10  11
ENDBRANCH   3   5
BRANCH   2  17
ATOM     17  C   UNL     1       2.117   7.906  18.792  0.00  0.00    +0.000 A 
ATOM     18  C   UNL     1       2.454   8.749  17.750  0.00  0.00    +0.000 A 
ATOM     19  C   UNL     1       1.785   9.968  17.973  0.00  0.00    +0.000 A 
ATOM     20  C   UNL     1       1.077   9.822  19.151  0.00  0.00    +0.000 A 
ATOM     21  O   UNL     1       1.273   8.559  19.659  0.00  0.00    +0.000 OA
BRANCH  20  22
ATOM     22  C   UNL     1       0.215  10.739  19.892  0.00  0.00    +0.000 A 
ATOM     23  C   UNL     1       0.470  11.076  21.231  0.00  0.00    +0.000 A 
ATOM     24  C   UNL     1      -0.408  11.906  21.931  0.00  0.00    +0.000 A 
ATOM     25  C   UNL     1      -1.539  12.405  21.301  0.00  0.00    +0.000 A 
ATOM     26  F   UNL     1      -2.386  13.195  21.981  0.00  0.00    +0.000 F 
ATOM     27  C   UNL     1      -1.814  12.096  19.977  0.00  0.00    +0.000 A 
ATOM     28  C   UNL     1      -0.938  11.265  19.277  0.00  0.00    +0.000 A 
ENDBRANCH  20  22
ENDBRANCH   2  17
TORSDOF 4
ENDMDL
MODEL 3
REMARK VINA RESULT:      -8.5      0.781      1.180
REMARK  Name = 
REMARK  4 active torsions:
REMARK  status: ('A' for Active; 'I' for Inactive)
REMARK    1  A    between atoms: C_2  and  C_16
REMARK    2  A    between atoms: N_3  and  C_4
REMARK    3  A    between atoms: C_9  and  C_10
REMARK    4  A    between atoms: C_19  and  C_20
REMARK                            x       y       z     vdW  Elec       q    Type
REMARK                         _______ _______ _______ _____ _____    ______ ____
ROOT
ATOM      1  O   UNL     1       2.492   6.231  20.391  0.00  0.00    +0.000 OA
ATOM      2  C   UNL     1       2.279   6.768  19.304  0.00  0.00    +0.000 C 
ATOM      3  N   UNL     1       2.363   6.091  18.092  0.00  0.00    +0.000 N 
ATOM      4  H   UNL     1       1.872   6.510  17.312  0.00  0.00    +0.000 HD
ENDROOT
BRANCH   3   5
ATOM      5  C   UNL     1       2.653   4.700  18.056  0.00  0.00    +0.000 A 
ATOM      6  C   UNL     1       1.568   3.803  18.127  0.00  0.00    +0.000 A 
ATOM      7  C   UNL     1       1.760   2.425  18.088  0.00  0.00    +0.000 A 
ATOM      8  C   UNL     1       3.041   1.921  17.940  0.00  0.00    +0.000 A 
ATOM      9  C   UNL     1       4.127   2.799  17.870  0.00  0.00    +0.000 A 
ATOM     10  C   UNL     1       3.979   4.207  17.967  0.00  0.00    +0.000 A 
BRANCH  10  11
ATOM     11  C   UNL     1       5.201   5.054  17.928  0.00  0.00    +0.000 A 
ATOM     12  C   UNL     1       5.549   5.845  16.825  0.00  0.00    +0.000 A 
ATOM     13  C   UNL     1       6.676   6.653  16.886  0.00  0.00    +0.000 A 
ATOM     14  N   UNL     1       7.514   6.692  17.939  0.00  0.00    +0.000 NA
ATOM     15  C   UNL     1       7.211   5.889  18.976  0.00  0.00    +0.000 A 
ATOM     16  C   UNL     1       6.085   5.081  19.019  0.00  0.00    +0.000 A 
ENDBRANCH  10  11
ENDBRANCH   3   5
BRANCH   2  17
ATOM     17  C   UNL     1       1.849   8.153  19.241  0.00  0.00    +0.000 A 
ATOM     18  C   UNL     1       1.972   9.028  18.178  0.00  0.00    +0.000 A 
ATOM     19  C   UNL     1       1.404  10.251  18.584  0.00  0.00    +0.000 A 
ATOM     20  C   UNL     1       0.968  10.074  19.883  0.00  0.00    +0.000 A 
ATOM     21  O   UNL     1       1.235   8.789  20.294  0.00  0.00    +0.000 OA
BRANCH  20  22
ATOM     22  C   UNL     1       0.316  10.981  20.826  0.00  0.00    +0.000 A 
ATOM     23  C   UNL     1       0.463  12.374  20.736  0.00  0.00    +0.000 A 
ATOM     24  C   UNL     1      -0.121  13.210  21.690  0.00  0.00    +0.000 A 
ATOM     25  C   UNL     1      -0.855  12.663  22.732  0.00  0.00    +0.000 A 
ATOM     26  F   UNL     1      -1.407  13.470  23.654  0.00  0.00    +0.000 F 
ATOM     27  C   UNL     1      -1.023  11.291  22.845  0.00  0.00    +0.000 A 
ATOM     28  C   UNL     1      -0.438  10.454  21.893  0.00  0.00    +0.000 A 
ENDBRANCH  20  22
ENDBRANCH   2  17
TORSDOF 4
ENDMDL
MODEL 4
REMARK VINA RESULT:      -8.3      1.830      1.997
REMARK  Name = 
REMARK  4 active torsions:
REMARK  status: ('A' for Active; 'I' for Inactive)
REMARK    1  A    between atoms: C_2  and  C_16
REMARK    2  A    between atoms: N_3  and  C_4
REMARK    3  A    between atoms: C_9  and  C_10
REMARK    4  A    between atoms: C_19  and  C_20
REMARK                            x       y       z     vdW  Elec       q    Type
REMARK                         _______ _______ _______ _____ _____    ______ ____
ROOT
ATOM      1  O   UNL     1       3.122   6.384  19.769  0.00  0.00    +0.000 OA
ATOM      2  C   UNL     1       2.570   6.657  18.703  0.00  0.00    +0.000 C 
ATOM      3  N   UNL     1       2.266   5.702  17.738  0.00  0.00    +0.000 N 
ATOM      4  H   UNL     1       1.549   5.956  17.069  0.00  0.00    +0.000 HD
ENDROOT
BRANCH   3   5
ATOM      5  C   UNL     1       2.537   4.326  17.967  0.00  0.00    +0.000 A 
ATOM      6  C   UNL     1       1.514   3.544  18.542  0.00  0.00    +0.000 A 
ATOM      7  C   UNL     1       1.689   2.186  18.792  0.00  0.00    +0.000 A 
ATOM      8  C   UNL     1       2.881   1.579  18.437  0.00  0.00    +0.000 A 
ATOM      9  C   UNL     1       3.906   2.342  17.869  0.00  0.00    +0.000 A 
ATOM     10  C   UNL     1       3.788   3.739  17.654  0.00  0.00    +0.000 A 
BRANCH  10  11
ATOM     11  C   UNL     1       4.952   4.471  17.085  0.00  0.00    +0.000 A 
ATOM     12  C   UNL     1       5.868   5.182  17.871  0.00  0.00    +0.000 A 
ATOM     13  C   UNL     1       6.961   5.791  17.271  0.00  0.00    +0.000 A 
ATOM     14  N   UNL     1       7.184   5.794  15.943  0.00  0.00    +0.000 NA
ATOM     15  C   UNL     1       6.273   5.159  15.182  0.00  0.00    +0.000 A 
ATOM     16  C   UNL     1       5.173   4.488  15.698  0.00  0.00    +0.000 A 
ENDBRANCH  10  11
ENDBRANCH   3   5
BRANCH   2  17
ATOM     17  C   UNL     1       2.135   8.014  18.428  0.00  0.00    +0.000 A 
ATOM     18  C   UNL     1       2.878   9.046  17.886  0.00  0.00    +0.000 A 
ATOM     19  C   UNL     1       2.028  10.165  17.801  0.00  0.00    +0.000 A 
ATOM     20  C   UNL     1       0.803   9.772  18.305  0.00  0.00    +0.000 A 
ATOM     21  O   UNL     1       0.859   8.453  18.691  0.00  0.00    +0.000 OA
BRANCH  20  22
ATOM     22  C   UNL     1      -0.455  10.493  18.486  0.00  0.00    +0.000 A 
ATOM     23  C   UNL     1      -0.618  11.459  19.491  0.00  0.00    +0.000 A 
ATOM     24  C   UNL     1      -1.852  12.084  19.678  0.00  0.00    +0.000 A 
ATOM     25  C   UNL     1      -2.926  11.753  18.864  0.00  0.00    +0.000 A 
ATOM     26  F   UNL     1      -4.114  12.350  19.054  0.00  0.00    +0.000 F 
ATOM     27  C   UNL     1      -2.794  10.808  17.858  0.00  0.00    +0.000 A 
ATOM     28  C   UNL     1      -1.562  10.180  17.671  0.00  0.00    +0.000 A 
ENDBRANCH  20  22
ENDBRANCH   2  17
TORSDOF 4
ENDMDL
MODEL 5
REMARK VINA RESULT:      -8.0      4.500      6.900
REMARK  Name = 
REMARK  4 active torsions:
REMARK  status: ('A' for Active; 'I' for Inactive)
REMARK    1  A    between atoms: C_2  and  C_16
REMARK    2  A    between atoms: N_3  and  C_4
REMARK    3  A    between atoms: C_9  and  C_10
REMARK    4  A    between atoms: C_19  and  C_20
REMARK                            x       y       z     vdW  Elec       q    Type
REMARK                         _______ _______ _______ _____ _____    ______ ____
ROOT
ATOM      1  O   UNL     1       5.556   6.820  16.173  0.00  0.00    +0.000 OA
ATOM      2  C   UNL     1       5.873   6.835  17.362  0.00  0.00    +0.000 C 
ATOM      3  N   UNL     1       5.221   6.083  18.334  0.00  0.00    +0.000 N 
ATOM      4  H   UNL     1       5.737   5.913  19.188  0.00  0.00    +0.000 HD
ENDROOT
BRANCH   3   5
ATOM      5  C   UNL     1       4.166   5.198  17.980  0.00  0.00    +0.000 A 
ATOM      6  C   UNL     1       4.517   3.936  17.461  0.00  0.00    +0.000 A 
ATOM      7  C   UNL     1       3.548   3.003  17.097  0.00  0.00    +0.000 A 
ATOM      8  C   UNL     1       2.210   3.307  17.283  0.00  0.00    +0.000 A 
ATOM      9  C   UNL     1       1.848   4.557  17.794  0.00  0.00    +0.000 A 
ATOM     10  C   UNL     1       2.802   5.555  18.119  0.00  0.00    +0.000 A 
BRANCH  10  11
ATOM     11  C   UNL     1       2.313   6.870  18.615  0.00  0.00    +0.000 A 
ATOM     12  C   UNL     1       2.202   8.003  17.799  0.00  0.00    +0.000 A 
ATOM     13  C   UNL     1       1.683   9.179  18.322  0.00  0.00    +0.000 A 
ATOM     14  N   UNL     1       1.316   9.331  19.609  0.00  0.00    +0.000 NA
ATOM     15  C   UNL     1       1.476   8.259  20.406  0.00  0.00    +0.000 A 
ATOM     16  C   UNL     1       1.948   7.033  19.961  0.00  0.00    +0.000 A 
ENDBRANCH  10  11
ENDBRANCH   3   5
BRANCH   2  17
ATOM     17  C   UNL     1       7.021   7.606  17.806  0.00  0.00    +0.000 A 
ATOM     18  C   UNL     1       8.073   7.176  18.592  0.00  0.00    +0.000 A 
ATOM     19  C   UNL     1       8.944   8.271  18.748  0.00  0.00    +0.000 A 
ATOM     20  C   UNL     1       8.380   9.328  18.060  0.00  0.00    +0.000 A 
ATOM     21  O   UNL     1       7.200   8.928  17.477  0.00  0.00    +0.000 OA
BRANCH  20  22
ATOM     22  C   UNL     1       8.810  10.712  17.872  0.00  0.00    +0.000 A 
ATOM     23  C   UNL     1      10.155  11.094  18.003  0.00  0.00    +0.000 A 
ATOM     24  C   UNL     1      10.524  12.435  17.880  0.00  0.00    +0.000 A 
ATOM     25  C   UNL     1       9.559  13.398  17.623  0.00  0.00    +0.000 A 
ATOM     26  F   UNL     1       9.917  14.688  17.515  0.00  0.00    +0.000 F 
ATOM     27  C   UNL     1       8.224  13.051  17.482  0.00  0.00    +0.000 A 
ATOM     28  C   UNL     1       7.852  11.711  17.607  0.00  0.00    +0.000 A 
ENDBRANCH  20  22
ENDBRANCH   2  17
TORSDOF 4
ENDMDL
MODEL 6
REMARK VINA RESULT:      -7.9      1.425      1.676
REMARK  Name = 
REMARK  4 active torsions:
REMARK  status: ('A' for Active; 'I' for Inactive)
REMARK    1  A    between atoms: C_2  and  C_16
REMARK    2  A    between atoms: N_3  and  C_4
REMARK    3  A    between atoms: C_9  and  C_10
REMARK    4  A    between atoms: C_19  and  C_20
REMARK                            x       y       z     vdW  Elec       q    Type
REMARK                         _______ _______ _______ _____ _____    ______ ____
ROOT
ATOM      1  O   UNL     1       1.832   5.999  17.940  0.00  0.00    +0.000 OA
ATOM      2  C   UNL     1       2.213   6.715  18.865  0.00  0.00    +0.000 C 
ATOM      3  N   UNL     1       2.994   6.247  19.918  0.00  0.00    +0.000 N 
ATOM      4  H   UNL     1       3.512   6.947  20.435  0.00  0.00    +0.000 HD
ENDROOT
BRANCH   3   5
ATOM      5  C   UNL     1       3.443   4.899  19.945  0.00  0.00    +0.000 A 
ATOM      6  C   UNL     1       2.674   3.967  20.670  0.00  0.00    +0.000 A 
ATOM      7  C   UNL     1       3.035   2.624  20.741  0.00  0.00    +0.000 A 
ATOM      8  C   UNL     1       4.154   2.185  20.056  0.00  0.00    +0.000 A 
ATOM      9  C   UNL     1       4.929   3.098  19.335  0.00  0.00    +0.000 A 
ATOM     10  C   UNL     1       4.628   4.484  19.288  0.00  0.00    +0.000 A 
BRANCH  10  11
ATOM     11  C   UNL     1       5.540   5.383  18.530  0.00  0.00    +0.000 A 
ATOM     12  C   UNL     1       5.219   5.918  17.276  0.00  0.00    +0.000 A 
ATOM     13  C   UNL     1       6.099   6.795  16.657  0.00  0.00    +0.000 A 
ATOM     14  N   UNL     1       7.298   7.138  17.164  0.00  0.00    +0.000 NA
ATOM     15  C   UNL     1       7.631   6.580  18.342  0.00  0.00    +0.000 A 
ATOM     16  C   UNL     1       6.798   5.726  19.051  0.00  0.00    +0.000 A 
ENDBRANCH  10  11
ENDBRANCH   3   5
BRANCH   2  17
ATOM     17  C   UNL     1       1.917   8.137  18.864  0.00  0.00    +0.000 A 
ATOM     18  C   UNL     1       2.203   9.058  17.875  0.00  0.00    +0.000 A 
ATOM     19  C   UNL     1       1.719  10.303  18.319  0.00  0.00    +0.000 A 
ATOM     20  C   UNL     1       1.168  10.091  19.568  0.00  0.00    +0.000 A 
ATOM     21  O   UNL     1       1.283   8.764  19.910  0.00  0.00    +0.000 OA
BRANCH  20  22
ATOM     22  C   UNL     1       0.529  10.998  20.520  0.00  0.00    +0.000 A 
ATOM     23  C   UNL     1       0.659  12.392  20.416  0.00  0.00    +0.000 A 
ATOM     24  C   UNL     1       0.088  13.229  21.378  0.00  0.00    +0.000 A 
ATOM     25  C   UNL     1      -0.615  12.681  22.441  0.00  0.00    +0.000 A 
ATOM     26  F   UNL     1      -1.153  13.490  23.370  0.00  0.00    +0.000 F 
ATOM     27  C   UNL     1      -0.766  11.309  22.567  0.00  0.00    +0.000 A 
ATOM     28  C   UNL     1      -0.195  10.471  21.608  0.00  0.00    +0.000 A 
ENDBRANCH  20  22
ENDBRANCH   2  17
TORSDOF 4
ENDMDL
MODEL 7
REMARK VINA RESULT:      -7.9      1.927      3.908
REMARK  Name = 
REMARK  4 active torsions:
REMARK  status: ('A' for Active; 'I' for Inactive)
REMARK    1  A    between atoms: C_2  and  C_16
REMARK    2  A    between atoms: N_3  and  C_4
REMARK    3  A    between atoms: C_9  and  C_10
REMARK    4  A    between atoms: C_19  and  C_20
REMARK                            x       y       z     vdW  Elec       q    Type
REMARK                         _______ _______ _______ _____ _____    ______ ____
ROOT
ATOM      1  O   UNL     1       1.895   8.513  17.680  0.00  0.00    +0.000 OA
ATOM      2  C   UNL     1       2.041   8.012  18.795  0.00  0.00    +0.000 C 
ATOM      3  N   UNL     1       2.861   6.914  19.034  0.00  0.00    +0.000 N 
ATOM      4  H   UNL     1       3.164   6.783  19.991  0.00  0.00    +0.000 HD
ENDROOT
BRANCH   3   5
ATOM      5  C   UNL     1       3.629   6.339  17.985  0.00  0.00    +0.000 A 
ATOM      6  C   UNL     1       4.412   7.206  17.196  0.00  0.00    +0.000 A 
ATOM      7  C   UNL     1       5.202   6.727  16.154  0.00  0.00    +0.000 A 
ATOM      8  C   UNL     1       5.249   5.365  15.909  0.00  0.00    +0.000 A 
ATOM      9  C   UNL     1       4.476   4.494  16.681  0.00  0.00    +0.000 A 
ATOM     10  C   UNL     1       3.612   4.949  17.711  0.00  0.00    +0.000 A 
BRANCH  10  11
ATOM     11  C   UNL     1       2.796   3.947  18.447  0.00  0.00    +0.000 A 
ATOM     12  C   UNL     1       1.488   3.604  18.078  0.00  0.00    +0.000 A 
ATOM     13  C   UNL     1       0.812   2.617  18.781  0.00  0.00    +0.000 A 
ATOM     14  N   UNL     1       1.315   1.983  19.857  0.00  0.00    +0.000 NA
ATOM     15  C   UNL     1       2.549   2.352  20.246  0.00  0.00    +0.000 A 
ATOM     16  C   UNL     1       3.314   3.299  19.580  0.00  0.00    +0.000 A 
ENDBRANCH  10  11
ENDBRANCH   3   5
BRANCH   2  17
ATOM     17  C   UNL     1       1.403   8.606  19.956  0.00  0.00    +0.000 A 
ATOM     18  C   UNL     1       1.498   8.197  21.273  0.00  0.00    +0.000 A 
ATOM     19  C   UNL     1       0.714   9.083  22.036  0.00  0.00    +0.000 A 
ATOM     20  C   UNL     1       0.163   9.989  21.151  0.00  0.00    +0.000 A 
ATOM     21  O   UNL     1       0.582   9.705  19.872  0.00  0.00    +0.000 OA
BRANCH  20  22
ATOM     22  C   UNL     1      -0.738  11.122  21.348  0.00  0.00    +0.000 A 
ATOM     23  C   UNL     1      -1.084  11.580  22.630  0.00  0.00    +0.000 A 
ATOM     24  C   UNL     1      -1.997  12.625  22.785  0.00  0.00    +0.000 A 
ATOM     25  C   UNL     1      -2.565  13.218  21.667  0.00  0.00    +0.000 A 
ATOM     26  F   UNL     1      -3.451  14.217  21.822  0.00  0.00    +0.000 F 
ATOM     27  C   UNL     1      -2.239  12.793  20.389  0.00  0.00    +0.000 A 
ATOM     28  C   UNL     1      -1.328  11.747  20.231  0.00  0.00    +0.000 A 
ENDBRANCH  20  22
ENDBRANCH   2  17
TORSDOF 4
ENDMDL
MODEL 8
REMARK VINA RESULT:      -7.8      1.828      3.677
REMARK  Name = 
REMARK  4 active torsions:
REMARK  status: ('A' for Active; 'I' for Inactive)
REMARK    1  A    between atoms: C_2  and  C_16
REMARK    2  A    between atoms: N_3  and  C_4
REMARK    3  A    between atoms: C_9  and  C_10
REMARK    4  A    between atoms: C_19  and  C_20
REMARK                            x       y       z     vdW  Elec       q    Type
REMARK                         _______ _______ _______ _____ _____    ______ ____
ROOT
ATOM      1  O   UNL     1       1.613   7.978  17.654  0.00  0.00    +0.000 OA
ATOM      2  C   UNL     1       2.047   7.747  18.783  0.00  0.00    +0.000 C 
ATOM      3  N   UNL     1       3.117   6.893  19.027  0.00  0.00    +0.000 N 
ATOM      4  H   UNL     1       3.594   7.014  19.912  0.00  0.00    +0.000 HD
ENDROOT
BRANCH   3   5
ATOM      5  C   UNL     1       3.812   6.274  17.952  0.00  0.00    +0.000 A 
ATOM      6  C   UNL     1       4.582   7.099  17.109  0.00  0.00    +0.000 A 
ATOM      7  C   UNL     1       5.303   6.576  16.038  0.00  0.00    +0.000 A 
ATOM      8  C   UNL     1       5.292   5.210  15.816  0.00  0.00    +0.000 A 
ATOM      9  C   UNL     1       4.531   4.379  16.642  0.00  0.00    +0.000 A 
ATOM     10  C   UNL     1       3.735   4.880  17.705  0.00  0.00    +0.000 A 
BRANCH  10  11
ATOM     11  C   UNL     1       2.925   3.919  18.500  0.00  0.00    +0.000 A 
ATOM     12  C   UNL     1       3.386   3.320  19.680  0.00  0.00    +0.000 A 
ATOM     13  C   UNL     1       2.548   2.477  20.396  0.00  0.00    +0.000 A 
ATOM     14  N   UNL     1       1.305   2.140  20.000  0.00  0.00    +0.000 NA
ATOM     15  C   UNL     1       0.883   2.670  18.837  0.00  0.00    +0.000 A 
ATOM     16  C   UNL     1       1.636   3.554  18.077  0.00  0.00    +0.000 A 
ENDBRANCH  10  11
ENDBRANCH   3   5
BRANCH   2  17
ATOM     17  C   UNL     1       1.491   8.430  19.937  0.00  0.00    +0.000 A 
ATOM     18  C   UNL     1       1.546   8.033  21.260  0.00  0.00    +0.000 A 
ATOM     19  C   UNL     1       0.878   9.018  22.013  0.00  0.00    +0.000 A 
ATOM     20  C   UNL     1       0.432   9.969  21.115  0.00  0.00    +0.000 A 
ATOM     21  O   UNL     1       0.805   9.617  19.839  0.00  0.00    +0.000 OA
BRANCH  20  22
ATOM     22  C   UNL     1      -0.328  11.204  21.297  0.00  0.00    +0.000 A 
ATOM     23  C   UNL     1      -0.588  12.078  20.230  0.00  0.00    +0.000 A 
ATOM     24  C   UNL     1      -1.261  13.281  20.449  0.00  0.00    +0.000 A 
ATOM     25  C   UNL     1      -1.681  13.616  21.728  0.00  0.00    +0.000 A 
ATOM     26  F   UNL     1      -2.320  14.779  21.936  0.00  0.00    +0.000 F 
ATOM     27  C   UNL     1      -1.446  12.770  22.802  0.00  0.00    +0.000 A 
ATOM     28  C   UNL     1      -0.770  11.568  22.585  0.00  0.00    +0.000 A 
ENDBRANCH  20  22
ENDBRANCH   2  17
TORSDOF 4
ENDMDL
MODEL 9
REMARK VINA RESULT:      -7.7      1.327      1.650
REMARK  Name = 
REMARK  4 active torsions:
REMARK  status: ('A' for Active; 'I' for Inactive)
REMARK    1  A    between atoms: C_2  and  C_16
REMARK    2  A    between atoms: N_3  and  C_4
REMARK    3  A    between atoms: C_9  and  C_10
REMARK    4  A    between atoms: C_19  and  C_20
REMARK                            x       y       z     vdW  Elec       q    Type
REMARK                         _______ _______ _______ _____ _____    ______ ____
ROOT
ATOM      1  O   UNL     1       1.830   5.834  17.922  0.00  0.00    +0.000 OA
ATOM      2  C   UNL     1       2.220   6.561  18.836  0.00  0.00    +0.000 C 
ATOM      3  N   UNL     1       2.985   6.099  19.902  0.00  0.00    +0.000 N 
ATOM      4  H   UNL     1       3.513   6.799  20.408  0.00  0.00    +0.000 HD
ENDROOT
BRANCH   3   5
ATOM      5  C   UNL     1       3.409   4.743  19.958  0.00  0.00    +0.000 A 
ATOM      6  C   UNL     1       2.651   3.853  20.745  0.00  0.00    +0.000 A 
ATOM      7  C   UNL     1       2.988   2.506  20.849  0.00  0.00    +0.000 A 
ATOM      8  C   UNL     1       4.071   2.020  20.136  0.00  0.00    +0.000 A 
ATOM      9  C   UNL     1       4.833   2.892  19.353  0.00  0.00    +0.000 A 
ATOM     10  C   UNL     1       4.558   4.282  19.270  0.00  0.00    +0.000 A 
BRANCH  10  11
ATOM     11  C   UNL     1       5.456   5.134  18.445  0.00  0.00    +0.000 A 
ATOM     12  C   UNL     1       6.618   5.734  18.949  0.00  0.00    +0.000 A 
ATOM     13  C   UNL     1       7.435   6.469  18.101  0.00  0.00    +0.000 A 
ATOM     14  N   UNL     1       7.157   6.700  16.804  0.00  0.00    +0.000 NA
ATOM     15  C   UNL     1       6.012   6.172  16.335  0.00  0.00    +0.000 A 
ATOM     16  C   UNL     1       5.156   5.390  17.097  0.00  0.00    +0.000 A 
ENDBRANCH  10  11
ENDBRANCH   3   5
BRANCH   2  17
ATOM     17  C   UNL     1       1.951   7.987  18.805  0.00  0.00    +0.000 A 
ATOM     18  C   UNL     1       2.208   8.872  17.776  0.00  0.00    +0.000 A 
ATOM     19  C   UNL     1       1.768  10.140  18.203  0.00  0.00    +0.000 A 
ATOM     20  C   UNL     1       1.271   9.976  19.482  0.00  0.00    +0.000 A 
ATOM     21  O   UNL     1       1.377   8.658  19.859  0.00  0.00    +0.000 OA
BRANCH  20  22
ATOM     22  C   UNL     1       0.693  10.923  20.434  0.00  0.00    +0.000 A 
ATOM     23  C   UNL     1      -0.204  10.514  21.433  0.00  0.00    +0.000 A 
ATOM     24  C   UNL     1      -0.788  11.453  22.287  0.00  0.00    +0.000 A 
ATOM     25  C   UNL     1      -0.477  12.798  22.151  0.00  0.00    +0.000 A 
ATOM     26  F   UNL     1      -1.048  13.698  22.968  0.00  0.00    +0.000 F 
ATOM     27  C   UNL     1       0.411  13.232  21.179  0.00  0.00    +0.000 A 
ATOM     28  C   UNL     1       0.993  12.295  20.323  0.00  0.00    +0.000 A 
ENDBRANCH  20  22
ENDBRANCH   2  17
TORSDOF 4
ENDMDL
