MODEL 1
REMARK VINA RESULT:      -9.5      0.000      0.000
REMARK  Name = 
REMARK  6 active torsions:
REMARK  status: ('A' for Active; 'I' for Inactive)
REMARK    1  A    between atoms: C_1  and  N_2
REMARK    2  A    between atoms: N_2  and  C_3
REMARK    3  A    between atoms: C_3  and  C_4
REMARK    4  A    between atoms: N_8  and  C_9
REMARK    5  A    between atoms: C_12  and  C_14
REMARK    6  A    between atoms: C_16  and  C_17
REMARK                            x       y       z     vdW  Elec       q    Type
REMARK                         _______ _______ _______ _____ _____    ______ ____
ROOT
ATOM      1  C   UNL     1       7.258   6.976  17.595  0.00  0.00    +0.000 A 
ATOM      2  C   UNL     1       7.548   8.358  17.451  0.00  0.00    +0.000 A 
ATOM      3  C   UNL     1       8.433   8.675  18.461  0.00  0.00    +0.000 A 
ATOM      4  N   UNL     1       8.635   7.497  19.126  0.00  0.00    +0.000 N 
ATOM      5  N   UNL     1       7.982   6.450  18.602  0.00  0.00    +0.000 NA
ATOM      6  H   UNL     1       9.198   7.344  19.955  0.00  0.00    +0.000 HD
ENDROOT
BRANCH   3   7
ATOM      7  C   UNL     1       9.061   9.938  18.836  0.00  0.00    +0.000 A 
ATOM      8  C   UNL     1       9.206  10.280  20.185  0.00  0.00    +0.000 A 
ATOM      9  C   UNL     1       9.781  11.500  20.551  0.00  0.00    +0.000 A 
ATOM     10  C   UNL     1      10.217  12.406  19.575  0.00  0.00    +0.000 A 
ATOM     11  C   UNL     1      10.776  13.644  19.924  0.00  0.00    +0.000 A 
ATOM     12  C   UNL     1      11.191  14.541  18.939  0.00  0.00    +0.000 A 
ATOM     13  C   UNL     1      11.058  14.209  17.593  0.00  0.00    +0.000 A 
ATOM     14  C   UNL     1      10.509  12.980  17.232  0.00  0.00    +0.000 A 
ATOM     15  C   UNL     1      10.082  12.069  18.210  0.00  0.00    +0.000 A 
ATOM     16  C   UNL     1       9.509  10.836  17.857  0.00  0.00    +0.000 A 
ENDBRANCH   3   7
BRANCH   1  19
ATOM     17  C   UNL     1       4.541   4.566  16.519  0.00  0.00    +0.000 C 
ATOM     18  N   UNL     1       5.238   5.539  17.349  0.00  0.00    +0.000 N 
ATOM     19  C   UNL     1       6.324   6.203  16.751  0.00  0.00    +0.000 C 
ATOM     20  O   UNL     1       6.473   6.192  15.527  0.00  0.00    +0.000 OA
BRANCH  18  21
ATOM     21  C   UNL     1       4.960   5.570  18.787  0.00  0.00    +0.000 C 
BRANCH  21  22
ATOM     22  C   UNL     1       4.448   4.264  19.312  0.00  0.00    +0.000 A 
ATOM     23  N   UNL     1       5.185   3.199  19.571  0.00  0.00    +0.000 NA
ATOM     24  C   UNL     1       4.353   2.304  20.187  0.00  0.00    +0.000 A 
ATOM     25  C   UNL     1       3.083   2.813  20.285  0.00  0.00    +0.000 A 
ATOM     26  N   UNL     1       3.141   4.044  19.684  0.00  0.00    +0.000 N 
BRANCH  26  27
ATOM     27  C   UNL     1       2.029   4.953  19.480  0.00  0.00    +0.000 C 
ATOM     28  F   UNL     1       1.619   4.958  18.182  0.00  0.00    +0.000 F 
ATOM     29  F   UNL     1       0.951   4.587  20.220  0.00  0.00    +0.000 F 
ENDBRANCH  26  27
ENDBRANCH  21  22
ENDBRANCH  18  21
ENDBRANCH   1  19
TORSDOF 5
ENDMDL
MODEL 2
REMARK VINA RESULT:      -9.1      1.291      1.759
REMARK  Name = 
REMARK  6 active torsions:
REMARK  status: ('A' for Active; 'I' for Inactive)
REMARK    1  A    between atoms: C_1  and  N_2
REMARK    2  A    between atoms: N_2  and  C_3
REMARK    3  A    between atoms: C_3  and  C_4
REMARK    4  A    between atoms: N_8  and  C_9
REMARK    5  A    between atoms: C_12  and  C_14
REMARK    6  A    between atoms: C_16  and  C_17
REMARK                            x       y       z     vdW  Elec       q    Type
REMARK                         _______ _______ _______ _____ _____    ______ ____
ROOT
ATOM      1  C   UNL     1       7.117   7.175  17.671  0.00  0.00    +0.000 A 
ATOM      2  C   UNL     1       7.428   8.555  17.555  0.00  0.00    +0.000 A 
ATOM      3  C   UNL     1       8.430   8.805  18.470  0.00  0.00    +0.000 A 
ATOM      4  N   UNL     1       8.674   7.593  19.055  0.00  0.00    +0.000 N 
ATOM      5  N   UNL     1       7.936   6.587  18.564  0.00  0.00    +0.000 NA
ATOM      6  H   UNL     1       9.323   7.388  19.806  0.00  0.00    +0.000 HD
ENDROOT
BRANCH   3   7
ATOM      7  C   UNL     1       9.132  10.035  18.824  0.00  0.00    +0.000 A 
ATOM      8  C   UNL     1       9.294  10.392  20.167  0.00  0.00    +0.000 A 
ATOM      9  C   UNL     1       9.940  11.581  20.514  0.00  0.00    +0.000 A 
ATOM     10  C   UNL     1      10.432  12.441  19.524  0.00  0.00    +0.000 A 
ATOM     11  C   UNL     1      11.063  13.650  19.853  0.00  0.00    +0.000 A 
ATOM     12  C   UNL     1      11.534  14.503  18.854  0.00  0.00    +0.000 A 
ATOM     13  C   UNL     1      11.384  14.156  17.513  0.00  0.00    +0.000 A 
ATOM     14  C   UNL     1      10.764  12.955  17.172  0.00  0.00    +0.000 A 
ATOM     15  C   UNL     1      10.280  12.089  18.164  0.00  0.00    +0.000 A 
ATOM     16  C   UNL     1       9.635  10.887  17.831  0.00  0.00    +0.000 A 
ENDBRANCH   3   7
BRANCH   1  19
ATOM     17  C   UNL     1       4.409   4.699  16.734  0.00  0.00    +0.000 C 
ATOM     18  N   UNL     1       5.207   5.580  17.576  0.00  0.00    +0.000 N 
ATOM     19  C   UNL     1       6.072   6.464  16.908  0.00  0.00    +0.000 C 
ATOM     20  O   UNL     1       5.931   6.693  15.704  0.00  0.00    +0.000 OA
BRANCH  18  21
ATOM     21  C   UNL     1       5.270   5.316  19.015  0.00  0.00    +0.000 C 
BRANCH  21  22
ATOM     22  C   UNL     1       3.940   4.956  19.603  0.00  0.00    +0.000 A 
ATOM     23  N   UNL     1       2.954   5.801  19.846  0.00  0.00    +0.000 NA
ATOM     24  C   UNL     1       1.881   5.034  20.214  0.00  0.00    +0.000 A 
ATOM     25  C   UNL     1       2.218   3.705  20.224  0.00  0.00    +0.000 A 
ATOM     26  N   UNL     1       3.544   3.666  19.878  0.00  0.00    +0.000 N 
BRANCH  26  27
ATOM     27  C   UNL     1       4.380   2.482  19.810  0.00  0.00    +0.000 C 
ATOM     28  F   UNL     1       4.580   1.941  21.042  0.00  0.00    +0.000 F 
ATOM     29  F   UNL     1       3.800   1.514  19.056  0.00  0.00    +0.000 F 
ENDBRANCH  26  27
ENDBRANCH  21  22
ENDBRANCH  18  21
ENDBRANCH   1  19
TORSDOF 5
ENDMDL
MODEL 3
REMARK VINA RESULT:      -9.0      0.702      1.654
REMARK  Name = 
REMARK  6 active torsions:
REMARK  status: ('A' for Active; 'I' for Inactive)
REMARK    1  A    between atoms: C_1  and  N_2
REMARK    2  A    between atoms: N_2  and  C_3
REMARK    3  A    between atoms: C_3  and  C_4
REMARK    4  A    between atoms: N_8  and  C_9
REMARK    5  A    between atoms: C_12  and  C_14
REMARK    6  A    between atoms: C_16  and  C_17
REMARK                            x       y       z     vdW  Elec       q    Type
REMARK                         _______ _______ _______ _____ _____    ______ ____
ROOT
ATOM      1  C   UNL     1       7.479   6.759  17.488  0.00  0.00    +0.000 A 
ATOM      2  C   UNL     1       7.743   8.135  17.260  0.00  0.00    +0.000 A 
ATOM      3  C   UNL     1       8.434   8.585  18.365  0.00  0.00    +0.000 A 
ATOM      4  N   UNL     1       8.561   7.484  19.166  0.00  0.00    +0.000 N 
ATOM      5  N   UNL     1       8.040   6.363  18.647  0.00  0.00    +0.000 NA
ATOM      6  H   UNL     1       8.981   7.435  20.087  0.00  0.00    +0.000 HD
ENDROOT
BRANCH   3   7
ATOM      7  C   UNL     1       8.948   9.907  18.713  0.00  0.00    +0.000 A 
ATOM      8  C   UNL     1       9.602  10.684  17.751  0.00  0.00    +0.000 A 
ATOM      9  C   UNL     1      10.122  11.938  18.083  0.00  0.00    +0.000 A 
ATOM     10  C   UNL     1      10.004  12.437  19.387  0.00  0.00    +0.000 A 
ATOM     11  C   UNL     1      10.539  13.684  19.744  0.00  0.00    +0.000 A 
ATOM     12  C   UNL     1      10.425  14.160  21.051  0.00  0.00    +0.000 A 
ATOM     13  C   UNL     1       9.772  13.398  22.016  0.00  0.00    +0.000 A 
ATOM     14  C   UNL     1       9.230  12.160  21.674  0.00  0.00    +0.000 A 
ATOM     15  C   UNL     1       9.340  11.665  20.366  0.00  0.00    +0.000 A 
ATOM     16  C   UNL     1       8.816  10.410  20.015  0.00  0.00    +0.000 A 
ENDBRANCH   3   7
BRANCH   1  19
ATOM     17  C   UNL     1       4.993   4.205  16.207  0.00  0.00    +0.000 C 
ATOM     18  N   UNL     1       5.522   5.290  17.021  0.00  0.00    +0.000 N 
ATOM     19  C   UNL     1       6.727   5.869  16.582  0.00  0.00    +0.000 C 
ATOM     20  O   UNL     1       7.131   5.684  15.431  0.00  0.00    +0.000 OA
BRANCH  18  21
ATOM     21  C   UNL     1       4.947   5.524  18.348  0.00  0.00    +0.000 C 
BRANCH  21  22
ATOM     22  C   UNL     1       4.477   4.266  19.012  0.00  0.00    +0.000 A 
ATOM     23  N   UNL     1       5.256   3.315  19.493  0.00  0.00    +0.000 NA
ATOM     24  C   UNL     1       4.430   2.448  20.156  0.00  0.00    +0.000 A 
ATOM     25  C   UNL     1       3.124   2.857  20.060  0.00  0.00    +0.000 A 
ATOM     26  N   UNL     1       3.157   3.991  19.291  0.00  0.00    +0.000 N 
BRANCH  26  27
ATOM     27  C   UNL     1       2.011   4.765  18.853  0.00  0.00    +0.000 C 
ATOM     28  F   UNL     1       1.712   4.520  17.549  0.00  0.00    +0.000 F 
ATOM     29  F   UNL     1       0.900   4.447  19.566  0.00  0.00    +0.000 F 
ENDBRANCH  26  27
ENDBRANCH  21  22
ENDBRANCH  18  21
ENDBRANCH   1  19
TORSDOF 5
ENDMDL
MODEL 4
REMARK VINA RESULT:      -8.9      1.070      1.664
REMARK  Name = 
REMARK  6 active torsions:
REMARK  status: ('A' for Active; 'I' for Inactive)
REMARK    1  A    between atoms: C_1  and  N_2
REMARK    2  A    between atoms: N_2  and  C_3
REMARK    3  A    between atoms: C_3  and  C_4
REMARK    4  A    between atoms: N_8  and  C_9
REMARK    5  A    between atoms: C_12  and  C_14
REMARK    6  A    between atoms: C_16  and  C_17
REMARK                            x       y       z     vdW  Elec       q    Type
REMARK                         _______ _______ _______ _____ _____    ______ ____
ROOT
ATOM      1  C   UNL     1       7.461   6.384  17.419  0.00  0.00    +0.000 A 
ATOM      2  C   UNL     1       7.582   7.752  17.057  0.00  0.00    +0.000 A 
ATOM      3  C   UNL     1       8.177   8.385  18.128  0.00  0.00    +0.000 A 
ATOM      4  N   UNL     1       8.393   7.390  19.041  0.00  0.00    +0.000 N 
ATOM      5  N   UNL     1       8.018   6.171  18.627  0.00  0.00    +0.000 NA
ATOM      6  H   UNL     1       8.781   7.479  19.973  0.00  0.00    +0.000 HD
ENDROOT
BRANCH   3   7
ATOM      7  C   UNL     1       8.530   9.784  18.352  0.00  0.00    +0.000 A 
ATOM      8  C   UNL     1       8.092  10.771  17.463  0.00  0.00    +0.000 A 
ATOM      9  C   UNL     1       8.449  12.109  17.653  0.00  0.00    +0.000 A 
ATOM     10  C   UNL     1       9.257  12.485  18.735  0.00  0.00    +0.000 A 
ATOM     11  C   UNL     1       9.644  13.819  18.929  0.00  0.00    +0.000 A 
ATOM     12  C   UNL     1      10.461  14.174  20.003  0.00  0.00    +0.000 A 
ATOM     13  C   UNL     1      10.898  13.201  20.898  0.00  0.00    +0.000 A 
ATOM     14  C   UNL     1      10.517  11.872  20.721  0.00  0.00    +0.000 A 
ATOM     15  C   UNL     1       9.700  11.498  19.643  0.00  0.00    +0.000 A 
ATOM     16  C   UNL     1       9.327  10.159  19.442  0.00  0.00    +0.000 A 
ENDBRANCH   3   7
BRANCH   1  19
ATOM     17  C   UNL     1       5.206   3.558  16.291  0.00  0.00    +0.000 C 
ATOM     18  N   UNL     1       5.608   4.781  16.971  0.00  0.00    +0.000 N 
ATOM     19  C   UNL     1       6.846   5.329  16.589  0.00  0.00    +0.000 C 
ATOM     20  O   UNL     1       7.394   4.976  15.542  0.00  0.00    +0.000 OA
BRANCH  18  21
ATOM     21  C   UNL     1       4.867   5.204  18.162  0.00  0.00    +0.000 C 
BRANCH  21  22
ATOM     22  C   UNL     1       4.340   4.053  18.963  0.00  0.00    +0.000 A 
ATOM     23  N   UNL     1       5.074   3.195  19.647  0.00  0.00    +0.000 NA
ATOM     24  C   UNL     1       4.193   2.425  20.358  0.00  0.00    +0.000 A 
ATOM     25  C   UNL     1       2.901   2.797  20.087  0.00  0.00    +0.000 A 
ATOM     26  N   UNL     1       3.001   3.805  19.163  0.00  0.00    +0.000 N 
BRANCH  26  27
ATOM     27  C   UNL     1       1.898   4.489  18.515  0.00  0.00    +0.000 C 
ATOM     28  F   UNL     1       1.983   5.837  18.676  0.00  0.00    +0.000 F 
ATOM     29  F   UNL     1       1.896   4.262  17.177  0.00  0.00    +0.000 F 
ENDBRANCH  26  27
ENDBRANCH  21  22
ENDBRANCH  18  21
ENDBRANCH   1  19
TORSDOF 5
ENDMDL
MODEL 5
REMARK VINA RESULT:      -8.8      5.652      7.158
REMARK  Name = 
REMARK  6 active torsions:
REMARK  status: ('A' for Active; 'I' for Inactive)
REMARK    1  A    between atoms: C_1  and  N_2
REMARK    2  A    between atoms: N_2  and  C_3
REMARK    3  A    between atoms: C_3  and  C_4
REMARK    4  A    between atoms: N_8  and  C_9
REMARK    5  A    between atoms: C_12  and  C_14
REMARK    6  A    between atoms: C_16  and  C_17
REMARK                            x       y       z     vdW  Elec       q    Type
REMARK                         _______ _______ _______ _____ _____    ______ ____
ROOT
ATOM      1  C   UNL     1       3.649   6.555  18.223  0.00  0.00    +0.000 A 
ATOM      2  C   UNL     1       2.850   7.710  18.014  0.00  0.00    +0.000 A 
ATOM      3  C   UNL     1       2.171   7.930  19.194  0.00  0.00    +0.000 A 
ATOM      4  N   UNL     1       2.600   6.937  20.030  0.00  0.00    +0.000 N 
ATOM      5  N   UNL     1       3.522   6.124  19.493  0.00  0.00    +0.000 NA
ATOM      6  H   UNL     1       2.292   6.749  20.977  0.00  0.00    +0.000 HD
ENDROOT
BRANCH   3   7
ATOM      7  C   UNL     1       1.192   8.945  19.572  0.00  0.00    +0.000 A 
ATOM      8  C   UNL     1       0.643   9.790  18.603  0.00  0.00    +0.000 A 
ATOM      9  C   UNL     1      -0.273  10.783  18.960  0.00  0.00    +0.000 A 
ATOM     10  C   UNL     1      -0.653  10.954  20.298  0.00  0.00    +0.000 A 
ATOM     11  C   UNL     1      -1.555  11.960  20.679  0.00  0.00    +0.000 A 
ATOM     12  C   UNL     1      -1.912  12.126  22.018  0.00  0.00    +0.000 A 
ATOM     13  C   UNL     1      -1.376  11.287  22.992  0.00  0.00    +0.000 A 
ATOM     14  C   UNL     1      -0.484  10.281  22.627  0.00  0.00    +0.000 A 
ATOM     15  C   UNL     1      -0.111  10.103  21.286  0.00  0.00    +0.000 A 
ATOM     16  C   UNL     1       0.803   9.105  20.909  0.00  0.00    +0.000 A 
ENDBRANCH   3   7
BRANCH   1  19
ATOM     17  C   UNL     1       5.274   3.954  16.000  0.00  0.00    +0.000 C 
ATOM     18  N   UNL     1       4.226   4.627  16.755  0.00  0.00    +0.000 N 
ATOM     19  C   UNL     1       4.523   5.923  17.214  0.00  0.00    +0.000 C 
ATOM     20  O   UNL     1       5.472   6.556  16.744  0.00  0.00    +0.000 OA
BRANCH  18  21
ATOM     21  C   UNL     1       3.075   3.847  17.216  0.00  0.00    +0.000 C 
BRANCH  21  22
ATOM     22  C   UNL     1       3.317   3.167  18.529  0.00  0.00    +0.000 A 
ATOM     23  N   UNL     1       4.461   2.638  18.920  0.00  0.00    +0.000 NA
ATOM     24  C   UNL     1       4.287   2.284  20.231  0.00  0.00    +0.000 A 
ATOM     25  C   UNL     1       3.011   2.574  20.643  0.00  0.00    +0.000 A 
ATOM     26  N   UNL     1       2.385   3.095  19.540  0.00  0.00    +0.000 N 
BRANCH  26  27
ATOM     27  C   UNL     1       0.995   3.500  19.453  0.00  0.00    +0.000 C 
ATOM     28  F   UNL     1       0.174   2.432  19.256  0.00  0.00    +0.000 F 
ATOM     29  F   UNL     1       0.582   4.093  20.603  0.00  0.00    +0.000 F 
ENDBRANCH  26  27
ENDBRANCH  21  22
ENDBRANCH  18  21
ENDBRANCH   1  19
TORSDOF 5
ENDMDL
MODEL 6
REMARK VINA RESULT:      -8.6      1.282      1.766
REMARK  Name = 
REMARK  6 active torsions:
REMARK  status: ('A' for Active; 'I' for Inactive)
REMARK    1  A    between atoms: C_1  and  N_2
REMARK    2  A    between atoms: N_2  and  C_3
REMARK    3  A    between atoms: C_3  and  C_4
REMARK    4  A    between atoms: N_8  and  C_9
REMARK    5  A    between atoms: C_12  and  C_14
REMARK    6  A    between atoms: C_16  and  C_17
REMARK                            x       y       z     vdW  Elec       q    Type
REMARK                         _______ _______ _______ _____ _____    ______ ____
ROOT
ATOM      1  C   UNL     1       7.183   6.842  17.612  0.00  0.00    +0.000 A 
ATOM      2  C   UNL     1       7.341   8.198  17.225  0.00  0.00    +0.000 A 
ATOM      3  C   UNL     1       8.243   8.751  18.110  0.00  0.00    +0.000 A 
ATOM      4  N   UNL     1       8.583   7.723  18.945  0.00  0.00    +0.000 N 
ATOM      5  N   UNL     1       8.000   6.554  18.644  0.00  0.00    +0.000 NA
ATOM      6  H   UNL     1       9.197   7.758  19.751  0.00  0.00    +0.000 HD
ENDROOT
BRANCH   3   7
ATOM      7  C   UNL     1       8.774  10.106  18.231  0.00  0.00    +0.000 A 
ATOM      8  C   UNL     1       8.117  11.178  17.618  0.00  0.00    +0.000 A 
ATOM      9  C   UNL     1       8.633  12.473  17.704  0.00  0.00    +0.000 A 
ATOM     10  C   UNL     1       9.823  12.722  18.402  0.00  0.00    +0.000 A 
ATOM     11  C   UNL     1      10.369  14.012  18.481  0.00  0.00    +0.000 A 
ATOM     12  C   UNL     1      11.563  14.239  19.167  0.00  0.00    +0.000 A 
ATOM     13  C   UNL     1      12.223  13.181  19.786  0.00  0.00    +0.000 A 
ATOM     14  C   UNL     1      11.690  11.895  19.721  0.00  0.00    +0.000 A 
ATOM     15  C   UNL     1      10.493  11.649  19.031  0.00  0.00    +0.000 A 
ATOM     16  C   UNL     1       9.957  10.354  18.941  0.00  0.00    +0.000 A 
ENDBRANCH   3   7
BRANCH   1  19
ATOM     17  C   UNL     1       4.635   4.082  17.123  0.00  0.00    +0.000 C 
ATOM     18  N   UNL     1       5.284   5.234  17.733  0.00  0.00    +0.000 N 
ATOM     19  C   UNL     1       6.281   5.866  16.968  0.00  0.00    +0.000 C 
ATOM     20  O   UNL     1       6.374   5.654  15.757  0.00  0.00    +0.000 OA
BRANCH  18  21
ATOM     21  C   UNL     1       5.071   5.493  19.159  0.00  0.00    +0.000 C 
BRANCH  21  22
ATOM     22  C   UNL     1       3.747   4.994  19.653  0.00  0.00    +0.000 A 
ATOM     23  N   UNL     1       3.505   3.776  20.103  0.00  0.00    +0.000 NA
ATOM     24  C   UNL     1       2.231   3.804  20.603  0.00  0.00    +0.000 A 
ATOM     25  C   UNL     1       1.674   5.045  20.435  0.00  0.00    +0.000 A 
ATOM     26  N   UNL     1       2.629   5.786  19.788  0.00  0.00    +0.000 N 
BRANCH  26  27
ATOM     27  C   UNL     1       2.490   7.156  19.331  0.00  0.00    +0.000 C 
ATOM     28  F   UNL     1       2.086   7.211  18.033  0.00  0.00    +0.000 F 
ATOM     29  F   UNL     1       1.553   7.822  20.052  0.00  0.00    +0.000 F 
ENDBRANCH  26  27
ENDBRANCH  21  22
ENDBRANCH  18  21
ENDBRANCH   1  19
TORSDOF 5
ENDMDL
MODEL 7
REMARK VINA RESULT:      -8.6      1.330      2.161
REMARK  Name = 
REMARK  6 active torsions:
REMARK  status: ('A' for Active; 'I' for Inactive)
REMARK    1  A    between atoms: C_1  and  N_2
REMARK    2  A    between atoms: N_2  and  C_3
REMARK    3  A    between atoms: C_3  and  C_4
REMARK    4  A    between atoms: N_8  and  C_9
REMARK    5  A    between atoms: C_12  and  C_14
REMARK    6  A    between atoms: C_16  and  C_17
REMARK                            x       y       z     vdW  Elec       q    Type
REMARK                         _______ _______ _______ _____ _____    ______ ____
ROOT
ATOM      1  C   UNL     1       7.077   6.541  17.604  0.00  0.00    +0.000 A 
ATOM      2  C   UNL     1       7.186   7.908  17.237  0.00  0.00    +0.000 A 
ATOM      3  C   UNL     1       8.090   8.472  18.112  0.00  0.00    +0.000 A 
ATOM      4  N   UNL     1       8.478   7.441  18.922  0.00  0.00    +0.000 N 
ATOM      5  N   UNL     1       7.924   6.260  18.613  0.00  0.00    +0.000 NA
ATOM      6  H   UNL     1       9.109   7.481  19.714  0.00  0.00    +0.000 HD
ENDROOT
BRANCH   3   7
ATOM      7  C   UNL     1       8.584   9.840  18.245  0.00  0.00    +0.000 A 
ATOM      8  C   UNL     1       7.984  10.879  17.525  0.00  0.00    +0.000 A 
ATOM      9  C   UNL     1       8.467  12.186  17.624  0.00  0.00    +0.000 A 
ATOM     10  C   UNL     1       9.567  12.480  18.441  0.00  0.00    +0.000 A 
ATOM     11  C   UNL     1      10.081  13.782  18.536  0.00  0.00    +0.000 A 
ATOM     12  C   UNL     1      11.185  14.054  19.344  0.00  0.00    +0.000 A 
ATOM     13  C   UNL     1      11.788  13.030  20.070  0.00  0.00    +0.000 A 
ATOM     14  C   UNL     1      11.285  11.733  19.990  0.00  0.00    +0.000 A 
ATOM     15  C   UNL     1      10.178  11.441  19.178  0.00  0.00    +0.000 A 
ATOM     16  C   UNL     1       9.675  10.134  19.074  0.00  0.00    +0.000 A 
ENDBRANCH   3   7
BRANCH   1  19
ATOM     17  C   UNL     1       4.694   3.638  17.113  0.00  0.00    +0.000 C 
ATOM     18  N   UNL     1       5.314   4.788  17.757  0.00  0.00    +0.000 N 
ATOM     19  C   UNL     1       6.190   5.549  16.963  0.00  0.00    +0.000 C 
ATOM     20  O   UNL     1       6.186   5.436  15.735  0.00  0.00    +0.000 OA
BRANCH  18  21
ATOM     21  C   UNL     1       5.214   4.922  19.212  0.00  0.00    +0.000 C 
BRANCH  21  22
ATOM     22  C   UNL     1       3.824   5.230  19.678  0.00  0.00    +0.000 A 
ATOM     23  N   UNL     1       3.215   6.396  19.560  0.00  0.00    +0.000 NA
ATOM     24  C   UNL     1       1.920   6.189  19.953  0.00  0.00    +0.000 A 
ATOM     25  C   UNL     1       1.737   4.887  20.342  0.00  0.00    +0.000 A 
ATOM     26  N   UNL     1       2.965   4.293  20.208  0.00  0.00    +0.000 N 
BRANCH  26  27
ATOM     27  C   UNL     1       3.301   2.925  20.556  0.00  0.00    +0.000 C 
ATOM     28  F   UNL     1       2.758   2.567  21.752  0.00  0.00    +0.000 F 
ATOM     29  F   UNL     1       2.816   2.051  19.638  0.00  0.00    +0.000 F 
ENDBRANCH  26  27
ENDBRANCH  21  22
ENDBRANCH  18  21
ENDBRANCH   1  19
TORSDOF 5
ENDMDL
MODEL 8
REMARK VINA RESULT:      -8.5      1.479      1.867
REMARK  Name = 
REMARK  6 active torsions:
REMARK  status: ('A' for Active; 'I' for Inactive)
REMARK    1  A    between atoms: C_1  and  N_2
REMARK    2  A    between atoms: N_2  and  C_3
REMARK    3  A    between atoms: C_3  and  C_4
REMARK    4  A    between atoms: N_8  and  C_9
REMARK    5  A    between atoms: C_12  and  C_14
REMARK    6  A    between atoms: C_16  and  C_17
REMARK                            x       y       z     vdW  Elec       q    Type
REMARK                         _______ _______ _______ _____ _____    ______ ____
ROOT
ATOM      1  C   UNL     1       7.515   6.812  17.385  0.00  0.00    +0.000 A 
ATOM      2  C   UNL     1       7.833   8.188  17.238  0.00  0.00    +0.000 A 
ATOM      3  C   UNL     1       8.454   8.569  18.409  0.00  0.00    +0.000 A 
ATOM      4  N   UNL     1       8.493   7.431  19.166  0.00  0.00    +0.000 N 
ATOM      5  N   UNL     1       7.981   6.350  18.561  0.00  0.00    +0.000 NA
ATOM      6  H   UNL     1       8.844   7.328  20.112  0.00  0.00    +0.000 HD
ENDROOT
BRANCH   3   7
ATOM      7  C   UNL     1       8.978   9.858  18.852  0.00  0.00    +0.000 A 
ATOM      8  C   UNL     1       9.104  10.136  20.218  0.00  0.00    +0.000 A 
ATOM      9  C   UNL     1       9.577  11.377  20.651  0.00  0.00    +0.000 A 
ATOM     10  C   UNL     1       9.929  12.369  19.725  0.00  0.00    +0.000 A 
ATOM     11  C   UNL     1      10.385  13.628  20.142  0.00  0.00    +0.000 A 
ATOM     12  C   UNL     1      10.717  14.610  19.207  0.00  0.00    +0.000 A 
ATOM     13  C   UNL     1      10.602  14.343  17.845  0.00  0.00    +0.000 A 
ATOM     14  C   UNL     1      10.156  13.094  17.417  0.00  0.00    +0.000 A 
ATOM     15  C   UNL     1       9.813  12.098  18.344  0.00  0.00    +0.000 A 
ATOM     16  C   UNL     1       9.342  10.843  17.924  0.00  0.00    +0.000 A 
ENDBRANCH   3   7
BRANCH   1  19
ATOM     17  C   UNL     1       4.845   4.729  15.689  0.00  0.00    +0.000 C 
ATOM     18  N   UNL     1       5.421   5.780  16.517  0.00  0.00    +0.000 N 
ATOM     19  C   UNL     1       6.807   5.985  16.388  0.00  0.00    +0.000 C 
ATOM     20  O   UNL     1       7.423   5.529  15.422  0.00  0.00    +0.000 OA
BRANCH  18  21
ATOM     21  C   UNL     1       4.614   6.352  17.597  0.00  0.00    +0.000 C 
BRANCH  21  22
ATOM     22  C   UNL     1       3.523   5.436  18.060  0.00  0.00    +0.000 A 
ATOM     23  N   UNL     1       2.233   5.604  17.834  0.00  0.00    +0.000 NA
ATOM     24  C   UNL     1       1.619   4.463  18.277  0.00  0.00    +0.000 A 
ATOM     25  C   UNL     1       2.540   3.594  18.807  0.00  0.00    +0.000 A 
ATOM     26  N   UNL     1       3.745   4.240  18.706  0.00  0.00    +0.000 N 
BRANCH  26  27
ATOM     27  C   UNL     1       5.023   3.753  19.189  0.00  0.00    +0.000 C 
ATOM     28  F   UNL     1       5.697   4.715  19.875  0.00  0.00    +0.000 F 
ATOM     29  F   UNL     1       4.861   2.714  20.047  0.00  0.00    +0.000 F 
ENDBRANCH  26  27
ENDBRANCH  21  22
ENDBRANCH  18  21
ENDBRANCH   1  19
TORSDOF 5
ENDMDL
MODEL 9
REMARK VINA RESULT:      -8.5      1.344      1.782
REMARK  Name = 
REMARK  6 active torsions:
REMARK  status: ('A' for Active; 'I' for Inactive)
REMARK    1  A    between atoms: C_1  and  N_2
REMARK    2  A    between atoms: N_2  and  C_3
REMARK    3  A    between atoms: C_3  and  C_4
REMARK    4  A    between atoms: N_8  and  C_9
REMARK    5  A    between atoms: C_12  and  C_14
REMARK    6  A    between atoms: C_16  and  C_17
REMARK                            x       y       z     vdW  Elec       q    Type
REMARK                         _______ _______ _______ _____ _____    ______ ____
ROOT
ATOM      1  C   UNL     1       7.345   6.829  17.522  0.00  0.00    +0.000 A 
ATOM      2  C   UNL     1       7.545   8.220  17.321  0.00  0.00    +0.000 A 
ATOM      3  C   UNL     1       8.340   8.650  18.363  0.00  0.00    +0.000 A 
ATOM      4  N   UNL     1       8.584   7.525  19.100  0.00  0.00    +0.000 N 
ATOM      5  N   UNL     1       8.040   6.408  18.596  0.00  0.00    +0.000 NA
ATOM      6  H   UNL     1       9.103   7.455  19.968  0.00  0.00    +0.000 HD
ENDROOT
BRANCH   3   7
ATOM      7  C   UNL     1       8.853   9.974  18.705  0.00  0.00    +0.000 A 
ATOM      8  C   UNL     1       9.644  10.150  19.846  0.00  0.00    +0.000 A 
ATOM      9  C   UNL     1      10.115  11.417  20.197  0.00  0.00    +0.000 A 
ATOM     10  C   UNL     1       9.799  12.537  19.416  0.00  0.00    +0.000 A 
ATOM     11  C   UNL     1      10.245  13.821  19.765  0.00  0.00    +0.000 A 
ATOM     12  C   UNL     1       9.909  14.928  18.984  0.00  0.00    +0.000 A 
ATOM     13  C   UNL     1       9.127  14.765  17.843  0.00  0.00    +0.000 A 
ATOM     14  C   UNL     1       8.682  13.495  17.481  0.00  0.00    +0.000 A 
ATOM     15  C   UNL     1       9.007  12.372  18.258  0.00  0.00    +0.000 A 
ATOM     16  C   UNL     1       8.547  11.090  17.915  0.00  0.00    +0.000 A 
ENDBRANCH   3   7
BRANCH   1  19
ATOM     17  C   UNL     1       5.137   3.971  16.379  0.00  0.00    +0.000 C 
ATOM     18  N   UNL     1       5.684   4.990  17.264  0.00  0.00    +0.000 N 
ATOM     19  C   UNL     1       6.522   5.949  16.667  0.00  0.00    +0.000 C 
ATOM     20  O   UNL     1       6.535   6.099  15.443  0.00  0.00    +0.000 OA
BRANCH  18  21
ATOM     21  C   UNL     1       5.565   4.807  18.713  0.00  0.00    +0.000 C 
BRANCH  21  22
ATOM     22  C   UNL     1       4.168   5.013  19.215  0.00  0.00    +0.000 A 
ATOM     23  N   UNL     1       3.571   6.181  19.365  0.00  0.00    +0.000 NA
ATOM     24  C   UNL     1       2.267   5.902  19.677  0.00  0.00    +0.000 A 
ATOM     25  C   UNL     1       2.067   4.547  19.746  0.00  0.00    +0.000 A 
ATOM     26  N   UNL     1       3.293   3.987  19.495  0.00  0.00    +0.000 N 
BRANCH  26  27
ATOM     27  C   UNL     1       3.612   2.572  19.517  0.00  0.00    +0.000 C 
ATOM     28  F   UNL     1       4.287   2.230  20.648  0.00  0.00    +0.000 F 
ATOM     29  F   UNL     1       2.487   1.813  19.499  0.00  0.00    +0.000 F 
ENDBRANCH  26  27
ENDBRANCH  21  22
ENDBRANCH  18  21
ENDBRANCH   1  19
TORSDOF 5
ENDMDL
