MODEL 1
REMARK VINA RESULT:      -8.9      0.000      0.000
REMARK  Name = 
REMARK  5 active torsions:
REMARK  status: ('A' for Active; 'I' for Inactive)
REMARK    1  A    between atoms: C_8  and  C_9
REMARK    2  A    between atoms: C_9  and  C_10
REMARK    3  A    between atoms: C_13  and  C_14
REMARK    4  A    between atoms: C_14  and  N_15
REMARK    5  A    between atoms: C_18  and  C_19
REMARK                            x       y       z     vdW  Elec       q    Type
REMARK                         _______ _______ _______ _____ _____    ______ ____
ROOT
ATOM      1  C   UNL     1       4.164   5.371  17.545  0.00  0.00    +0.000 A 
ATOM      2  N   UNL     1       4.731   5.050  16.371  0.00  0.00    +0.000 NA
ATOM      3  O   UNL     1       6.097   5.181  16.620  0.00  0.00    +0.000 OA
ATOM      4  C   UNL     1       6.218   5.580  17.920  0.00  0.00    +0.000 A 
ATOM      5  N   UNL     1       5.062   5.675  18.541  0.00  0.00    +0.000 NA
ENDROOT
BRANCH   1   6
ATOM      6  C   UNL     1       2.704   5.591  17.701  0.00  0.00    +0.000 C 
BRANCH   6  14
ATOM      7  F   UNL     1       2.350   2.945  16.855  0.00  0.00    +0.000 F 
ATOM      8  C   UNL     1       1.986   3.228  18.113  0.00  0.00    +0.000 A 
ATOM      9  C   UNL     1       1.409   2.212  18.875  0.00  0.00    +0.000 A 
ATOM     10  C   UNL     1       0.988   2.476  20.174  0.00  0.00    +0.000 A 
ATOM     11  C   UNL     1       1.161   3.754  20.704  0.00  0.00    +0.000 A 
ATOM     12  C   UNL     1       1.743   4.771  19.932  0.00  0.00    +0.000 A 
ATOM     13 CL   UNL     1       1.888   6.328  20.666  0.00  0.00    +0.000 Cl
ATOM     14  C   UNL     1       2.158   4.526  18.613  0.00  0.00    +0.000 A 
ENDBRANCH   6  14
ENDBRANCH   1   6
BRANCH   4  15
ATOM     15  C   UNL     1       7.580   5.854  18.408  0.00  0.00    +0.000 C 
BRANCH  15  16
ATOM     16  N   UNL     1       7.898   7.248  18.185  0.00  0.00    +0.000 N 
ATOM     17  N   UNL     1       7.248   7.973  17.259  0.00  0.00    +0.000 NA
ATOM     18  N   UNL     1       7.714   9.202  17.404  0.00  0.00    +0.000 NA
ATOM     19  C   UNL     1       8.612   9.178  18.448  0.00  0.00    +0.000 A 
ATOM     20  N   UNL     1       8.743   7.947  18.980  0.00  0.00    +0.000 NA
BRANCH  19  21
ATOM     21  C   UNL     1       9.283  10.386  18.916  0.00  0.00    +0.000 A 
ATOM     22  C   UNL     1       9.914  11.233  17.989  0.00  0.00    +0.000 A 
ATOM     23  C   UNL     1      10.541  12.410  18.406  0.00  0.00    +0.000 A 
ATOM     24  C   UNL     1      10.545  12.755  19.755  0.00  0.00    +0.000 A 
ATOM     25  C   UNL     1       9.933  11.919  20.688  0.00  0.00    +0.000 A 
ATOM     26  C   UNL     1       9.303  10.739  20.271  0.00  0.00    +0.000 A 
ENDBRANCH  19  21
ENDBRANCH  15  16
ENDBRANCH   4  15
TORSDOF 5
ENDMDL
MODEL 2
REMARK VINA RESULT:      -8.9      1.632      1.861
REMARK  Name = 
REMARK  5 active torsions:
REMARK  status: ('A' for Active; 'I' for Inactive)
REMARK    1  A    between atoms: C_8  and  C_9
REMARK    2  A    between atoms: C_9  and  C_10
REMARK    3  A    between atoms: C_13  and  C_14
REMARK    4  A    between atoms: C_14  and  N_15
REMARK    5  A    between atoms: C_18  and  C_19
REMARK                            x       y       z     vdW  Elec       q    Type
REMARK                         _______ _______ _______ _____ _____    ______ ____
ROOT
ATOM      1  C   UNL     1       4.669   4.256  17.314  0.00  0.00    +0.000 A 
ATOM      2  N   UNL     1       5.469   3.864  16.310  0.00  0.00    +0.000 NA
ATOM      3  O   UNL     1       6.741   4.250  16.735  0.00  0.00    +0.000 OA
ATOM      4  C   UNL     1       6.578   4.848  17.952  0.00  0.00    +0.000 A 
ATOM      5  N   UNL     1       5.331   4.843  18.367  0.00  0.00    +0.000 NA
ENDROOT
BRANCH   1   6
ATOM      6  C   UNL     1       3.187   4.256  17.210  0.00  0.00    +0.000 C 
BRANCH   6  14
ATOM      7  F   UNL     1       1.994   6.273  18.744  0.00  0.00    +0.000 F 
ATOM      8  C   UNL     1       2.054   5.053  19.296  0.00  0.00    +0.000 A 
ATOM      9  C   UNL     1       1.581   4.898  20.599  0.00  0.00    +0.000 A 
ATOM     10  C   UNL     1       1.658   3.655  21.217  0.00  0.00    +0.000 A 
ATOM     11  C   UNL     1       2.196   2.574  20.520  0.00  0.00    +0.000 A 
ATOM     12  C   UNL     1       2.669   2.738  19.210  0.00  0.00    +0.000 A 
ATOM     13 CL   UNL     1       3.345   1.347  18.440  0.00  0.00    +0.000 Cl
ATOM     14  C   UNL     1       2.615   3.990  18.576  0.00  0.00    +0.000 A 
ENDBRANCH   6  14
ENDBRANCH   1   6
BRANCH   4  15
ATOM     15  C   UNL     1       7.785   5.408  18.584  0.00  0.00    +0.000 C 
BRANCH  15  16
ATOM     16  N   UNL     1       7.925   6.798  18.204  0.00  0.00    +0.000 N 
ATOM     17  N   UNL     1       7.237   7.311  17.171  0.00  0.00    +0.000 NA
ATOM     18  N   UNL     1       7.524   8.602  17.182  0.00  0.00    +0.000 NA
ATOM     19  C   UNL     1       8.356   8.825  18.256  0.00  0.00    +0.000 A 
ATOM     20  N   UNL     1       8.621   7.695  18.940  0.00  0.00    +0.000 NA
BRANCH  19  21
ATOM     21  C   UNL     1       8.832  10.161  18.599  0.00  0.00    +0.000 A 
ATOM     22  C   UNL     1       8.537  11.243  17.751  0.00  0.00    +0.000 A 
ATOM     23  C   UNL     1       8.956  12.537  18.068  0.00  0.00    +0.000 A 
ATOM     24  C   UNL     1       9.675  12.767  19.237  0.00  0.00    +0.000 A 
ATOM     25  C   UNL     1       9.985  11.703  20.084  0.00  0.00    +0.000 A 
ATOM     26  C   UNL     1       9.565  10.405  19.767  0.00  0.00    +0.000 A 
ENDBRANCH  19  21
ENDBRANCH  15  16
ENDBRANCH   4  15
TORSDOF 5
ENDMDL
MODEL 3
REMARK VINA RESULT:      -8.8      1.742      2.195
REMARK  Name = 
REMARK  5 active torsions:
REMARK  status: ('A' for Active; 'I' for Inactive)
REMARK    1  A    between atoms: C_8  and  C_9
REMARK    2  A    between atoms: C_9  and  C_10
REMARK    3  A    between atoms: C_13  and  C_14
REMARK    4  A    between atoms: C_14  and  N_15
REMARK    5  A    between atoms: C_18  and  C_19
REMARK                            x       y       z     vdW  Elec       q    Type
REMARK                         _______ _______ _______ _____ _____    ______ ____
ROOT
ATOM      1  C   UNL     1       4.016   3.746  17.269  0.00  0.00    +0.000 A 
ATOM      2  N   UNL     1       3.670   4.951  17.747  0.00  0.00    +0.000 NA
ATOM      3  O   UNL     1       4.700   5.784  17.310  0.00  0.00    +0.000 OA
ATOM      4  C   UNL     1       5.572   4.993  16.619  0.00  0.00    +0.000 A 
ATOM      5  N   UNL     1       5.178   3.742  16.534  0.00  0.00    +0.000 NA
ENDROOT
BRANCH   1   6
ATOM      6  C   UNL     1       3.330   2.492  17.673  0.00  0.00    +0.000 C 
BRANCH   6  14
ATOM      7  F   UNL     1       0.735   3.525  17.880  0.00  0.00    +0.000 F 
ATOM      8  C   UNL     1       1.372   3.264  19.030  0.00  0.00    +0.000 A 
ATOM      9  C   UNL     1       0.727   3.582  20.225  0.00  0.00    +0.000 A 
ATOM     10  C   UNL     1       1.369   3.357  21.437  0.00  0.00    +0.000 A 
ATOM     11  C   UNL     1       2.648   2.802  21.443  0.00  0.00    +0.000 A 
ATOM     12  C   UNL     1       3.291   2.486  20.237  0.00  0.00    +0.000 A 
ATOM     13 CL   UNL     1       4.886   1.831  20.346  0.00  0.00    +0.000 Cl
ATOM     14  C   UNL     1       2.664   2.722  19.003  0.00  0.00    +0.000 A 
ENDBRANCH   6  14
ENDBRANCH   1   6
BRANCH   4  15
ATOM     15  C   UNL     1       6.793   5.638  16.107  0.00  0.00    +0.000 C 
BRANCH  15  16
ATOM     16  N   UNL     1       7.324   6.531  17.116  0.00  0.00    +0.000 N 
ATOM     17  N   UNL     1       7.818   6.061  18.273  0.00  0.00    +0.000 NA
ATOM     18  N   UNL     1       8.301   7.125  18.892  0.00  0.00    +0.000 NA
ATOM     19  C   UNL     1       8.109   8.203  18.057  0.00  0.00    +0.000 A 
ATOM     20  N   UNL     1       7.499   7.856  16.907  0.00  0.00    +0.000 NA
BRANCH  19  21
ATOM     21  C   UNL     1       8.573   9.542  18.407  0.00  0.00    +0.000 A 
ATOM     22  C   UNL     1       8.329  10.613  17.531  0.00  0.00    +0.000 A 
ATOM     23  C   UNL     1       8.738  11.910  17.853  0.00  0.00    +0.000 A 
ATOM     24  C   UNL     1       9.397  12.151  19.055  0.00  0.00    +0.000 A 
ATOM     25  C   UNL     1       9.657  11.097  19.930  0.00  0.00    +0.000 A 
ATOM     26  C   UNL     1       9.246   9.797  19.609  0.00  0.00    +0.000 A 
ENDBRANCH  19  21
ENDBRANCH  15  16
ENDBRANCH   4  15
TORSDOF 5
ENDMDL
MODEL 4
REMARK VINA RESULT:      -8.8      1.624      2.015
REMARK  Name = 
REMARK  5 active torsions:
REMARK  status: ('A' for Active; 'I' for Inactive)
REMARK    1  A    between atoms: C_8  and  C_9
REMARK    2  A    between atoms: C_9  and  C_10
REMARK    3  A    between atoms: C_13  and  C_14
REMARK    4  A    between atoms: C_14  and  N_15
REMARK    5  A    between atoms: C_18  and  C_19
REMARK                            x       y       z     vdW  Elec       q    Type
REMARK                         _______ _______ _______ _____ _____    ______ ____
ROOT
ATOM      1  C   UNL     1       4.883   4.420  17.440  0.00  0.00    +0.000 A 
ATOM      2  N   UNL     1       5.773   3.970  16.544  0.00  0.00    +0.000 NA
ATOM      3  O   UNL     1       6.995   4.432  17.035  0.00  0.00    +0.000 OA
ATOM      4  C   UNL     1       6.716   5.126  18.177  0.00  0.00    +0.000 A 
ATOM      5  N   UNL     1       5.438   5.117  18.488  0.00  0.00    +0.000 NA
ENDROOT
BRANCH   1   6
ATOM      6  C   UNL     1       3.415   4.364  17.216  0.00  0.00    +0.000 C 
BRANCH   6  14
ATOM      7  F   UNL     1       2.170   6.359  18.736  0.00  0.00    +0.000 F 
ATOM      8  C   UNL     1       2.162   5.121  19.248  0.00  0.00    +0.000 A 
ATOM      9  C   UNL     1       1.598   4.934  20.510  0.00  0.00    +0.000 A 
ATOM     10  C   UNL     1       1.602   3.670  21.088  0.00  0.00    +0.000 A 
ATOM     11  C   UNL     1       2.159   2.599  20.391  0.00  0.00    +0.000 A 
ATOM     12  C   UNL     1       2.725   2.794  19.122  0.00  0.00    +0.000 A 
ATOM     13 CL   UNL     1       3.417   1.412  18.351  0.00  0.00    +0.000 Cl
ATOM     14  C   UNL     1       2.745   4.067  18.531  0.00  0.00    +0.000 A 
ENDBRANCH   6  14
ENDBRANCH   1   6
BRANCH   4  15
ATOM     15  C   UNL     1       7.850   5.777  18.854  0.00  0.00    +0.000 C 
BRANCH  15  16
ATOM     16  N   UNL     1       7.990   7.131  18.362  0.00  0.00    +0.000 N 
ATOM     17  N   UNL     1       7.263   7.575  17.323  0.00  0.00    +0.000 NA
ATOM     18  N   UNL     1       7.566   8.858  17.221  0.00  0.00    +0.000 NA
ATOM     19  C   UNL     1       8.449   9.150  18.237  0.00  0.00    +0.000 A 
ATOM     20  N   UNL     1       8.731   8.071  18.995  0.00  0.00    +0.000 NA
BRANCH  19  21
ATOM     21  C   UNL     1       8.956  10.500  18.454  0.00  0.00    +0.000 A 
ATOM     22  C   UNL     1       9.928  10.728  19.443  0.00  0.00    +0.000 A 
ATOM     23  C   UNL     1      10.451  12.006  19.653  0.00  0.00    +0.000 A 
ATOM     24  C   UNL     1      10.009  13.073  18.877  0.00  0.00    +0.000 A 
ATOM     25  C   UNL     1       9.037  12.867  17.899  0.00  0.00    +0.000 A 
ATOM     26  C   UNL     1       8.513  11.585  17.686  0.00  0.00    +0.000 A 
ENDBRANCH  19  21
ENDBRANCH  15  16
ENDBRANCH   4  15
TORSDOF 5
ENDMDL
MODEL 5
REMARK VINA RESULT:      -8.6      1.544      2.134
REMARK  Name = 
REMARK  5 active torsions:
REMARK  status: ('A' for Active; 'I' for Inactive)
REMARK    1  A    between atoms: C_8  and  C_9
REMARK    2  A    between atoms: C_9  and  C_10
REMARK    3  A    between atoms: C_13  and  C_14
REMARK    4  A    between atoms: C_14  and  N_15
REMARK    5  A    between atoms: C_18  and  C_19
REMARK                            x       y       z     vdW  Elec       q    Type
REMARK                         _______ _______ _______ _____ _____    ______ ____
ROOT
ATOM      1  C   UNL     1       4.547   3.991  17.259  0.00  0.00    +0.000 A 
ATOM      2  N   UNL     1       5.287   3.805  16.156  0.00  0.00    +0.000 NA
ATOM      3  O   UNL     1       6.558   4.238  16.536  0.00  0.00    +0.000 OA
ATOM      4  C   UNL     1       6.453   4.654  17.833  0.00  0.00    +0.000 A 
ATOM      5  N   UNL     1       5.248   4.488  18.332  0.00  0.00    +0.000 NA
ENDROOT
BRANCH   1   6
ATOM      6  C   UNL     1       3.066   3.879  17.264  0.00  0.00    +0.000 C 
BRANCH   6  14
ATOM      7  F   UNL     1       3.101   6.675  17.431  0.00  0.00    +0.000 F 
ATOM      8  C   UNL     1       2.609   6.015  18.489  0.00  0.00    +0.000 A 
ATOM      9  C   UNL     1       2.217   6.758  19.602  0.00  0.00    +0.000 A 
ATOM     10  C   UNL     1       1.733   6.107  20.732  0.00  0.00    +0.000 A 
ATOM     11  C   UNL     1       1.635   4.716  20.732  0.00  0.00    +0.000 A 
ATOM     12  C   UNL     1       2.031   3.976  19.609  0.00  0.00    +0.000 A 
ATOM     13 CL   UNL     1       1.899   2.256  19.715  0.00  0.00    +0.000 Cl
ATOM     14  C   UNL     1       2.538   4.615  18.466  0.00  0.00    +0.000 A 
ENDBRANCH   6  14
ENDBRANCH   1   6
BRANCH   4  15
ATOM     15  C   UNL     1       7.663   5.226  18.447  0.00  0.00    +0.000 C 
BRANCH  15  16
ATOM     16  N   UNL     1       7.773   6.622  18.081  0.00  0.00    +0.000 N 
ATOM     17  N   UNL     1       7.014   7.151  17.108  0.00  0.00    +0.000 NA
ATOM     18  N   UNL     1       7.298   8.442  17.120  0.00  0.00    +0.000 NA
ATOM     19  C   UNL     1       8.203   8.650  18.137  0.00  0.00    +0.000 A 
ATOM     20  N   UNL     1       8.517   7.510  18.782  0.00  0.00    +0.000 NA
BRANCH  19  21
ATOM     21  C   UNL     1       8.698   9.982  18.467  0.00  0.00    +0.000 A 
ATOM     22  C   UNL     1       9.468  10.170  19.628  0.00  0.00    +0.000 A 
ATOM     23  C   UNL     1       9.979  11.429  19.954  0.00  0.00    +0.000 A 
ATOM     24  C   UNL     1       9.724  12.517  19.124  0.00  0.00    +0.000 A 
ATOM     25  C   UNL     1       8.952  12.350  17.975  0.00  0.00    +0.000 A 
ATOM     26  C   UNL     1       8.441  11.088  17.646  0.00  0.00    +0.000 A 
ENDBRANCH  19  21
ENDBRANCH  15  16
ENDBRANCH   4  15
TORSDOF 5
ENDMDL
MODEL 6
REMARK VINA RESULT:      -8.5      1.067      1.528
REMARK  Name = 
REMARK  5 active torsions:
REMARK  status: ('A' for Active; 'I' for Inactive)
REMARK    1  A    between atoms: C_8  and  C_9
REMARK    2  A    between atoms: C_9  and  C_10
REMARK    3  A    between atoms: C_13  and  C_14
REMARK    4  A    between atoms: C_14  and  N_15
REMARK    5  A    between atoms: C_18  and  C_19
REMARK                            x       y       z     vdW  Elec       q    Type
REMARK                         _______ _______ _______ _____ _____    ______ ____
ROOT
ATOM      1  C   UNL     1       4.481   4.076  16.962  0.00  0.00    +0.000 A 
ATOM      2  N   UNL     1       5.129   4.380  15.827  0.00  0.00    +0.000 NA
ATOM      3  O   UNL     1       6.373   4.828  16.270  0.00  0.00    +0.000 OA
ATOM      4  C   UNL     1       6.347   4.761  17.634  0.00  0.00    +0.000 A 
ATOM      5  N   UNL     1       5.221   4.271  18.104  0.00  0.00    +0.000 NA
ENDROOT
BRANCH   1   6
ATOM      6  C   UNL     1       3.028   3.766  17.003  0.00  0.00    +0.000 C 
BRANCH   6  14
ATOM      7  F   UNL     1       2.809   1.457  18.572  0.00  0.00    +0.000 F 
ATOM      8  C   UNL     1       2.464   2.614  19.153  0.00  0.00    +0.000 A 
ATOM      9  C   UNL     1       1.970   2.573  20.456  0.00  0.00    +0.000 A 
ATOM     10  C   UNL     1       1.571   3.749  21.081  0.00  0.00    +0.000 A 
ATOM     11  C   UNL     1       1.683   4.959  20.399  0.00  0.00    +0.000 A 
ATOM     12  C   UNL     1       2.181   4.993  19.088  0.00  0.00    +0.000 A 
ATOM     13 CL   UNL     1       2.254   6.537  18.315  0.00  0.00    +0.000 Cl
ATOM     14  C   UNL     1       2.573   3.813  18.436  0.00  0.00    +0.000 A 
ENDBRANCH   6  14
ENDBRANCH   1   6
BRANCH   4  15
ATOM     15  C   UNL     1       7.538   5.251  18.348  0.00  0.00    +0.000 C 
BRANCH  15  16
ATOM     16  N   UNL     1       7.709   6.663  18.082  0.00  0.00    +0.000 N 
ATOM     17  N   UNL     1       6.892   7.320  17.242  0.00  0.00    +0.000 NA
ATOM     18  N   UNL     1       7.268   8.585  17.324  0.00  0.00    +0.000 NA
ATOM     19  C   UNL     1       8.287   8.648  18.249  0.00  0.00    +0.000 A 
ATOM     20  N   UNL     1       8.584   7.439  18.764  0.00  0.00    +0.000 NA
BRANCH  19  21
ATOM     21  C   UNL     1       8.908   9.913  18.626  0.00  0.00    +0.000 A 
ATOM     22  C   UNL     1       9.127  10.203  19.984  0.00  0.00    +0.000 A 
ATOM     23  C   UNL     1       9.745  11.394  20.372  0.00  0.00    +0.000 A 
ATOM     24  C   UNL     1      10.151  12.311  19.407  0.00  0.00    +0.000 A 
ATOM     25  C   UNL     1       9.932  12.044  18.056  0.00  0.00    +0.000 A 
ATOM     26  C   UNL     1       9.314  10.849  17.666  0.00  0.00    +0.000 A 
ENDBRANCH  19  21
ENDBRANCH  15  16
ENDBRANCH   4  15
TORSDOF 5
ENDMDL
MODEL 7
REMARK VINA RESULT:      -8.3      4.236      6.772
REMARK  Name = 
REMARK  5 active torsions:
REMARK  status: ('A' for Active; 'I' for Inactive)
REMARK    1  A    between atoms: C_8  and  C_9
REMARK    2  A    between atoms: C_9  and  C_10
REMARK    3  A    between atoms: C_13  and  C_14
REMARK    4  A    between atoms: C_14  and  N_15
REMARK    5  A    between atoms: C_18  and  C_19
REMARK                            x       y       z     vdW  Elec       q    Type
REMARK                         _______ _______ _______ _____ _____    ______ ____
ROOT
ATOM      1  C   UNL     1       5.174   4.470  19.488  0.00  0.00    +0.000 A 
ATOM      2  N   UNL     1       6.385   4.964  19.787  0.00  0.00    +0.000 NA
ATOM      3  O   UNL     1       6.618   5.894  18.774  0.00  0.00    +0.000 OA
ATOM      4  C   UNL     1       5.526   5.860  17.956  0.00  0.00    +0.000 A 
ATOM      5  N   UNL     1       4.596   5.028  18.372  0.00  0.00    +0.000 NA
ENDROOT
BRANCH   1   6
ATOM      6  C   UNL     1       4.599   3.279  20.165  0.00  0.00    +0.000 C 
BRANCH   6  14
ATOM      7  F   UNL     1       2.626   4.753  21.498  0.00  0.00    +0.000 F 
ATOM      8  C   UNL     1       2.208   3.931  20.526  0.00  0.00    +0.000 A 
ATOM      9  C   UNL     1       0.837   3.826  20.297  0.00  0.00    +0.000 A 
ATOM     10  C   UNL     1       0.364   2.958  19.319  0.00  0.00    +0.000 A 
ATOM     11  C   UNL     1       1.271   2.212  18.568  0.00  0.00    +0.000 A 
ATOM     12  C   UNL     1       2.649   2.322  18.804  0.00  0.00    +0.000 A 
ATOM     13 CL   UNL     1       3.691   1.335  17.843  0.00  0.00    +0.000 Cl
ATOM     14  C   UNL     1       3.143   3.181  19.799  0.00  0.00    +0.000 A 
ENDBRANCH   6  14
ENDBRANCH   1   6
BRANCH   4  15
ATOM     15  C   UNL     1       5.563   6.717  16.759  0.00  0.00    +0.000 C 
BRANCH  15  16
ATOM     16  N   UNL     1       6.126   5.972  15.652  0.00  0.00    +0.000 N 
ATOM     17  N   UNL     1       7.454   5.840  15.503  0.00  0.00    +0.000 NA
ATOM     18  N   UNL     1       7.600   5.026  14.472  0.00  0.00    +0.000 NA
ATOM     19  C   UNL     1       6.337   4.665  14.057  0.00  0.00    +0.000 A 
ATOM     20  N   UNL     1       5.372   5.240  14.799  0.00  0.00    +0.000 NA
BRANCH  19  21
ATOM     21  C   UNL     1       6.126   3.725  12.961  0.00  0.00    +0.000 A 
ATOM     22  C   UNL     1       4.828   3.520  12.461  0.00  0.00    +0.000 A 
ATOM     23  C   UNL     1       4.601   2.648  11.394  0.00  0.00    +0.000 A 
ATOM     24  C   UNL     1       5.667   1.968  10.814  0.00  0.00    +0.000 A 
ATOM     25  C   UNL     1       6.960   2.152  11.304  0.00  0.00    +0.000 A 
ATOM     26  C   UNL     1       7.189   3.028  12.373  0.00  0.00    +0.000 A 
ENDBRANCH  19  21
ENDBRANCH  15  16
ENDBRANCH   4  15
TORSDOF 5
ENDMDL
MODEL 8
REMARK VINA RESULT:      -8.3      0.886      1.402
REMARK  Name = 
REMARK  5 active torsions:
REMARK  status: ('A' for Active; 'I' for Inactive)
REMARK    1  A    between atoms: C_8  and  C_9
REMARK    2  A    between atoms: C_9  and  C_10
REMARK    3  A    between atoms: C_13  and  C_14
REMARK    4  A    between atoms: C_14  and  N_15
REMARK    5  A    between atoms: C_18  and  C_19
REMARK                            x       y       z     vdW  Elec       q    Type
REMARK                         _______ _______ _______ _____ _____    ______ ____
ROOT
ATOM      1  C   UNL     1       4.096   5.865  18.557  0.00  0.00    +0.000 A 
ATOM      2  N   UNL     1       4.510   5.356  19.727  0.00  0.00    +0.000 NA
ATOM      3  O   UNL     1       5.900   5.443  19.649  0.00  0.00    +0.000 OA
ATOM      4  C   UNL     1       6.187   5.987  18.431  0.00  0.00    +0.000 A 
ATOM      5  N   UNL     1       5.113   6.297  17.738  0.00  0.00    +0.000 NA
ENDROOT
BRANCH   1   6
ATOM      6  C   UNL     1       2.688   5.774  18.091  0.00  0.00    +0.000 C 
BRANCH   6  14
ATOM      7  F   UNL     1       2.678   3.324  16.735  0.00  0.00    +0.000 F 
ATOM      8  C   UNL     1       2.083   3.349  17.935  0.00  0.00    +0.000 A 
ATOM      9  C   UNL     1       1.459   2.185  18.384  0.00  0.00    +0.000 A 
ATOM     10  C   UNL     1       0.803   2.182  19.610  0.00  0.00    +0.000 A 
ATOM     11  C   UNL     1       0.789   3.342  20.383  0.00  0.00    +0.000 A 
ATOM     12  C   UNL     1       1.420   4.508  19.925  0.00  0.00    +0.000 A 
ATOM     13 CL   UNL     1       1.324   5.903  20.941  0.00  0.00    +0.000 Cl
ATOM     14  C   UNL     1       2.072   4.535  18.682  0.00  0.00    +0.000 A 
ENDBRANCH   6  14
ENDBRANCH   1   6
BRANCH   4  15
ATOM     15  C   UNL     1       7.611   6.119  18.080  0.00  0.00    +0.000 C 
BRANCH  15  16
ATOM     16  N   UNL     1       7.965   7.522  18.031  0.00  0.00    +0.000 N 
ATOM     17  N   UNL     1       7.345   8.370  17.194  0.00  0.00    +0.000 NA
ATOM     18  N   UNL     1       7.837   9.560  17.492  0.00  0.00    +0.000 NA
ATOM     19  C   UNL     1       8.720   9.386  18.535  0.00  0.00    +0.000 A 
ATOM     20  N   UNL     1       8.815   8.097  18.914  0.00  0.00    +0.000 NA
BRANCH  19  21
ATOM     21  C   UNL     1       9.413  10.511  19.154  0.00  0.00    +0.000 A 
ATOM     22  C   UNL     1       9.253  10.755  20.529  0.00  0.00    +0.000 A 
ATOM     23  C   UNL     1       9.927  11.808  21.153  0.00  0.00    +0.000 A 
ATOM     24  C   UNL     1      10.768  12.631  20.409  0.00  0.00    +0.000 A 
ATOM     25  C   UNL     1      10.929  12.410  19.042  0.00  0.00    +0.000 A 
ATOM     26  C   UNL     1      10.255  11.353  18.416  0.00  0.00    +0.000 A 
ENDBRANCH  19  21
ENDBRANCH  15  16
ENDBRANCH   4  15
TORSDOF 5
ENDMDL
MODEL 9
REMARK VINA RESULT:      -8.3      1.070      1.384
REMARK  Name = 
REMARK  5 active torsions:
REMARK  status: ('A' for Active; 'I' for Inactive)
REMARK    1  A    between atoms: C_8  and  C_9
REMARK    2  A    between atoms: C_9  and  C_10
REMARK    3  A    between atoms: C_13  and  C_14
REMARK    4  A    between atoms: C_14  and  N_15
REMARK    5  A    between atoms: C_18  and  C_19
REMARK                            x       y       z     vdW  Elec       q    Type
REMARK                         _______ _______ _______ _____ _____    ______ ____
ROOT
ATOM      1  C   UNL     1       3.815   4.663  17.277  0.00  0.00    +0.000 A 
ATOM      2  N   UNL     1       4.541   3.556  17.065  0.00  0.00    +0.000 NA
ATOM      3  O   UNL     1       5.767   4.049  16.618  0.00  0.00    +0.000 OA
ATOM      4  C   UNL     1       5.653   5.409  16.595  0.00  0.00    +0.000 A 
ATOM      5  N   UNL     1       4.486   5.836  17.026  0.00  0.00    +0.000 NA
ENDROOT
BRANCH   1   6
ATOM      6  C   UNL     1       2.354   4.629  17.549  0.00  0.00    +0.000 C 
BRANCH   6  14
ATOM      7  F   UNL     1       1.771   1.932  18.027  0.00  0.00    +0.000 F 
ATOM      8  C   UNL     1       1.831   2.733  19.099  0.00  0.00    +0.000 A 
ATOM      9  C   UNL     1       1.540   2.184  20.348  0.00  0.00    +0.000 A 
ATOM     10  C   UNL     1       1.559   2.992  21.479  0.00  0.00    +0.000 A 
ATOM     11  C   UNL     1       1.883   4.342  21.352  0.00  0.00    +0.000 A 
ATOM     12  C   UNL     1       2.174   4.887  20.094  0.00  0.00    +0.000 A 
ATOM     13 CL   UNL     1       2.534   6.576  20.035  0.00  0.00    +0.000 Cl
ATOM     14  C   UNL     1       2.143   4.090  18.938  0.00  0.00    +0.000 A 
ENDBRANCH   6  14
ENDBRANCH   1   6
BRANCH   4  15
ATOM     15  C   UNL     1       6.810   6.166  16.088  0.00  0.00    +0.000 C 
BRANCH  15  16
ATOM     16  N   UNL     1       7.388   6.940  17.166  0.00  0.00    +0.000 N 
ATOM     17  N   UNL     1       7.798   6.354  18.303  0.00  0.00    +0.000 NA
ATOM     18  N   UNL     1       8.358   7.327  19.002  0.00  0.00    +0.000 NA
ATOM     19  C   UNL     1       8.296   8.468  18.234  0.00  0.00    +0.000 A 
ATOM     20  N   UNL     1       7.695   8.253  17.047  0.00  0.00    +0.000 NA
BRANCH  19  21
ATOM     21  C   UNL     1       8.872   9.731  18.681  0.00  0.00    +0.000 A 
ATOM     22  C   UNL     1       9.189  10.724  17.738  0.00  0.00    +0.000 A 
ATOM     23  C   UNL     1       9.716  11.953  18.141  0.00  0.00    +0.000 A 
ATOM     24  C   UNL     1       9.934  12.206  19.493  0.00  0.00    +0.000 A 
ATOM     25  C   UNL     1       9.635  11.227  20.441  0.00  0.00    +0.000 A 
ATOM     26  C   UNL     1       9.105   9.995  20.037  0.00  0.00    +0.000 A 
ENDBRANCH  19  21
ENDBRANCH  15  16
ENDBRANCH   4  15
TORSDOF 5
ENDMDL
