MODEL 1
REMARK VINA RESULT:      -9.4      0.000      0.000
REMARK  Name = 
REMARK  9 active torsions:
REMARK  status: ('A' for Active; 'I' for Inactive)
REMARK    1  A    between atoms: C_1  and  C_2
REMARK    2  A    between atoms: C_5  and  C_6
REMARK    3  A    between atoms: C_6  and  C_7
REMARK    4  A    between atoms: C_6  and  C_29
REMARK    5  A    between atoms: C_7  and  N_8
REMARK    6  A    between atoms: C_9  and  C_11
REMARK    7  A    between atoms: N_13  and  C_14
REMARK    8  A    between atoms: C_14  and  C_15
REMARK    9  A    between atoms: C_29  and  O_31
REMARK                            x       y       z     vdW  Elec       q    Type
REMARK                         _______ _______ _______ _____ _____    ______ ____
ROOT
ATOM      1  C   UNL     1       2.494   6.144  19.038  0.00  0.00    +0.000 A 
ATOM      2  N   UNL     1       3.399   6.498  18.163  0.00  0.00    +0.000 NA
ATOM      3  N   UNL     1       3.998   5.506  17.384  0.00  0.00    +0.000 N 
ATOM      4  C   UNL     1       3.693   4.150  17.472  0.00  0.00    +0.000 A 
ATOM      5  O   UNL     1       4.205   3.276  16.779  0.00  0.00    +0.000 OA
ATOM      6  C   UNL     1       2.702   3.768  18.488  0.00  0.00    +0.000 A 
ATOM      7  C   UNL     1       2.448   2.409  18.725  0.00  0.00    +0.000 A 
ATOM      8  C   UNL     1       1.599   2.035  19.764  0.00  0.00    +0.000 A 
ATOM      9  C   UNL     1       0.897   3.012  20.463  0.00  0.00    +0.000 A 
ATOM     10  C   UNL     1       1.089   4.362  20.165  0.00  0.00    +0.000 A 
ATOM     11  C   UNL     1       2.058   4.746  19.230  0.00  0.00    +0.000 A 
ENDROOT
BRANCH   1  13
ATOM     12  N   UNL     1       1.554   8.404  19.307  0.00  0.00    +0.000 N 
ATOM     13  C   UNL     1       1.908   7.243  19.947  0.00  0.00    +0.000 C 
ATOM     14  O   UNL     1       1.762   7.058  21.149  0.00  0.00    +0.000 OA
ATOM     15  H   UNL     1       2.023   8.576  18.420  0.00  0.00    +0.000 HD
BRANCH  12  16
ATOM     16  C   UNL     1       0.978   9.527  20.042  0.00  0.00    +0.000 C 
BRANCH  16  17
ATOM     17  C   UNL     1       0.743  10.786  19.181  0.00  0.00    +0.000 C 
BRANCH  17  22
ATOM     18  C   UNL     1      -4.824  11.103  17.393  0.00  0.00    +0.000 C 
ATOM     19  C   UNL     1      -3.393  11.031  17.847  0.00  0.00    +0.000 A 
ATOM     20  C   UNL     1      -2.924  11.858  18.869  0.00  0.00    +0.000 A 
ATOM     21  C   UNL     1      -1.589  11.785  19.286  0.00  0.00    +0.000 A 
ATOM     22  C   UNL     1      -0.696  10.877  18.690  0.00  0.00    +0.000 A 
ATOM     23  C   UNL     1      -1.186  10.031  17.686  0.00  0.00    +0.000 A 
ATOM     24  C   UNL     1      -2.513  10.119  17.257  0.00  0.00    +0.000 A 
ENDBRANCH  17  22
BRANCH  17  25
ATOM     25  C   UNL     1       1.799  10.867  18.085  0.00  0.00    +0.000 C 
ATOM     26  O   UNL     1       2.184   9.920  17.417  0.00  0.00    +0.000 OA
BRANCH  25  27
ATOM     27  O   UNL     1       2.340  12.107  17.916  0.00  0.00    +0.000 OA
ATOM     28  H   UNL     1       2.759  12.248  17.048  0.00  0.00    +0.000 HD
ENDBRANCH  25  27
ENDBRANCH  17  25
ENDBRANCH  16  17
ENDBRANCH  12  16
ENDBRANCH   1  13
BRANCH   3  29
ATOM     29  C   UNL     1       5.113   5.897  16.521  0.00  0.00    +0.000 C 
BRANCH  29  30
ATOM     30  C   UNL     1       6.281   6.464  17.304  0.00  0.00    +0.000 A 
ATOM     31  C   UNL     1       6.782   7.752  17.048  0.00  0.00    +0.000 A 
ATOM     32  C   UNL     1       7.866   8.254  17.762  0.00  0.00    +0.000 A 
ATOM     33  C   UNL     1       8.472   7.476  18.744  0.00  0.00    +0.000 A 
ATOM     34  C   UNL     1       7.989   6.196  19.011  0.00  0.00    +0.000 A 
ATOM     35  C   UNL     1       6.901   5.693  18.289  0.00  0.00    +0.000 A 
ENDBRANCH  29  30
ENDBRANCH   3  29
TORSDOF 8
ENDMDL
MODEL 2
REMARK VINA RESULT:      -9.4      0.189      1.200
REMARK  Name = 
REMARK  9 active torsions:
REMARK  status: ('A' for Active; 'I' for Inactive)
REMARK    1  A    between atoms: C_1  and  C_2
REMARK    2  A    between atoms: C_5  and  C_6
REMARK    3  A    between atoms: C_6  and  C_7
REMARK    4  A    between atoms: C_6  and  C_29
REMARK    5  A    between atoms: C_7  and  N_8
REMARK    6  A    between atoms: C_9  and  C_11
REMARK    7  A    between atoms: N_13  and  C_14
REMARK    8  A    between atoms: C_14  and  C_15
REMARK    9  A    between atoms: C_29  and  O_31
REMARK                            x       y       z     vdW  Elec       q    Type
REMARK                         _______ _______ _______ _____ _____    ______ ____
ROOT
ATOM      1  C   UNL     1       2.444   6.128  19.166  0.00  0.00    +0.000 A 
ATOM      2  N   UNL     1       3.323   6.445  18.251  0.00  0.00    +0.000 NA
ATOM      3  N   UNL     1       3.923   5.419  17.518  0.00  0.00    +0.000 N 
ATOM      4  C   UNL     1       3.645   4.066  17.692  0.00  0.00    +0.000 A 
ATOM      5  O   UNL     1       4.158   3.161  17.040  0.00  0.00    +0.000 OA
ATOM      6  C   UNL     1       2.684   3.727  18.751  0.00  0.00    +0.000 A 
ATOM      7  C   UNL     1       2.460   2.380  19.073  0.00  0.00    +0.000 A 
ATOM      8  C   UNL     1       1.641   2.055  20.151  0.00  0.00    +0.000 A 
ATOM      9  C   UNL     1       0.937   3.059  20.808  0.00  0.00    +0.000 A 
ATOM     10  C   UNL     1       1.097   4.391  20.427  0.00  0.00    +0.000 A 
ATOM     11  C   UNL     1       2.038   4.736  19.449  0.00  0.00    +0.000 A 
ENDROOT
BRANCH   1  13
ATOM     12  N   UNL     1       1.660   8.455  19.360  0.00  0.00    +0.000 N 
ATOM     13  C   UNL     1       1.858   7.268  20.022  0.00  0.00    +0.000 C 
ATOM     14  O   UNL     1       1.580   7.094  21.202  0.00  0.00    +0.000 OA
ATOM     15  H   UNL     1       2.227   8.590  18.525  0.00  0.00    +0.000 HD
BRANCH  12  16
ATOM     16  C   UNL     1       1.103   9.618  20.044  0.00  0.00    +0.000 C 
BRANCH  16  17
ATOM     17  C   UNL     1       0.828  10.819  19.116  0.00  0.00    +0.000 C 
BRANCH  17  22
ATOM     18  C   UNL     1      -4.753  11.094  17.368  0.00  0.00    +0.000 C 
ATOM     19  C   UNL     1      -3.323  11.014  17.822  0.00  0.00    +0.000 A 
ATOM     20  C   UNL     1      -2.441  10.096  17.249  0.00  0.00    +0.000 A 
ATOM     21  C   UNL     1      -1.109  10.027  17.679  0.00  0.00    +0.000 A 
ATOM     22  C   UNL     1      -0.632  10.882  18.687  0.00  0.00    +0.000 A 
ATOM     23  C   UNL     1      -1.519  11.821  19.233  0.00  0.00    +0.000 A 
ATOM     24  C   UNL     1      -2.853  11.874  18.818  0.00  0.00    +0.000 A 
ENDBRANCH  17  22
BRANCH  17  25
ATOM     25  C   UNL     1       1.833  10.828  17.970  0.00  0.00    +0.000 C 
ATOM     26  O   UNL     1       2.230   9.832  17.385  0.00  0.00    +0.000 OA
BRANCH  25  27
ATOM     27  O   UNL     1       2.312  12.064  17.651  0.00  0.00    +0.000 OA
ATOM     28  H   UNL     1       2.466  12.201  16.698  0.00  0.00    +0.000 HD
ENDBRANCH  25  27
ENDBRANCH  17  25
ENDBRANCH  16  17
ENDBRANCH  12  16
ENDBRANCH   1  13
BRANCH   3  29
ATOM     29  C   UNL     1       5.012   5.777  16.608  0.00  0.00    +0.000 C 
BRANCH  29  30
ATOM     30  C   UNL     1       6.220   6.330  17.338  0.00  0.00    +0.000 A 
ATOM     31  C   UNL     1       6.862   5.600  18.354  0.00  0.00    +0.000 A 
ATOM     32  C   UNL     1       7.960   6.126  19.029  0.00  0.00    +0.000 A 
ATOM     33  C   UNL     1       8.435   7.394  18.704  0.00  0.00    +0.000 A 
ATOM     34  C   UNL     1       7.810   8.132  17.700  0.00  0.00    +0.000 A 
ATOM     35  C   UNL     1       6.704   7.601  17.025  0.00  0.00    +0.000 A 
ENDBRANCH  29  30
ENDBRANCH   3  29
TORSDOF 8
ENDMDL
MODEL 3
REMARK VINA RESULT:      -9.0      1.850      2.726
REMARK  Name = 
REMARK  9 active torsions:
REMARK  status: ('A' for Active; 'I' for Inactive)
REMARK    1  A    between atoms: C_1  and  C_2
REMARK    2  A    between atoms: C_5  and  C_6
REMARK    3  A    between atoms: C_6  and  C_7
REMARK    4  A    between atoms: C_6  and  C_29
REMARK    5  A    between atoms: C_7  and  N_8
REMARK    6  A    between atoms: C_9  and  C_11
REMARK    7  A    between atoms: N_13  and  C_14
REMARK    8  A    between atoms: C_14  and  C_15
REMARK    9  A    between atoms: C_29  and  O_31
REMARK                            x       y       z     vdW  Elec       q    Type
REMARK                         _______ _______ _______ _____ _____    ______ ____
ROOT
ATOM      1  C   UNL     1       2.463   6.042  19.010  0.00  0.00    +0.000 A 
ATOM      2  N   UNL     1       3.348   6.567  18.203  0.00  0.00    +0.000 NA
ATOM      3  N   UNL     1       3.960   5.744  17.257  0.00  0.00    +0.000 N 
ATOM      4  C   UNL     1       3.690   4.387  17.107  0.00  0.00    +0.000 A 
ATOM      5  O   UNL     1       4.214   3.661  16.266  0.00  0.00    +0.000 OA
ATOM      6  C   UNL     1       2.721   3.806  18.048  0.00  0.00    +0.000 A 
ATOM      7  C   UNL     1       2.504   2.420  18.044  0.00  0.00    +0.000 A 
ATOM      8  C   UNL     1       1.677   1.848  19.008  0.00  0.00    +0.000 A 
ATOM      9  C   UNL     1       0.961   2.668  19.874  0.00  0.00    +0.000 A 
ATOM     10  C   UNL     1       1.117   4.053  19.817  0.00  0.00    +0.000 A 
ATOM     11  C   UNL     1       2.063   4.621  18.956  0.00  0.00    +0.000 A 
ENDROOT
BRANCH   1  13
ATOM     12  N   UNL     1       1.663   8.255  19.735  0.00  0.00    +0.000 N 
ATOM     13  C   UNL     1       1.862   6.948  20.103  0.00  0.00    +0.000 C 
ATOM     14  O   UNL     1       1.576   6.502  21.207  0.00  0.00    +0.000 OA
ATOM     15  H   UNL     1       2.235   8.584  18.960  0.00  0.00    +0.000 HD
BRANCH  12  16
ATOM     16  C   UNL     1       1.092   9.224  20.666  0.00  0.00    +0.000 C 
BRANCH  16  17
ATOM     17  C   UNL     1       0.752  10.585  20.025  0.00  0.00    +0.000 C 
BRANCH  17  22
ATOM     18  C   UNL     1      -1.614  14.275  23.908  0.00  0.00    +0.000 C 
ATOM     19  C   UNL     1      -1.014  13.332  22.903  0.00  0.00    +0.000 A 
ATOM     20  C   UNL     1      -0.185  13.804  21.884  0.00  0.00    +0.000 A 
ATOM     21  C   UNL     1       0.369  12.918  20.951  0.00  0.00    +0.000 A 
ATOM     22  C   UNL     1       0.110  11.539  21.025  0.00  0.00    +0.000 A 
ATOM     23  C   UNL     1      -0.698  11.072  22.071  0.00  0.00    +0.000 A 
ATOM     24  C   UNL     1      -1.268  11.960  22.989  0.00  0.00    +0.000 A 
ENDBRANCH  17  22
BRANCH  17  25
ATOM     25  C   UNL     1      -0.047  10.369  18.744  0.00  0.00    +0.000 C 
ATOM     26  O   UNL     1      -1.264  10.422  18.666  0.00  0.00    +0.000 OA
BRANCH  25  27
ATOM     27  O   UNL     1       0.711  10.059  17.655  0.00  0.00    +0.000 OA
ATOM     28  H   UNL     1       0.198   9.767  16.879  0.00  0.00    +0.000 HD
ENDBRANCH  25  27
ENDBRANCH  17  25
ENDBRANCH  16  17
ENDBRANCH  12  16
ENDBRANCH   1  13
BRANCH   3  29
ATOM     29  C   UNL     1       5.055   6.310  16.466  0.00  0.00    +0.000 C 
BRANCH  29  30
ATOM     30  C   UNL     1       6.270   6.639  17.311  0.00  0.00    +0.000 A 
ATOM     31  C   UNL     1       6.779   5.729  18.254  0.00  0.00    +0.000 A 
ATOM     32  C   UNL     1       7.884   6.050  19.036  0.00  0.00    +0.000 A 
ATOM     33  C   UNL     1       8.502   7.289  18.891  0.00  0.00    +0.000 A 
ATOM     34  C   UNL     1       8.011   8.204  17.961  0.00  0.00    +0.000 A 
ATOM     35  C   UNL     1       6.897   7.879  17.178  0.00  0.00    +0.000 A 
ENDBRANCH  29  30
ENDBRANCH   3  29
TORSDOF 8
ENDMDL
MODEL 4
REMARK VINA RESULT:      -8.9      1.646      2.280
REMARK  Name = 
REMARK  9 active torsions:
REMARK  status: ('A' for Active; 'I' for Inactive)
REMARK    1  A    between atoms: C_1  and  C_2
REMARK    2  A    between atoms: C_5  and  C_6
REMARK    3  A    between atoms: C_6  and  C_7
REMARK    4  A    between atoms: C_6  and  C_29
REMARK    5  A    between atoms: C_7  and  N_8
REMARK    6  A    between atoms: C_9  and  C_11
REMARK    7  A    between atoms: N_13  and  C_14
REMARK    8  A    between atoms: C_14  and  C_15
REMARK    9  A    between atoms: C_29  and  O_31
REMARK                            x       y       z     vdW  Elec       q    Type
REMARK                         _______ _______ _______ _____ _____    ______ ____
ROOT
ATOM      1  C   UNL     1       2.473   5.975  18.993  0.00  0.00    +0.000 A 
ATOM      2  N   UNL     1       3.355   6.538  18.209  0.00  0.00    +0.000 NA
ATOM      3  N   UNL     1       3.978   5.756  17.236  0.00  0.00    +0.000 N 
ATOM      4  C   UNL     1       3.722   4.402  17.036  0.00  0.00    +0.000 A 
ATOM      5  O   UNL     1       4.256   3.713  16.172  0.00  0.00    +0.000 OA
ATOM      6  C   UNL     1       2.757   3.778  17.952  0.00  0.00    +0.000 A 
ATOM      7  C   UNL     1       2.553   2.391  17.898  0.00  0.00    +0.000 A 
ATOM      8  C   UNL     1       1.730   1.776  18.838  0.00  0.00    +0.000 A 
ATOM      9  C   UNL     1       1.003   2.557  19.731  0.00  0.00    +0.000 A 
ATOM     10  C   UNL     1       1.144   3.945  19.724  0.00  0.00    +0.000 A 
ATOM     11  C   UNL     1       2.088   4.553  18.887  0.00  0.00    +0.000 A 
ENDROOT
BRANCH   1  13
ATOM     12  N   UNL     1       1.715   8.168  19.820  0.00  0.00    +0.000 N 
ATOM     13  C   UNL     1       1.860   6.835  20.116  0.00  0.00    +0.000 C 
ATOM     14  O   UNL     1       1.519   6.335  21.181  0.00  0.00    +0.000 OA
ATOM     15  H   UNL     1       2.326   8.523  19.087  0.00  0.00    +0.000 HD
BRANCH  12  16
ATOM     16  C   UNL     1       1.140   9.099  20.786  0.00  0.00    +0.000 C 
BRANCH  16  17
ATOM     17  C   UNL     1       0.826  10.493  20.204  0.00  0.00    +0.000 C 
BRANCH  17  22
ATOM     18  C   UNL     1      -3.142  13.313  23.459  0.00  0.00    +0.000 C 
ATOM     19  C   UNL     1      -2.115  12.592  22.631  0.00  0.00    +0.000 A 
ATOM     20  C   UNL     1      -1.582  11.373  23.054  0.00  0.00    +0.000 A 
ATOM     21  C   UNL     1      -0.626  10.708  22.277  0.00  0.00    +0.000 A 
ATOM     22  C   UNL     1      -0.188  11.248  21.055  0.00  0.00    +0.000 A 
ATOM     23  C   UNL     1      -0.753  12.457  20.626  0.00  0.00    +0.000 A 
ATOM     24  C   UNL     1      -1.692  13.130  21.413  0.00  0.00    +0.000 A 
ENDBRANCH  17  22
BRANCH  17  25
ATOM     25  C   UNL     1       0.457  10.367  18.731  0.00  0.00    +0.000 C 
ATOM     26  O   UNL     1      -0.625   9.985  18.314  0.00  0.00    +0.000 OA
BRANCH  25  27
ATOM     27  O   UNL     1       1.466  10.682  17.870  0.00  0.00    +0.000 OA
ATOM     28  H   UNL     1       1.470  10.158  17.048  0.00  0.00    +0.000 HD
ENDBRANCH  25  27
ENDBRANCH  17  25
ENDBRANCH  16  17
ENDBRANCH  12  16
ENDBRANCH   1  13
BRANCH   3  29
ATOM     29  C   UNL     1       5.069   6.360  16.469  0.00  0.00    +0.000 C 
BRANCH  29  30
ATOM     30  C   UNL     1       6.270   6.691  17.333  0.00  0.00    +0.000 A 
ATOM     31  C   UNL     1       6.969   7.902  17.190  0.00  0.00    +0.000 A 
ATOM     32  C   UNL     1       8.081   8.186  17.977  0.00  0.00    +0.000 A 
ATOM     33  C   UNL     1       8.518   7.262  18.922  0.00  0.00    +0.000 A 
ATOM     34  C   UNL     1       7.838   6.056  19.078  0.00  0.00    +0.000 A 
ATOM     35  C   UNL     1       6.721   5.772  18.283  0.00  0.00    +0.000 A 
ENDBRANCH  29  30
ENDBRANCH   3  29
TORSDOF 8
ENDMDL
MODEL 5
REMARK VINA RESULT:      -8.8      1.157      1.691
REMARK  Name = 
REMARK  9 active torsions:
REMARK  status: ('A' for Active; 'I' for Inactive)
REMARK    1  A    between atoms: C_1  and  C_2
REMARK    2  A    between atoms: C_5  and  C_6
REMARK    3  A    between atoms: C_6  and  C_7
REMARK    4  A    between atoms: C_6  and  C_29
REMARK    5  A    between atoms: C_7  and  N_8
REMARK    6  A    between atoms: C_9  and  C_11
REMARK    7  A    between atoms: N_13  and  C_14
REMARK    8  A    between atoms: C_14  and  C_15
REMARK    9  A    between atoms: C_29  and  O_31
REMARK                            x       y       z     vdW  Elec       q    Type
REMARK                         _______ _______ _______ _____ _____    ______ ____
ROOT
ATOM      1  C   UNL     1       2.624   6.433  18.827  0.00  0.00    +0.000 A 
ATOM      2  N   UNL     1       3.598   6.607  17.971  0.00  0.00    +0.000 NA
ATOM      3  N   UNL     1       4.184   5.482  17.390  0.00  0.00    +0.000 N 
ATOM      4  C   UNL     1       3.799   4.171  17.657  0.00  0.00    +0.000 A 
ATOM      5  O   UNL     1       4.301   3.179  17.138  0.00  0.00    +0.000 OA
ATOM      6  C   UNL     1       2.729   3.994  18.650  0.00  0.00    +0.000 A 
ATOM      7  C   UNL     1       2.386   2.700  19.069  0.00  0.00    +0.000 A 
ATOM      8  C   UNL     1       1.457   2.529  20.093  0.00  0.00    +0.000 A 
ATOM      9  C   UNL     1       0.772   3.633  20.591  0.00  0.00    +0.000 A 
ATOM     10  C   UNL     1       1.057   4.911  20.109  0.00  0.00    +0.000 A 
ATOM     11  C   UNL     1       2.099   5.103  19.194  0.00  0.00    +0.000 A 
ENDROOT
BRANCH   1  13
ATOM     12  N   UNL     1       1.779   8.743  18.690  0.00  0.00    +0.000 N 
ATOM     13  C   UNL     1       2.049   7.684  19.521  0.00  0.00    +0.000 C 
ATOM     14  O   UNL     1       1.840   7.697  20.728  0.00  0.00    +0.000 OA
ATOM     15  H   UNL     1       2.295   8.754  17.813  0.00  0.00    +0.000 HD
BRANCH  12  16
ATOM     16  C   UNL     1       1.222   9.989  19.209  0.00  0.00    +0.000 C 
BRANCH  16  17
ATOM     17  C   UNL     1      -0.135   9.820  19.923  0.00  0.00    +0.000 C 
BRANCH  17  22
ATOM     18  C   UNL     1      -4.651  11.724  16.719  0.00  0.00    +0.000 C 
ATOM     19  C   UNL     1      -3.486  11.245  17.539  0.00  0.00    +0.000 A 
ATOM     20  C   UNL     1      -3.134  11.886  18.727  0.00  0.00    +0.000 A 
ATOM     21  C   UNL     1      -2.047  11.433  19.484  0.00  0.00    +0.000 A 
ATOM     22  C   UNL     1      -1.292  10.323  19.069  0.00  0.00    +0.000 A 
ATOM     23  C   UNL     1      -1.673   9.667  17.889  0.00  0.00    +0.000 A 
ATOM     24  C   UNL     1      -2.746  10.134  17.124  0.00  0.00    +0.000 A 
ENDBRANCH  17  22
BRANCH  17  25
ATOM     25  C   UNL     1      -0.062  10.424  21.321  0.00  0.00    +0.000 C 
ATOM     26  O   UNL     1      -0.746  10.069  22.269  0.00  0.00    +0.000 OA
BRANCH  25  27
ATOM     27  O   UNL     1       0.821  11.455  21.443  0.00  0.00    +0.000 OA
ATOM     28  H   UNL     1       1.005  11.927  20.610  0.00  0.00    +0.000 HD
ENDBRANCH  25  27
ENDBRANCH  17  25
ENDBRANCH  16  17
ENDBRANCH  12  16
ENDBRANCH   1  13
BRANCH   3  29
ATOM     29  C   UNL     1       5.369   5.684  16.554  0.00  0.00    +0.000 C 
BRANCH  29  30
ATOM     30  C   UNL     1       6.492   6.379  17.299  0.00  0.00    +0.000 A 
ATOM     31  C   UNL     1       7.164   5.755  18.364  0.00  0.00    +0.000 A 
ATOM     32  C   UNL     1       8.182   6.410  19.052  0.00  0.00    +0.000 A 
ATOM     33  C   UNL     1       8.545   7.704  18.688  0.00  0.00    +0.000 A 
ATOM     34  C   UNL     1       7.889   8.338  17.635  0.00  0.00    +0.000 A 
ATOM     35  C   UNL     1       6.864   7.678  16.947  0.00  0.00    +0.000 A 
ENDBRANCH  29  30
ENDBRANCH   3  29
TORSDOF 8
ENDMDL
MODEL 6
REMARK VINA RESULT:      -8.8      1.877      3.319
REMARK  Name = 
REMARK  9 active torsions:
REMARK  status: ('A' for Active; 'I' for Inactive)
REMARK    1  A    between atoms: C_1  and  C_2
REMARK    2  A    between atoms: C_5  and  C_6
REMARK    3  A    between atoms: C_6  and  C_7
REMARK    4  A    between atoms: C_6  and  C_29
REMARK    5  A    between atoms: C_7  and  N_8
REMARK    6  A    between atoms: C_9  and  C_11
REMARK    7  A    between atoms: N_13  and  C_14
REMARK    8  A    between atoms: C_14  and  C_15
REMARK    9  A    between atoms: C_29  and  O_31
REMARK                            x       y       z     vdW  Elec       q    Type
REMARK                         _______ _______ _______ _____ _____    ______ ____
ROOT
ATOM      1  C   UNL     1       2.529   6.266  18.934  0.00  0.00    +0.000 A 
ATOM      2  N   UNL     1       3.462   6.548  18.061  0.00  0.00    +0.000 NA
ATOM      3  N   UNL     1       4.071   5.497  17.374  0.00  0.00    +0.000 N 
ATOM      4  C   UNL     1       3.750   4.154  17.550  0.00  0.00    +0.000 A 
ATOM      5  O   UNL     1       4.272   3.227  16.938  0.00  0.00    +0.000 OA
ATOM      6  C   UNL     1       2.727   3.855  18.563  0.00  0.00    +0.000 A 
ATOM      7  C   UNL     1       2.452   2.519  18.890  0.00  0.00    +0.000 A 
ATOM      8  C   UNL     1       1.571   2.229  19.929  0.00  0.00    +0.000 A 
ATOM      9  C   UNL     1       0.860   3.260  20.535  0.00  0.00    +0.000 A 
ATOM     10  C   UNL     1       1.075   4.583  20.146  0.00  0.00    +0.000 A 
ATOM     11  C   UNL     1       2.073   4.890  19.213  0.00  0.00    +0.000 A 
ENDROOT
BRANCH   1  13
ATOM     12  N   UNL     1       1.645   8.564  19.018  0.00  0.00    +0.000 N 
ATOM     13  C   UNL     1       1.929   7.433  19.743  0.00  0.00    +0.000 C 
ATOM     14  O   UNL     1       1.716   7.325  20.945  0.00  0.00    +0.000 OA
ATOM     15  H   UNL     1       2.164   8.669  18.149  0.00  0.00    +0.000 HD
BRANCH  12  16
ATOM     16  C   UNL     1       1.065   9.743  19.653  0.00  0.00    +0.000 C 
BRANCH  16  17
ATOM     17  C   UNL     1       0.823  10.921  18.687  0.00  0.00    +0.000 C 
BRANCH  17  22
ATOM     18  C   UNL     1       4.027  15.592  20.171  0.00  0.00    +0.000 C 
ATOM     19  C   UNL     1       3.198  14.400  19.784  0.00  0.00    +0.000 A 
ATOM     20  C   UNL     1       3.243  13.887  18.487  0.00  0.00    +0.000 A 
ATOM     21  C   UNL     1       2.467  12.776  18.135  0.00  0.00    +0.000 A 
ATOM     22  C   UNL     1       1.633  12.151  19.077  0.00  0.00    +0.000 A 
ATOM     23  C   UNL     1       1.618  12.656  20.386  0.00  0.00    +0.000 A 
ATOM     24  C   UNL     1       2.378  13.778  20.730  0.00  0.00    +0.000 A 
ENDBRANCH  17  22
BRANCH  17  25
ATOM     25  C   UNL     1      -0.674  11.163  18.531  0.00  0.00    +0.000 C 
ATOM     26  O   UNL     1      -1.546  10.505  19.078  0.00  0.00    +0.000 OA
BRANCH  25  27
ATOM     27  O   UNL     1      -0.994  12.176  17.677  0.00  0.00    +0.000 OA
ATOM     28  H   UNL     1      -0.821  13.068  18.030  0.00  0.00    +0.000 HD
ENDBRANCH  25  27
ENDBRANCH  17  25
ENDBRANCH  16  17
ENDBRANCH  12  16
ENDBRANCH   1  13
BRANCH   3  29
ATOM     29  C   UNL     1       5.214   5.815  16.516  0.00  0.00    +0.000 C 
BRANCH  29  30
ATOM     30  C   UNL     1       6.371   6.413  17.291  0.00  0.00    +0.000 A 
ATOM     31  C   UNL     1       7.021   5.698  18.312  0.00  0.00    +0.000 A 
ATOM     32  C   UNL     1       8.071   6.265  19.028  0.00  0.00    +0.000 A 
ATOM     33  C   UNL     1       8.490   7.561  18.739  0.00  0.00    +0.000 A 
ATOM     34  C   UNL     1       7.857   8.285  17.730  0.00  0.00    +0.000 A 
ATOM     35  C   UNL     1       6.800   7.713  17.013  0.00  0.00    +0.000 A 
ENDBRANCH  29  30
ENDBRANCH   3  29
TORSDOF 8
ENDMDL
MODEL 7
REMARK VINA RESULT:      -8.8      1.129      1.907
REMARK  Name = 
REMARK  9 active torsions:
REMARK  status: ('A' for Active; 'I' for Inactive)
REMARK    1  A    between atoms: C_1  and  C_2
REMARK    2  A    between atoms: C_5  and  C_6
REMARK    3  A    between atoms: C_6  and  C_7
REMARK    4  A    between atoms: C_6  and  C_29
REMARK    5  A    between atoms: C_7  and  N_8
REMARK    6  A    between atoms: C_9  and  C_11
REMARK    7  A    between atoms: N_13  and  C_14
REMARK    8  A    between atoms: C_14  and  C_15
REMARK    9  A    between atoms: C_29  and  O_31
REMARK                            x       y       z     vdW  Elec       q    Type
REMARK                         _______ _______ _______ _____ _____    ______ ____
ROOT
ATOM      1  C   UNL     1       2.670   6.303  18.763  0.00  0.00    +0.000 A 
ATOM      2  N   UNL     1       3.675   6.429  17.935  0.00  0.00    +0.000 NA
ATOM      3  N   UNL     1       4.254   5.274  17.407  0.00  0.00    +0.000 N 
ATOM      4  C   UNL     1       3.831   3.981  17.702  0.00  0.00    +0.000 A 
ATOM      5  O   UNL     1       4.326   2.962  17.230  0.00  0.00    +0.000 OA
ATOM      6  C   UNL     1       2.726   3.858  18.665  0.00  0.00    +0.000 A 
ATOM      7  C   UNL     1       2.340   2.586  19.111  0.00  0.00    +0.000 A 
ATOM      8  C   UNL     1       1.375   2.467  20.109  0.00  0.00    +0.000 A 
ATOM      9  C   UNL     1       0.700   3.600  20.550  0.00  0.00    +0.000 A 
ATOM     10  C   UNL     1       1.029   4.856  20.039  0.00  0.00    +0.000 A 
ATOM     11  C   UNL     1       2.104   4.997  19.153  0.00  0.00    +0.000 A 
ENDROOT
BRANCH   1  13
ATOM     12  N   UNL     1       1.905   8.633  18.532  0.00  0.00    +0.000 N 
ATOM     13  C   UNL     1       2.101   7.587  19.399  0.00  0.00    +0.000 C 
ATOM     14  O   UNL     1       1.835   7.636  20.594  0.00  0.00    +0.000 OA
ATOM     15  H   UNL     1       2.463   8.607  17.681  0.00  0.00    +0.000 HD
BRANCH  12  16
ATOM     16  C   UNL     1       1.363   9.907  18.995  0.00  0.00    +0.000 C 
BRANCH  16  17
ATOM     17  C   UNL     1       0.047   9.779  19.788  0.00  0.00    +0.000 C 
BRANCH  17  22
ATOM     18  C   UNL     1      -4.491  11.682  16.614  0.00  0.00    +0.000 C 
ATOM     19  C   UNL     1      -3.332  11.184  17.431  0.00  0.00    +0.000 A 
ATOM     20  C   UNL     1      -2.476  10.199  16.933  0.00  0.00    +0.000 A 
ATOM     21  C   UNL     1      -1.398   9.740  17.701  0.00  0.00    +0.000 A 
ATOM     22  C   UNL     1      -1.152  10.263  18.982  0.00  0.00    +0.000 A 
ATOM     23  C   UNL     1      -1.999  11.273  19.459  0.00  0.00    +0.000 A 
ATOM     24  C   UNL     1      -3.087  11.715  18.700  0.00  0.00    +0.000 A 
ENDBRANCH  17  22
BRANCH  17  25
ATOM     25  C   UNL     1       0.203  10.430  21.157  0.00  0.00    +0.000 C 
ATOM     26  O   UNL     1       0.674  11.540  21.351  0.00  0.00    +0.000 OA
BRANCH  25  27
ATOM     27  O   UNL     1      -0.196   9.649  22.201  0.00  0.00    +0.000 OA
ATOM     28  H   UNL     1       0.141   9.936  23.069  0.00  0.00    +0.000 HD
ENDBRANCH  25  27
ENDBRANCH  17  25
ENDBRANCH  16  17
ENDBRANCH  12  16
ENDBRANCH   1  13
BRANCH   3  29
ATOM     29  C   UNL     1       5.469   5.424  16.605  0.00  0.00    +0.000 C 
BRANCH  29  30
ATOM     30  C   UNL     1       6.547   6.207  17.328  0.00  0.00    +0.000 A 
ATOM     31  C   UNL     1       7.283   5.643  18.384  0.00  0.00    +0.000 A 
ATOM     32  C   UNL     1       8.259   6.378  19.051  0.00  0.00    +0.000 A 
ATOM     33  C   UNL     1       8.515   7.694  18.676  0.00  0.00    +0.000 A 
ATOM     34  C   UNL     1       7.795   8.270  17.631  0.00  0.00    +0.000 A 
ATOM     35  C   UNL     1       6.813   7.529  16.964  0.00  0.00    +0.000 A 
ENDBRANCH  29  30
ENDBRANCH   3  29
TORSDOF 8
ENDMDL
MODEL 8
REMARK VINA RESULT:      -8.7      1.151      1.541
REMARK  Name = 
REMARK  9 active torsions:
REMARK  status: ('A' for Active; 'I' for Inactive)
REMARK    1  A    between atoms: C_1  and  C_2
REMARK    2  A    between atoms: C_5  and  C_6
REMARK    3  A    between atoms: C_6  and  C_7
REMARK    4  A    between atoms: C_6  and  C_29
REMARK    5  A    between atoms: C_7  and  N_8
REMARK    6  A    between atoms: C_9  and  C_11
REMARK    7  A    between atoms: N_13  and  C_14
REMARK    8  A    between atoms: C_14  and  C_15
REMARK    9  A    between atoms: C_29  and  O_31
REMARK                            x       y       z     vdW  Elec       q    Type
REMARK                         _______ _______ _______ _____ _____    ______ ____
ROOT
ATOM      1  C   UNL     1       2.643   6.395  18.757  0.00  0.00    +0.000 A 
ATOM      2  N   UNL     1       3.644   6.537  17.928  0.00  0.00    +0.000 NA
ATOM      3  N   UNL     1       4.235   5.391  17.392  0.00  0.00    +0.000 N 
ATOM      4  C   UNL     1       3.826   4.092  17.679  0.00  0.00    +0.000 A 
ATOM      5  O   UNL     1       4.331   3.081  17.200  0.00  0.00    +0.000 OA
ATOM      6  C   UNL     1       2.724   3.951  18.643  0.00  0.00    +0.000 A 
ATOM      7  C   UNL     1       2.352   2.672  19.082  0.00  0.00    +0.000 A 
ATOM      8  C   UNL     1       1.391   2.537  20.080  0.00  0.00    +0.000 A 
ATOM      9  C   UNL     1       0.704   3.660  20.530  0.00  0.00    +0.000 A 
ATOM     10  C   UNL     1       1.019   4.922  20.026  0.00  0.00    +0.000 A 
ATOM     11  C   UNL     1       2.091   5.080  19.140  0.00  0.00    +0.000 A 
ENDROOT
BRANCH   1  13
ATOM     12  N   UNL     1       1.747   8.678  18.526  0.00  0.00    +0.000 N 
ATOM     13  C   UNL     1       2.062   7.669  19.402  0.00  0.00    +0.000 C 
ATOM     14  O   UNL     1       1.886   7.740  20.612  0.00  0.00    +0.000 OA
ATOM     15  H   UNL     1       2.238   8.653  17.635  0.00  0.00    +0.000 HD
BRANCH  12  16
ATOM     16  C   UNL     1       1.180   9.938  18.997  0.00  0.00    +0.000 C 
BRANCH  16  17
ATOM     17  C   UNL     1      -0.155   9.782  19.754  0.00  0.00    +0.000 C 
BRANCH  17  22
ATOM     18  C   UNL     1      -4.740  11.834  16.746  0.00  0.00    +0.000 C 
ATOM     19  C   UNL     1      -3.557  11.317  17.516  0.00  0.00    +0.000 A 
ATOM     20  C   UNL     1      -3.233  11.843  18.768  0.00  0.00    +0.000 A 
ATOM     21  C   UNL     1      -2.129  11.355  19.478  0.00  0.00    +0.000 A 
ATOM     22  C   UNL     1      -1.330  10.325  18.952  0.00  0.00    +0.000 A 
ATOM     23  C   UNL     1      -1.684   9.784  17.707  0.00  0.00    +0.000 A 
ATOM     24  C   UNL     1      -2.774  10.286  16.990  0.00  0.00    +0.000 A 
ENDBRANCH  17  22
BRANCH  17  25
ATOM     25  C   UNL     1      -0.021  10.353  21.161  0.00  0.00    +0.000 C 
ATOM     26  O   UNL     1       0.459  11.445  21.426  0.00  0.00    +0.000 OA
BRANCH  25  27
ATOM     27  O   UNL     1      -0.451   9.520  22.150  0.00  0.00    +0.000 OA
ATOM     28  H   UNL     1      -0.740   9.976  22.962  0.00  0.00    +0.000 HD
ENDBRANCH  25  27
ENDBRANCH  17  25
ENDBRANCH  16  17
ENDBRANCH  12  16
ENDBRANCH   1  13
BRANCH   3  29
ATOM     29  C   UNL     1       5.447   5.559  16.589  0.00  0.00    +0.000 C 
BRANCH  29  30
ATOM     30  C   UNL     1       6.510   6.367  17.306  0.00  0.00    +0.000 A 
ATOM     31  C   UNL     1       6.797   7.694  16.941  0.00  0.00    +0.000 A 
ATOM     32  C   UNL     1       7.788   8.420  17.596  0.00  0.00    +0.000 A 
ATOM     33  C   UNL     1       8.513   7.831  18.628  0.00  0.00    +0.000 A 
ATOM     34  C   UNL     1       8.243   6.516  19.004  0.00  0.00    +0.000 A 
ATOM     35  C   UNL     1       7.247   5.788  18.341  0.00  0.00    +0.000 A 
ENDBRANCH  29  30
ENDBRANCH   3  29
TORSDOF 8
ENDMDL
MODEL 9
REMARK VINA RESULT:      -8.7      1.864      2.989
REMARK  Name = 
REMARK  9 active torsions:
REMARK  status: ('A' for Active; 'I' for Inactive)
REMARK    1  A    between atoms: C_1  and  C_2
REMARK    2  A    between atoms: C_5  and  C_6
REMARK    3  A    between atoms: C_6  and  C_7
REMARK    4  A    between atoms: C_6  and  C_29
REMARK    5  A    between atoms: C_7  and  N_8
REMARK    6  A    between atoms: C_9  and  C_11
REMARK    7  A    between atoms: N_13  and  C_14
REMARK    8  A    between atoms: C_14  and  C_15
REMARK    9  A    between atoms: C_29  and  O_31
REMARK                            x       y       z     vdW  Elec       q    Type
REMARK                         _______ _______ _______ _____ _____    ______ ____
ROOT
ATOM      1  C   UNL     1       2.577   6.206  18.945  0.00  0.00    +0.000 A 
ATOM      2  N   UNL     1       3.520   6.430  18.067  0.00  0.00    +0.000 NA
ATOM      3  N   UNL     1       4.132   5.336  17.453  0.00  0.00    +0.000 N 
ATOM      4  C   UNL     1       3.803   4.007  17.709  0.00  0.00    +0.000 A 
ATOM      5  O   UNL     1       4.327   3.042  17.161  0.00  0.00    +0.000 OA
ATOM      6  C   UNL     1       2.768   3.776  18.728  0.00  0.00    +0.000 A 
ATOM      7  C   UNL     1       2.483   2.464  19.134  0.00  0.00    +0.000 A 
ATOM      8  C   UNL     1       1.590   2.243  20.180  0.00  0.00    +0.000 A 
ATOM      9  C   UNL     1       0.878   3.313  20.713  0.00  0.00    +0.000 A 
ATOM     10  C   UNL     1       1.103   4.607  20.244  0.00  0.00    +0.000 A 
ATOM     11  C   UNL     1       2.112   4.852  19.305  0.00  0.00    +0.000 A 
ENDROOT
BRANCH   1  13
ATOM     12  N   UNL     1       1.742   8.523  18.885  0.00  0.00    +0.000 N 
ATOM     13  C   UNL     1       1.975   7.424  19.675  0.00  0.00    +0.000 C 
ATOM     14  O   UNL     1       1.715   7.379  20.871  0.00  0.00    +0.000 OA
ATOM     15  H   UNL     1       2.296   8.575  18.033  0.00  0.00    +0.000 HD
BRANCH  12  16
ATOM     16  C   UNL     1       1.167   9.744  19.440  0.00  0.00    +0.000 C 
BRANCH  16  17
ATOM     17  C   UNL     1       0.610  10.715  18.378  0.00  0.00    +0.000 C 
BRANCH  17  22
ATOM     18  C   UNL     1       2.689  16.159  18.951  0.00  0.00    +0.000 C 
ATOM     19  C   UNL     1       2.155  14.761  18.816  0.00  0.00    +0.000 A 
ATOM     20  C   UNL     1       0.828  14.467  19.131  0.00  0.00    +0.000 A 
ATOM     21  C   UNL     1       0.339  13.161  19.002  0.00  0.00    +0.000 A 
ATOM     22  C   UNL     1       1.169  12.122  18.548  0.00  0.00    +0.000 A 
ATOM     23  C   UNL     1       2.492  12.434  18.204  0.00  0.00    +0.000 A 
ATOM     24  C   UNL     1       2.984  13.734  18.354  0.00  0.00    +0.000 A 
ENDBRANCH  17  22
BRANCH  17  25
ATOM     25  C   UNL     1      -0.911  10.630  18.346  0.00  0.00    +0.000 C 
ATOM     26  O   UNL     1      -1.620  10.458  19.325  0.00  0.00    +0.000 OA
BRANCH  25  27
ATOM     27  O   UNL     1      -1.453  10.720  17.098  0.00  0.00    +0.000 OA
ATOM     28  H   UNL     1      -1.114  11.463  16.566  0.00  0.00    +0.000 HD
ENDBRANCH  25  27
ENDBRANCH  17  25
ENDBRANCH  16  17
ENDBRANCH  12  16
ENDBRANCH   1  13
BRANCH   3  29
ATOM     29  C   UNL     1       5.285   5.594  16.589  0.00  0.00    +0.000 C 
BRANCH  29  30
ATOM     30  C   UNL     1       6.417   6.284  17.326  0.00  0.00    +0.000 A 
ATOM     31  C   UNL     1       7.096   5.656  18.384  0.00  0.00    +0.000 A 
ATOM     32  C   UNL     1       8.122   6.306  19.064  0.00  0.00    +0.000 A 
ATOM     33  C   UNL     1       8.487   7.599  18.699  0.00  0.00    +0.000 A 
ATOM     34  C   UNL     1       7.825   8.237  17.652  0.00  0.00    +0.000 A 
ATOM     35  C   UNL     1       6.792   7.582  16.973  0.00  0.00    +0.000 A 
ENDBRANCH  29  30
ENDBRANCH   3  29
TORSDOF 8
ENDMDL
