MODEL 1
REMARK VINA RESULT:      -9.3      0.000      0.000
REMARK  Name = 
REMARK  5 active torsions:
REMARK  status: ('A' for Active; 'I' for Inactive)
REMARK    1  A    between atoms: C_1  and  C_2
REMARK    2  A    between atoms: C_2  and  C_3
REMARK    3  A    between atoms: N_15  and  C_16
REMARK    4  A    between atoms: C_16  and  C_17
REMARK    5  A    between atoms: C_20  and  C_21
REMARK                            x       y       z     vdW  Elec       q    Type
REMARK                         _______ _______ _______ _____ _____    ______ ____
ROOT
ATOM      1  C   UNL     1       3.075   3.350  18.118  0.00  0.00    +0.000 C 
ATOM      2  C   UNL     1       3.998   4.525  17.846  0.00  0.00    +0.000 C 
ATOM      3  N   UNL     1       4.518   4.491  16.489  0.00  0.00    +0.000 N 
ATOM      4  C   UNL     1       5.850   4.864  16.440  0.00  0.00    +0.000 C 
ATOM      5  O   UNL     1       6.453   5.093  15.408  0.00  0.00    +0.000 OA
ATOM      6  N   UNL     1       6.305   4.944  17.717  0.00  0.00    +0.000 N 
ATOM      7  C   UNL     1       5.361   4.450  18.575  0.00  0.00    +0.000 C 
ATOM      8  O   UNL     1       5.540   4.134  19.744  0.00  0.00    +0.000 OA
ATOM      9  H   UNL     1       3.948   4.531  15.654  0.00  0.00    +0.000 HD
ENDROOT
BRANCH   2  10
ATOM     10  C   UNL     1       3.336   5.869  18.198  0.00  0.00    +0.000 A 
ATOM     11  C   UNL     1       3.283   6.912  17.233  0.00  0.00    +0.000 A 
ATOM     12  C   UNL     1       2.648   8.132  17.502  0.00  0.00    +0.000 A 
ATOM     13  C   UNL     1       2.056   8.304  18.738  0.00  0.00    +0.000 A 
ATOM     14  C   UNL     1       2.109   7.295  19.702  0.00  0.00    +0.000 A 
ATOM     15  C   UNL     1       2.734   6.087  19.449  0.00  0.00    +0.000 A 
ATOM     16  C   UNL     1       1.462   7.733  20.977  0.00  0.00    +0.000 C 
ATOM     17  C   UNL     1       0.601   8.899  20.479  0.00  0.00    +0.000 C 
ATOM     18  C   UNL     1       1.341   9.505  19.275  0.00  0.00    +0.000 C 
ENDBRANCH   2  10
BRANCH   6  19
ATOM     19  C   UNL     1       7.546   5.551  18.143  0.00  0.00    +0.000 C 
BRANCH  19  20
ATOM     20  C   UNL     1       7.615   7.005  17.883  0.00  0.00    +0.000 A 
ATOM     21  N   UNL     1       6.677   7.629  17.151  0.00  0.00    +0.000 NA
ATOM     22  O   UNL     1       7.050   8.970  17.232  0.00  0.00    +0.000 OA
ATOM     23  C   UNL     1       8.179   9.013  18.003  0.00  0.00    +0.000 A 
ATOM     24  N   UNL     1       8.585   7.829  18.397  0.00  0.00    +0.000 NA
BRANCH  23  25
ATOM     25  C   UNL     1       8.724  10.325  18.319  0.00  0.00    +0.000 A 
ATOM     26  C   UNL     1       8.296  11.437  17.583  0.00  0.00    +0.000 A 
ATOM     27  C   UNL     1       8.815  12.712  17.836  0.00  0.00    +0.000 A 
ATOM     28  C   UNL     1       9.779  12.876  18.833  0.00  0.00    +0.000 A 
ATOM     29  C   UNL     1      10.212  11.776  19.559  0.00  0.00    +0.000 A 
ATOM     30 CL   UNL     1      11.414  11.979  20.774  0.00  0.00    +0.000 Cl
ATOM     31  C   UNL     1       9.691  10.503  19.314  0.00  0.00    +0.000 A 
ENDBRANCH  23  25
ENDBRANCH  19  20
ENDBRANCH   6  19
TORSDOF 4
ENDMDL
MODEL 2
REMARK VINA RESULT:      -9.1      1.009      1.712
REMARK  Name = 
REMARK  5 active torsions:
REMARK  status: ('A' for Active; 'I' for Inactive)
REMARK    1  A    between atoms: C_1  and  C_2
REMARK    2  A    between atoms: C_2  and  C_3
REMARK    3  A    between atoms: N_15  and  C_16
REMARK    4  A    between atoms: C_16  and  C_17
REMARK    5  A    between atoms: C_20  and  C_21
REMARK                            x       y       z     vdW  Elec       q    Type
REMARK                         _______ _______ _______ _____ _____    ______ ____
ROOT
ATOM      1  C   UNL     1       2.998   3.314  17.416  0.00  0.00    +0.000 C 
ATOM      2  C   UNL     1       3.895   4.531  17.557  0.00  0.00    +0.000 C 
ATOM      3  N   UNL     1       4.503   4.895  16.288  0.00  0.00    +0.000 N 
ATOM      4  C   UNL     1       5.821   5.287  16.443  0.00  0.00    +0.000 C 
ATOM      5  O   UNL     1       6.481   5.810  15.565  0.00  0.00    +0.000 OA
ATOM      6  N   UNL     1       6.189   5.004  17.720  0.00  0.00    +0.000 N 
ATOM      7  C   UNL     1       5.210   4.270  18.331  0.00  0.00    +0.000 C 
ATOM      8  O   UNL     1       5.323   3.636  19.372  0.00  0.00    +0.000 OA
ATOM      9  H   UNL     1       3.987   5.164  15.460  0.00  0.00    +0.000 HD
ENDROOT
BRANCH   2  10
ATOM     10  C   UNL     1       3.165   5.708  18.228  0.00  0.00    +0.000 A 
ATOM     11  C   UNL     1       2.765   5.616  19.589  0.00  0.00    +0.000 A 
ATOM     12  C   UNL     1       2.138   6.684  20.246  0.00  0.00    +0.000 A 
ATOM     13  C   UNL     1       1.921   7.851  19.540  0.00  0.00    +0.000 A 
ATOM     14  C   UNL     1       2.297   7.955  18.200  0.00  0.00    +0.000 A 
ATOM     15  C   UNL     1       2.914   6.907  17.539  0.00  0.00    +0.000 A 
ATOM     16  C   UNL     1       1.902   9.280  17.629  0.00  0.00    +0.000 C 
ATOM     17  C   UNL     1       1.715  10.101  18.910  0.00  0.00    +0.000 C 
ATOM     18  C   UNL     1       1.261   9.114  19.999  0.00  0.00    +0.000 C 
ENDBRANCH   2  10
BRANCH   6  19
ATOM     19  C   UNL     1       7.378   5.481  18.388  0.00  0.00    +0.000 C 
BRANCH  19  20
ATOM     20  C   UNL     1       7.644   6.920  18.170  0.00  0.00    +0.000 A 
ATOM     21  N   UNL     1       6.878   7.655  17.347  0.00  0.00    +0.000 NA
ATOM     22  O   UNL     1       7.390   8.943  17.501  0.00  0.00    +0.000 OA
ATOM     23  C   UNL     1       8.416   8.848  18.401  0.00  0.00    +0.000 A 
ATOM     24  N   UNL     1       8.634   7.621  18.813  0.00  0.00    +0.000 NA
BRANCH  23  25
ATOM     25  C   UNL     1       9.066  10.085  18.807  0.00  0.00    +0.000 A 
ATOM     26  C   UNL     1       9.209  10.365  20.172  0.00  0.00    +0.000 A 
ATOM     27  C   UNL     1       9.804  11.555  20.605  0.00  0.00    +0.000 A 
ATOM     28  C   UNL     1      10.256  12.480  19.662  0.00  0.00    +0.000 A 
ATOM     29  C   UNL     1      10.109  12.211  18.308  0.00  0.00    +0.000 A 
ATOM     30 CL   UNL     1      10.650  13.363  17.149  0.00  0.00    +0.000 Cl
ATOM     31  C   UNL     1       9.522  11.021  17.872  0.00  0.00    +0.000 A 
ENDBRANCH  23  25
ENDBRANCH  19  20
ENDBRANCH   6  19
TORSDOF 4
ENDMDL
MODEL 3
REMARK VINA RESULT:      -9.1      0.472      1.253
REMARK  Name = 
REMARK  5 active torsions:
REMARK  status: ('A' for Active; 'I' for Inactive)
REMARK    1  A    between atoms: C_1  and  C_2
REMARK    2  A    between atoms: C_2  and  C_3
REMARK    3  A    between atoms: N_15  and  C_16
REMARK    4  A    between atoms: C_16  and  C_17
REMARK    5  A    between atoms: C_20  and  C_21
REMARK                            x       y       z     vdW  Elec       q    Type
REMARK                         _______ _______ _______ _____ _____    ______ ____
ROOT
ATOM      1  C   UNL     1       3.135   3.123  17.847  0.00  0.00    +0.000 C 
ATOM      2  C   UNL     1       3.971   4.389  17.786  0.00  0.00    +0.000 C 
ATOM      3  N   UNL     1       4.475   4.629  16.443  0.00  0.00    +0.000 N 
ATOM      4  C   UNL     1       5.777   5.098  16.459  0.00  0.00    +0.000 C 
ATOM      5  O   UNL     1       6.349   5.545  15.483  0.00  0.00    +0.000 OA
ATOM      6  N   UNL     1       6.242   4.984  17.730  0.00  0.00    +0.000 N 
ATOM      7  C   UNL     1       5.346   4.282  18.489  0.00  0.00    +0.000 C 
ATOM      8  O   UNL     1       5.561   3.780  19.585  0.00  0.00    +0.000 OA
ATOM      9  H   UNL     1       3.893   4.775  15.629  0.00  0.00    +0.000 HD
ENDROOT
BRANCH   2  10
ATOM     10  C   UNL     1       3.223   5.601  18.368  0.00  0.00    +0.000 A 
ATOM     11  C   UNL     1       2.774   5.580  19.717  0.00  0.00    +0.000 A 
ATOM     12  C   UNL     1       2.129   6.682  20.295  0.00  0.00    +0.000 A 
ATOM     13  C   UNL     1       1.943   7.812  19.523  0.00  0.00    +0.000 A 
ATOM     14  C   UNL     1       2.366   7.845  18.193  0.00  0.00    +0.000 A 
ATOM     15  C   UNL     1       3.002   6.763  17.610  0.00  0.00    +0.000 A 
ATOM     16  C   UNL     1       1.998   9.140  17.541  0.00  0.00    +0.000 C 
ATOM     17  C   UNL     1       1.769  10.027  18.770  0.00  0.00    +0.000 C 
ATOM     18  C   UNL     1       1.273   9.099  19.891  0.00  0.00    +0.000 C 
ENDBRANCH   2  10
BRANCH   6  19
ATOM     19  C   UNL     1       7.444   5.592  18.255  0.00  0.00    +0.000 C 
BRANCH  19  20
ATOM     20  C   UNL     1       7.565   7.033  17.943  0.00  0.00    +0.000 A 
ATOM     21  N   UNL     1       6.680   7.651  17.144  0.00  0.00    +0.000 NA
ATOM     22  O   UNL     1       7.085   8.984  17.191  0.00  0.00    +0.000 OA
ATOM     23  C   UNL     1       8.176   9.030  18.014  0.00  0.00    +0.000 A 
ATOM     24  N   UNL     1       8.531   7.852  18.472  0.00  0.00    +0.000 NA
BRANCH  23  25
ATOM     25  C   UNL     1       8.741  10.339  18.305  0.00  0.00    +0.000 A 
ATOM     26  C   UNL     1       8.203  11.469  17.678  0.00  0.00    +0.000 A 
ATOM     27  C   UNL     1       8.734  12.743  17.909  0.00  0.00    +0.000 A 
ATOM     28  C   UNL     1       9.821  12.888  18.773  0.00  0.00    +0.000 A 
ATOM     29  C   UNL     1      10.364  11.770  19.391  0.00  0.00    +0.000 A 
ATOM     30 CL   UNL     1      11.716  11.950  20.440  0.00  0.00    +0.000 Cl
ATOM     31  C   UNL     1       9.832  10.498  19.167  0.00  0.00    +0.000 A 
ENDBRANCH  23  25
ENDBRANCH  19  20
ENDBRANCH   6  19
TORSDOF 4
ENDMDL
MODEL 4
REMARK VINA RESULT:      -9.0      1.026      1.357
REMARK  Name = 
REMARK  5 active torsions:
REMARK  status: ('A' for Active; 'I' for Inactive)
REMARK    1  A    between atoms: C_1  and  C_2
REMARK    2  A    between atoms: C_2  and  C_3
REMARK    3  A    between atoms: N_15  and  C_16
REMARK    4  A    between atoms: C_16  and  C_17
REMARK    5  A    between atoms: C_20  and  C_21
REMARK                            x       y       z     vdW  Elec       q    Type
REMARK                         _______ _______ _______ _____ _____    ______ ____
ROOT
ATOM      1  C   UNL     1       3.470   3.591  17.605  0.00  0.00    +0.000 C 
ATOM      2  C   UNL     1       4.364   4.818  17.601  0.00  0.00    +0.000 C 
ATOM      3  N   UNL     1       5.031   4.987  16.320  0.00  0.00    +0.000 N 
ATOM      4  C   UNL     1       6.342   5.402  16.475  0.00  0.00    +0.000 C 
ATOM      5  O   UNL     1       7.044   5.788  15.559  0.00  0.00    +0.000 OA
ATOM      6  N   UNL     1       6.650   5.318  17.795  0.00  0.00    +0.000 N 
ATOM      7  C   UNL     1       5.641   4.683  18.465  0.00  0.00    +0.000 C 
ATOM      8  O   UNL     1       5.704   4.215  19.595  0.00  0.00    +0.000 OA
ATOM      9  H   UNL     1       4.556   5.125  15.438  0.00  0.00    +0.000 HD
ENDROOT
BRANCH   2  10
ATOM     10  C   UNL     1       3.608   6.081  18.050  0.00  0.00    +0.000 A 
ATOM     11  C   UNL     1       3.503   7.198  17.178  0.00  0.00    +0.000 A 
ATOM     12  C   UNL     1       2.784   8.347  17.535  0.00  0.00    +0.000 A 
ATOM     13  C   UNL     1       2.159   8.372  18.767  0.00  0.00    +0.000 A 
ATOM     14  C   UNL     1       2.262   7.289  19.641  0.00  0.00    +0.000 A 
ATOM     15  C   UNL     1       2.971   6.150  19.301  0.00  0.00    +0.000 A 
ATOM     16  C   UNL     1       1.564   7.571  20.934  0.00  0.00    +0.000 C 
ATOM     17  C   UNL     1       0.637   8.718  20.517  0.00  0.00    +0.000 C 
ATOM     18  C   UNL     1       1.357   9.473  19.387  0.00  0.00    +0.000 C 
ENDBRANCH   2  10
BRANCH   6  19
ATOM     19  C   UNL     1       7.808   5.897  18.438  0.00  0.00    +0.000 C 
BRANCH  19  20
ATOM     20  C   UNL     1       7.950   7.351  18.208  0.00  0.00    +0.000 A 
ATOM     21  N   UNL     1       7.121   8.012  17.383  0.00  0.00    +0.000 NA
ATOM     22  O   UNL     1       7.522   9.339  17.525  0.00  0.00    +0.000 OA
ATOM     23  C   UNL     1       8.556   9.339  18.421  0.00  0.00    +0.000 A 
ATOM     24  N   UNL     1       8.879   8.139  18.842  0.00  0.00    +0.000 NA
BRANCH  23  25
ATOM     25  C   UNL     1       9.100  10.630  18.815  0.00  0.00    +0.000 A 
ATOM     26  C   UNL     1      10.004  10.693  19.883  0.00  0.00    +0.000 A 
ATOM     27  C   UNL     1      10.530  11.917  20.311  0.00  0.00    +0.000 A 
ATOM     28  C   UNL     1      10.142  13.094  19.669  0.00  0.00    +0.000 A 
ATOM     29  C   UNL     1       9.239  13.038  18.616  0.00  0.00    +0.000 A 
ATOM     30 CL   UNL     1       8.749  14.494  17.840  0.00  0.00    +0.000 Cl
ATOM     31  C   UNL     1       8.718  11.818  18.182  0.00  0.00    +0.000 A 
ENDBRANCH  23  25
ENDBRANCH  19  20
ENDBRANCH   6  19
TORSDOF 4
ENDMDL
MODEL 5
REMARK VINA RESULT:      -8.7      3.990      6.522
REMARK  Name = 
REMARK  5 active torsions:
REMARK  status: ('A' for Active; 'I' for Inactive)
REMARK    1  A    between atoms: C_1  and  C_2
REMARK    2  A    between atoms: C_2  and  C_3
REMARK    3  A    between atoms: N_15  and  C_16
REMARK    4  A    between atoms: C_16  and  C_17
REMARK    5  A    between atoms: C_20  and  C_21
REMARK                            x       y       z     vdW  Elec       q    Type
REMARK                         _______ _______ _______ _____ _____    ______ ____
ROOT
ATOM      1  C   UNL     1       3.823   1.798  17.091  0.00  0.00    +0.000 C 
ATOM      2  C   UNL     1       3.798   2.795  18.236  0.00  0.00    +0.000 C 
ATOM      3  N   UNL     1       4.128   2.160  19.502  0.00  0.00    +0.000 N 
ATOM      4  C   UNL     1       3.344   2.639  20.537  0.00  0.00    +0.000 C 
ATOM      5  O   UNL     1       3.553   2.402  21.712  0.00  0.00    +0.000 OA
ATOM      6  N   UNL     1       2.365   3.407  19.992  0.00  0.00    +0.000 N 
ATOM      7  C   UNL     1       2.383   3.282  18.630  0.00  0.00    +0.000 C 
ATOM      8  O   UNL     1       1.494   3.621  17.860  0.00  0.00    +0.000 OA
ATOM      9  H   UNL     1       5.007   1.699  19.702  0.00  0.00    +0.000 HD
ENDROOT
BRANCH   2  10
ATOM     10  C   UNL     1       4.670   4.029  17.942  0.00  0.00    +0.000 A 
ATOM     11  C   UNL     1       4.241   4.995  16.992  0.00  0.00    +0.000 A 
ATOM     12  C   UNL     1       4.986   6.153  16.731  0.00  0.00    +0.000 A 
ATOM     13  C   UNL     1       6.159   6.349  17.433  0.00  0.00    +0.000 A 
ATOM     14  C   UNL     1       6.602   5.405  18.361  0.00  0.00    +0.000 A 
ATOM     15  C   UNL     1       5.876   4.257  18.626  0.00  0.00    +0.000 A 
ATOM     16  C   UNL     1       7.923   5.798  18.943  0.00  0.00    +0.000 C 
ATOM     17  C   UNL     1       7.944   7.297  18.623  0.00  0.00    +0.000 C 
ATOM     18  C   UNL     1       7.136   7.479  17.328  0.00  0.00    +0.000 C 
ENDBRANCH   2  10
BRANCH   6  19
ATOM     19  C   UNL     1       1.493   4.310  20.710  0.00  0.00    +0.000 C 
BRANCH  19  20
ATOM     20  C   UNL     1       1.747   5.737  20.418  0.00  0.00    +0.000 A 
ATOM     21  N   UNL     1       2.775   6.120  19.643  0.00  0.00    +0.000 NA
ATOM     22  O   UNL     1       2.601   7.499  19.539  0.00  0.00    +0.000 OA
ATOM     23  C   UNL     1       1.484   7.805  20.268  0.00  0.00    +0.000 A 
ATOM     24  N   UNL     1       0.945   6.762  20.855  0.00  0.00    +0.000 NA
BRANCH  23  25
ATOM     25  C   UNL     1       1.029   9.187  20.246  0.00  0.00    +0.000 A 
ATOM     26  C   UNL     1       1.262   9.965  19.106  0.00  0.00    +0.000 A 
ATOM     27  C   UNL     1       0.864  11.306  19.054  0.00  0.00    +0.000 A 
ATOM     28  C   UNL     1       0.231  11.878  20.159  0.00  0.00    +0.000 A 
ATOM     29  C   UNL     1       0.006  11.113  21.296  0.00  0.00    +0.000 A 
ATOM     30 CL   UNL     1      -0.757  11.827  22.663  0.00  0.00    +0.000 Cl
ATOM     31  C   UNL     1       0.395   9.773  21.348  0.00  0.00    +0.000 A 
ENDBRANCH  23  25
ENDBRANCH  19  20
ENDBRANCH   6  19
TORSDOF 4
ENDMDL
MODEL 6
REMARK VINA RESULT:      -8.6      7.091     10.292
REMARK  Name = 
REMARK  5 active torsions:
REMARK  status: ('A' for Active; 'I' for Inactive)
REMARK    1  A    between atoms: C_1  and  C_2
REMARK    2  A    between atoms: C_2  and  C_3
REMARK    3  A    between atoms: N_15  and  C_16
REMARK    4  A    between atoms: C_16  and  C_17
REMARK    5  A    between atoms: C_20  and  C_21
REMARK                            x       y       z     vdW  Elec       q    Type
REMARK                         _______ _______ _______ _____ _____    ______ ____
ROOT
ATOM      1  C   UNL     1      -5.493  14.514  20.669  0.00  0.00    +0.000 C 
ATOM      2  C   UNL     1      -4.476  13.455  21.056  0.00  0.00    +0.000 C 
ATOM      3  N   UNL     1      -4.817  12.827  22.322  0.00  0.00    +0.000 N 
ATOM      4  C   UNL     1      -3.696  12.600  23.101  0.00  0.00    +0.000 C 
ATOM      5  O   UNL     1      -3.698  11.924  24.113  0.00  0.00    +0.000 OA
ATOM      6  N   UNL     1      -2.648  13.234  22.514  0.00  0.00    +0.000 N 
ATOM      7  C   UNL     1      -3.099  14.016  21.486  0.00  0.00    +0.000 C 
ATOM      8  O   UNL     1      -2.473  14.906  20.925  0.00  0.00    +0.000 OA
ATOM      9  H   UNL     1      -5.669  12.310  22.496  0.00  0.00    +0.000 HD
ENDROOT
BRANCH   2  10
ATOM     10  C   UNL     1      -4.250  12.435  19.925  0.00  0.00    +0.000 A 
ATOM     11  C   UNL     1      -5.360  11.804  19.302  0.00  0.00    +0.000 A 
ATOM     12  C   UNL     1      -5.196  10.905  18.240  0.00  0.00    +0.000 A 
ATOM     13  C   UNL     1      -3.914  10.646  17.793  0.00  0.00    +0.000 A 
ATOM     14  C   UNL     1      -2.811  11.248  18.401  0.00  0.00    +0.000 A 
ATOM     15  C   UNL     1      -2.961  12.135  19.453  0.00  0.00    +0.000 A 
ATOM     16  C   UNL     1      -1.531  10.766  17.796  0.00  0.00    +0.000 C 
ATOM     17  C   UNL     1      -2.035  10.213  16.458  0.00  0.00    +0.000 C 
ATOM     18  C   UNL     1      -3.472   9.722  16.702  0.00  0.00    +0.000 C 
ENDBRANCH   2  10
BRANCH   6  19
ATOM     19  C   UNL     1      -1.251  13.047  22.834  0.00  0.00    +0.000 C 
BRANCH  19  20
ATOM     20  C   UNL     1      -0.718  11.732  22.419  0.00  0.00    +0.000 A 
ATOM     21  N   UNL     1      -1.131  10.595  23.003  0.00  0.00    +0.000 NA
ATOM     22  O   UNL     1      -0.478   9.605  22.269  0.00  0.00    +0.000 OA
ATOM     23  C   UNL     1       0.265  10.251  21.320  0.00  0.00    +0.000 A 
ATOM     24  N   UNL     1       0.179  11.559  21.394  0.00  0.00    +0.000 NA
BRANCH  23  25
ATOM     25  C   UNL     1       0.980   9.429  20.355  0.00  0.00    +0.000 A 
ATOM     26  C   UNL     1       1.192   9.923  19.062  0.00  0.00    +0.000 A 
ATOM     27  C   UNL     1       1.851   9.154  18.096  0.00  0.00    +0.000 A 
ATOM     28  C   UNL     1       2.298   7.873  18.425  0.00  0.00    +0.000 A 
ATOM     29  C   UNL     1       2.082   7.375  19.703  0.00  0.00    +0.000 A 
ATOM     30 CL   UNL     1       2.616   5.788  20.098  0.00  0.00    +0.000 Cl
ATOM     31  C   UNL     1       1.431   8.143  20.671  0.00  0.00    +0.000 A 
ENDBRANCH  23  25
ENDBRANCH  19  20
ENDBRANCH   6  19
TORSDOF 4
ENDMDL
MODEL 7
REMARK VINA RESULT:      -8.6      5.831      8.966
REMARK  Name = 
REMARK  5 active torsions:
REMARK  status: ('A' for Active; 'I' for Inactive)
REMARK    1  A    between atoms: C_1  and  C_2
REMARK    2  A    between atoms: C_2  and  C_3
REMARK    3  A    between atoms: N_15  and  C_16
REMARK    4  A    between atoms: C_16  and  C_17
REMARK    5  A    between atoms: C_20  and  C_21
REMARK                            x       y       z     vdW  Elec       q    Type
REMARK                         _______ _______ _______ _____ _____    ______ ____
ROOT
ATOM      1  C   UNL     1      -0.781  14.379  20.501  0.00  0.00    +0.000 C 
ATOM      2  C   UNL     1      -1.178  12.965  20.886  0.00  0.00    +0.000 C 
ATOM      3  N   UNL     1      -2.279  12.961  21.836  0.00  0.00    +0.000 N 
ATOM      4  C   UNL     1      -2.114  11.990  22.809  0.00  0.00    +0.000 C 
ATOM      5  O   UNL     1      -2.981  11.668  23.599  0.00  0.00    +0.000 OA
ATOM      6  N   UNL     1      -0.860  11.485  22.681  0.00  0.00    +0.000 N 
ATOM      7  C   UNL     1      -0.150  12.232  21.781  0.00  0.00    +0.000 C 
ATOM      8  O   UNL     1       1.064  12.218  21.626  0.00  0.00    +0.000 OA
ATOM      9  H   UNL     1      -3.196  13.348  21.655  0.00  0.00    +0.000 HD
ENDROOT
BRANCH   2  10
ATOM     10  C   UNL     1      -1.454  12.089  19.650  0.00  0.00    +0.000 A 
ATOM     11  C   UNL     1      -0.536  11.069  19.281  0.00  0.00    +0.000 A 
ATOM     12  C   UNL     1      -0.776  10.223  18.189  0.00  0.00    +0.000 A 
ATOM     13  C   UNL     1      -1.944  10.394  17.472  0.00  0.00    +0.000 A 
ATOM     14  C   UNL     1      -2.850  11.399  17.813  0.00  0.00    +0.000 A 
ATOM     15  C   UNL     1      -2.624  12.242  18.887  0.00  0.00    +0.000 A 
ATOM     16  C   UNL     1      -4.001  11.436  16.858  0.00  0.00    +0.000 C 
ATOM     17  C   UNL     1      -3.908  10.036  16.241  0.00  0.00    +0.000 C 
ATOM     18  C   UNL     1      -2.421   9.645  16.267  0.00  0.00    +0.000 C 
ENDBRANCH   2  10
BRANCH   6  19
ATOM     19  C   UNL     1      -0.359  10.282  23.306  0.00  0.00    +0.000 C 
BRANCH  19  20
ATOM     20  C   UNL     1      -0.008   9.215  22.343  0.00  0.00    +0.000 A 
ATOM     21  N   UNL     1      -0.924   8.329  21.918  0.00  0.00    +0.000 NA
ATOM     22  O   UNL     1      -0.227   7.581  20.970  0.00  0.00    +0.000 OA
ATOM     23  C   UNL     1       1.040   8.094  20.925  0.00  0.00    +0.000 A 
ATOM     24  N   UNL     1       1.234   9.075  21.776  0.00  0.00    +0.000 NA
BRANCH  23  25
ATOM     25  C   UNL     1       1.952   7.539  19.936  0.00  0.00    +0.000 A 
ATOM     26  C   UNL     1       2.189   8.249  18.752  0.00  0.00    +0.000 A 
ATOM     27  C   UNL     1       3.038   7.739  17.764  0.00  0.00    +0.000 A 
ATOM     28  C   UNL     1       3.652   6.500  17.958  0.00  0.00    +0.000 A 
ATOM     29  C   UNL     1       3.414   5.789  19.125  0.00  0.00    +0.000 A 
ATOM     30 CL   UNL     1       4.157   4.253  19.352  0.00  0.00    +0.000 Cl
ATOM     31  C   UNL     1       2.573   6.298  20.117  0.00  0.00    +0.000 A 
ENDBRANCH  23  25
ENDBRANCH  19  20
ENDBRANCH   6  19
TORSDOF 4
ENDMDL
MODEL 8
REMARK VINA RESULT:      -8.6      4.098      6.697
REMARK  Name = 
REMARK  5 active torsions:
REMARK  status: ('A' for Active; 'I' for Inactive)
REMARK    1  A    between atoms: C_1  and  C_2
REMARK    2  A    between atoms: C_2  and  C_3
REMARK    3  A    between atoms: N_15  and  C_16
REMARK    4  A    between atoms: C_16  and  C_17
REMARK    5  A    between atoms: C_20  and  C_21
REMARK                            x       y       z     vdW  Elec       q    Type
REMARK                         _______ _______ _______ _____ _____    ______ ____
ROOT
ATOM      1  C   UNL     1       3.363   2.161  16.957  0.00  0.00    +0.000 C 
ATOM      2  C   UNL     1       3.565   3.043  18.177  0.00  0.00    +0.000 C 
ATOM      3  N   UNL     1       3.939   2.261  19.343  0.00  0.00    +0.000 N 
ATOM      4  C   UNL     1       3.319   2.723  20.491  0.00  0.00    +0.000 C 
ATOM      5  O   UNL     1       3.611   2.357  21.615  0.00  0.00    +0.000 OA
ATOM      6  N   UNL     1       2.389   3.641  20.119  0.00  0.00    +0.000 N 
ATOM      7  C   UNL     1       2.262   3.643  18.757  0.00  0.00    +0.000 C 
ATOM      8  O   UNL     1       1.348   4.146  18.116  0.00  0.00    +0.000 OA
ATOM      9  H   UNL     1       4.772   1.691  19.411  0.00  0.00    +0.000 HD
ENDROOT
BRANCH   2  10
ATOM     10  C   UNL     1       4.543   4.198  17.894  0.00  0.00    +0.000 A 
ATOM     11  C   UNL     1       4.219   5.186  16.924  0.00  0.00    +0.000 A 
ATOM     12  C   UNL     1       5.064   6.275  16.672  0.00  0.00    +0.000 A 
ATOM     13  C   UNL     1       6.233   6.381  17.401  0.00  0.00    +0.000 A 
ATOM     14  C   UNL     1       6.572   5.414  18.349  0.00  0.00    +0.000 A 
ATOM     15  C   UNL     1       5.748   4.332  18.605  0.00  0.00    +0.000 A 
ATOM     16  C   UNL     1       7.907   5.702  18.960  0.00  0.00    +0.000 C 
ATOM     17  C   UNL     1       8.061   7.190  18.627  0.00  0.00    +0.000 C 
ATOM     18  C   UNL     1       7.302   7.424  17.311  0.00  0.00    +0.000 C 
ENDBRANCH   2  10
BRANCH   6  19
ATOM     19  C   UNL     1       1.703   4.562  20.996  0.00  0.00    +0.000 C 
BRANCH  19  20
ATOM     20  C   UNL     1       1.826   5.977  20.585  0.00  0.00    +0.000 A 
ATOM     21  N   UNL     1       2.771   6.372  19.716  0.00  0.00    +0.000 NA
ATOM     22  O   UNL     1       2.484   7.723  19.525  0.00  0.00    +0.000 OA
ATOM     23  C   UNL     1       1.395   8.002  20.305  0.00  0.00    +0.000 A 
ATOM     24  N   UNL     1       0.977   6.972  21.002  0.00  0.00    +0.000 NA
BRANCH  23  25
ATOM     25  C   UNL     1       0.834   9.342  20.216  0.00  0.00    +0.000 A 
ATOM     26  C   UNL     1       1.028  10.236  21.276  0.00  0.00    +0.000 A 
ATOM     27  C   UNL     1       0.483  11.524  21.242  0.00  0.00    +0.000 A 
ATOM     28  C   UNL     1      -0.271  11.922  20.137  0.00  0.00    +0.000 A 
ATOM     29  C   UNL     1      -0.474  11.037  19.087  0.00  0.00    +0.000 A 
ATOM     30 CL   UNL     1      -1.420  11.525  17.735  0.00  0.00    +0.000 Cl
ATOM     31  C   UNL     1       0.075   9.753  19.114  0.00  0.00    +0.000 A 
ENDBRANCH  23  25
ENDBRANCH  19  20
ENDBRANCH   6  19
TORSDOF 4
ENDMDL
MODEL 9
REMARK VINA RESULT:      -8.6      4.487      7.315
REMARK  Name = 
REMARK  5 active torsions:
REMARK  status: ('A' for Active; 'I' for Inactive)
REMARK    1  A    between atoms: C_1  and  C_2
REMARK    2  A    between atoms: C_2  and  C_3
REMARK    3  A    between atoms: N_15  and  C_16
REMARK    4  A    between atoms: C_16  and  C_17
REMARK    5  A    between atoms: C_20  and  C_21
REMARK                            x       y       z     vdW  Elec       q    Type
REMARK                         _______ _______ _______ _____ _____    ______ ____
ROOT
ATOM      1  C   UNL     1       1.860  11.834  18.627  0.00  0.00    +0.000 C 
ATOM      2  C   UNL     1       0.995  10.864  19.412  0.00  0.00    +0.000 C 
ATOM      3  N   UNL     1       1.320  10.885  20.828  0.00  0.00    +0.000 N 
ATOM      4  C   UNL     1       1.300   9.616  21.379  0.00  0.00    +0.000 C 
ATOM      5  O   UNL     1       1.355   9.393  22.575  0.00  0.00    +0.000 OA
ATOM      6  N   UNL     1       1.184   8.724  20.361  0.00  0.00    +0.000 N 
ATOM      7  C   UNL     1       1.320   9.371  19.163  0.00  0.00    +0.000 C 
ATOM      8  O   UNL     1       1.527   8.847  18.077  0.00  0.00    +0.000 OA
ATOM      9  H   UNL     1       1.240  11.698  21.425  0.00  0.00    +0.000 HD
ENDROOT
BRANCH   2  10
ATOM     10  C   UNL     1      -0.505  11.083  19.141  0.00  0.00    +0.000 A 
ATOM     11  C   UNL     1      -1.255  11.971  19.960  0.00  0.00    +0.000 A 
ATOM     12  C   UNL     1      -2.610  12.230  19.715  0.00  0.00    +0.000 A 
ATOM     13  C   UNL     1      -3.213  11.606  18.640  0.00  0.00    +0.000 A 
ATOM     14  C   UNL     1      -2.495  10.722  17.833  0.00  0.00    +0.000 A 
ATOM     15  C   UNL     1      -1.157  10.456  18.066  0.00  0.00    +0.000 A 
ATOM     16  C   UNL     1      -3.370  10.120  16.780  0.00  0.00    +0.000 C 
ATOM     17  C   UNL     1      -4.528  11.124  16.759  0.00  0.00    +0.000 C 
ATOM     18  C   UNL     1      -4.636  11.696  18.182  0.00  0.00    +0.000 C 
ENDBRANCH   2  10
BRANCH   6  19
ATOM     19  C   UNL     1       0.859   7.322  20.490  0.00  0.00    +0.000 C 
BRANCH  19  20
ATOM     20  C   UNL     1       2.011   6.423  20.259  0.00  0.00    +0.000 A 
ATOM     21  N   UNL     1       2.063   5.199  20.812  0.00  0.00    +0.000 NA
ATOM     22  O   UNL     1       3.230   4.657  20.275  0.00  0.00    +0.000 OA
ATOM     23  C   UNL     1       3.762   5.614  19.455  0.00  0.00    +0.000 A 
ATOM     24  N   UNL     1       3.068   6.729  19.440  0.00  0.00    +0.000 NA
BRANCH  23  25
ATOM     25  C   UNL     1       4.951   5.258  18.695  0.00  0.00    +0.000 A 
ATOM     26  C   UNL     1       6.213   5.469  19.263  0.00  0.00    +0.000 A 
ATOM     27  C   UNL     1       7.381   5.166  18.556  0.00  0.00    +0.000 A 
ATOM     28  C   UNL     1       7.288   4.652  17.261  0.00  0.00    +0.000 A 
ATOM     29  C   UNL     1       6.039   4.450  16.690  0.00  0.00    +0.000 A 
ATOM     30 CL   UNL     1       5.927   3.835  15.086  0.00  0.00    +0.000 Cl
ATOM     31  C   UNL     1       4.870   4.745  17.396  0.00  0.00    +0.000 A 
ENDBRANCH  23  25
ENDBRANCH  19  20
ENDBRANCH   6  19
TORSDOF 4
ENDMDL
