MODEL 1
REMARK VINA RESULT:      -8.5      0.000      0.000
REMARK  Name = 
REMARK  8 active torsions:
REMARK  status: ('A' for Active; 'I' for Inactive)
REMARK    1  A    between atoms: C_1  and  C_2
REMARK    2  A    between atoms: C_2  and  N_3
REMARK    3  A    between atoms: C_2  and  C_21
REMARK    4  A    between atoms: N_3  and  C_4
REMARK    5  A    between atoms: C_4  and  C_5
REMARK    6  A    between atoms: C_8  and  O_9
REMARK    7  A    between atoms: O_9  and  C_10
REMARK    8  A    between atoms: C_10  and  C_11
REMARK                            x       y       z     vdW  Elec       q    Type
REMARK                         _______ _______ _______ _____ _____    ______ ____
ROOT
ATOM      1  C   UNL     1       7.491   7.669  17.851  0.00  0.00    +0.000 A 
ATOM      2  C   UNL     1       8.109   6.841  18.805  0.00  0.00    +0.000 A 
ATOM      3  C   UNL     1       7.528   5.615  19.168  0.00  0.00    +0.000 A 
ATOM      4  C   UNL     1       6.317   5.198  18.592  0.00  0.00    +0.000 A 
ATOM      5  C   UNL     1       5.699   6.034  17.642  0.00  0.00    +0.000 A 
ATOM      6  C   UNL     1       6.279   7.250  17.281  0.00  0.00    +0.000 A 
ENDROOT
BRANCH   1   7
ATOM      7  C   UNL     1       8.097   8.999  17.454  0.00  0.00    +0.000 C 
BRANCH   7   8
ATOM      8  N   UNL     1       8.778   9.632  18.599  0.00  0.00    +0.000 NA
ATOM      9  H   UNL     1       8.118   9.600  19.412  0.00  0.00    +0.000 HD
BRANCH   8  11
ATOM     10  C   UNL     1      10.539  11.213  17.740  0.00  0.00    +0.000 C 
ATOM     11  C   UNL     1       9.145  11.051  18.376  0.00  0.00    +0.000 C 
BRANCH  11  12
ATOM     12  C   UNL     1       9.173  11.773  19.715  0.00  0.00    +0.000 A 
ATOM     13  N   UNL     1       9.373  11.111  20.871  0.00  0.00    +0.000 NA
ATOM     14  N   UNL     1       9.363  12.003  21.848  0.00  0.00    +0.000 NA
ATOM     15  C   UNL     1       9.176  13.214  21.293  0.00  0.00    +0.000 A 
ATOM     16  N   UNL     1       9.045  13.112  19.942  0.00  0.00    +0.000 N 
ATOM     17  C   UNL     1       8.743  14.171  18.964  0.00  0.00    +0.000 C 
ATOM     18  C   UNL     1       7.582  15.018  19.484  0.00  0.00    +0.000 C 
ATOM     19  C   UNL     1       8.032  16.117  20.461  0.00  0.00    +0.000 C 
ATOM     20  C   UNL     1       9.218  15.770  21.373  0.00  0.00    +0.000 C 
ATOM     21  C   UNL     1       9.105  14.461  22.145  0.00  0.00    +0.000 C 
ENDBRANCH  11  12
ENDBRANCH   8  11
ENDBRANCH   7   8
ENDBRANCH   1   7
BRANCH   4  22
ATOM     22  O   UNL     1       5.780   4.002  18.970  0.00  0.00    +0.000 OA
BRANCH  22  23
ATOM     23  C   UNL     1       4.650   3.424  18.411  0.00  0.00    +0.000 C 
BRANCH  23  24
ATOM     24  C   UNL     1       3.500   3.408  19.395  0.00  0.00    +0.000 A 
ATOM     25  C   UNL     1       3.608   2.646  20.577  0.00  0.00    +0.000 A 
ATOM     26  F   UNL     1       4.726   1.916  20.825  0.00  0.00    +0.000 F 
ATOM     27  C   UNL     1       2.567   2.628  21.509  0.00  0.00    +0.000 A 
ATOM     28  C   UNL     1       1.409   3.374  21.285  0.00  0.00    +0.000 A 
ATOM     29  C   UNL     1       1.286   4.137  20.125  0.00  0.00    +0.000 A 
ATOM     30  C   UNL     1       2.316   4.160  19.176  0.00  0.00    +0.000 A 
ATOM     31 CL   UNL     1       2.074   5.167  17.750  0.00  0.00    +0.000 Cl
ENDBRANCH  23  24
ENDBRANCH  22  23
ENDBRANCH   4  22
TORSDOF 7
ENDMDL
MODEL 2
REMARK VINA RESULT:      -8.3      1.380      1.638
REMARK  Name = 
REMARK  8 active torsions:
REMARK  status: ('A' for Active; 'I' for Inactive)
REMARK    1  A    between atoms: C_1  and  C_2
REMARK    2  A    between atoms: C_2  and  N_3
REMARK    3  A    between atoms: C_2  and  C_21
REMARK    4  A    between atoms: N_3  and  C_4
REMARK    5  A    between atoms: C_4  and  C_5
REMARK    6  A    between atoms: C_8  and  O_9
REMARK    7  A    between atoms: O_9  and  C_10
REMARK    8  A    between atoms: C_10  and  C_11
REMARK                            x       y       z     vdW  Elec       q    Type
REMARK                         _______ _______ _______ _____ _____    ______ ____
ROOT
ATOM      1  C   UNL     1       7.529   7.775  17.854  0.00  0.00    +0.000 A 
ATOM      2  C   UNL     1       8.153   6.913  18.774  0.00  0.00    +0.000 A 
ATOM      3  C   UNL     1       7.562   5.684  19.111  0.00  0.00    +0.000 A 
ATOM      4  C   UNL     1       6.337   5.298  18.543  0.00  0.00    +0.000 A 
ATOM      5  C   UNL     1       5.714   6.168  17.627  0.00  0.00    +0.000 A 
ATOM      6  C   UNL     1       6.304   7.387  17.292  0.00  0.00    +0.000 A 
ENDROOT
BRANCH   1   7
ATOM      7  C   UNL     1       8.146   9.108  17.485  0.00  0.00    +0.000 C 
BRANCH   7   8
ATOM      8  N   UNL     1       8.815   9.721  18.648  0.00  0.00    +0.000 NA
ATOM      9  H   UNL     1       8.136   9.702  19.446  0.00  0.00    +0.000 HD
BRANCH   8  11
ATOM     10  C   UNL     1      10.614  11.261  17.796  0.00  0.00    +0.000 C 
ATOM     11  C   UNL     1       9.220  11.132  18.439  0.00  0.00    +0.000 C 
BRANCH  11  12
ATOM     12  C   UNL     1       9.279  11.836  19.787  0.00  0.00    +0.000 A 
ATOM     13  N   UNL     1       9.285  11.148  20.945  0.00  0.00    +0.000 NA
ATOM     14  N   UNL     1       9.358  12.026  21.931  0.00  0.00    +0.000 NA
ATOM     15  C   UNL     1       9.416  13.253  21.380  0.00  0.00    +0.000 A 
ATOM     16  N   UNL     1       9.363  13.176  20.022  0.00  0.00    +0.000 N 
ATOM     17  C   UNL     1       9.311  14.273  19.041  0.00  0.00    +0.000 C 
ATOM     18  C   UNL     1       8.275  15.303  19.493  0.00  0.00    +0.000 C 
ATOM     19  C   UNL     1       8.837  16.309  20.512  0.00  0.00    +0.000 C 
ATOM     20  C   UNL     1       9.882  15.765  21.496  0.00  0.00    +0.000 C 
ATOM     21  C   UNL     1       9.499  14.492  22.242  0.00  0.00    +0.000 C 
ENDBRANCH  11  12
ENDBRANCH   8  11
ENDBRANCH   7   8
ENDBRANCH   1   7
BRANCH   4  22
ATOM     22  O   UNL     1       5.791   4.098  18.895  0.00  0.00    +0.000 OA
BRANCH  22  23
ATOM     23  C   UNL     1       4.659   3.539  18.322  0.00  0.00    +0.000 C 
BRANCH  23  24
ATOM     24  C   UNL     1       3.506   3.511  19.303  0.00  0.00    +0.000 A 
ATOM     25  C   UNL     1       2.372   4.314  19.063  0.00  0.00    +0.000 A 
ATOM     26  F   UNL     1       2.317   5.122  17.974  0.00  0.00    +0.000 F 
ATOM     27  C   UNL     1       1.286   4.293  19.945  0.00  0.00    +0.000 A 
ATOM     28  C   UNL     1       1.310   3.466  21.069  0.00  0.00    +0.000 A 
ATOM     29  C   UNL     1       2.420   2.661  21.319  0.00  0.00    +0.000 A 
ATOM     30  C   UNL     1       3.520   2.677  20.451  0.00  0.00    +0.000 A 
ATOM     31 CL   UNL     1       4.869   1.612  20.843  0.00  0.00    +0.000 Cl
ENDBRANCH  23  24
ENDBRANCH  22  23
ENDBRANCH   4  22
TORSDOF 7
ENDMDL
MODEL 3
REMARK VINA RESULT:      -8.1      7.131      9.414
REMARK  Name = 
REMARK  8 active torsions:
REMARK  status: ('A' for Active; 'I' for Inactive)
REMARK    1  A    between atoms: C_1  and  C_2
REMARK    2  A    between atoms: C_2  and  N_3
REMARK    3  A    between atoms: C_2  and  C_21
REMARK    4  A    between atoms: N_3  and  C_4
REMARK    5  A    between atoms: C_4  and  C_5
REMARK    6  A    between atoms: C_8  and  O_9
REMARK    7  A    between atoms: O_9  and  C_10
REMARK    8  A    between atoms: C_10  and  C_11
REMARK                            x       y       z     vdW  Elec       q    Type
REMARK                         _______ _______ _______ _____ _____    ______ ____
ROOT
ATOM      1  C   UNL     1       1.005   9.372  19.951  0.00  0.00    +0.000 A 
ATOM      2  C   UNL     1       1.350   9.574  18.603  0.00  0.00    +0.000 A 
ATOM      3  C   UNL     1       2.096   8.608  17.907  0.00  0.00    +0.000 A 
ATOM      4  C   UNL     1       2.515   7.430  18.544  0.00  0.00    +0.000 A 
ATOM      5  C   UNL     1       2.172   7.236  19.896  0.00  0.00    +0.000 A 
ATOM      6  C   UNL     1       1.429   8.195  20.585  0.00  0.00    +0.000 A 
ENDROOT
BRANCH   1   7
ATOM      7  C   UNL     1       0.210  10.405  20.722  0.00  0.00    +0.000 C 
BRANCH   7   8
ATOM      8  N   UNL     1      -0.067  11.589  19.887  0.00  0.00    +0.000 NA
ATOM      9  H   UNL     1       0.828  12.126  19.798  0.00  0.00    +0.000 HD
BRANCH   8  11
ATOM     10  C   UNL     1      -1.291  12.302  21.967  0.00  0.00    +0.000 C 
ATOM     11  C   UNL     1      -1.084  12.506  20.454  0.00  0.00    +0.000 C 
BRANCH  11  12
ATOM     12  C   UNL     1      -2.422  12.245  19.778  0.00  0.00    +0.000 A 
ATOM     13  N   UNL     1      -3.589  12.530  20.386  0.00  0.00    +0.000 NA
ATOM     14  N   UNL     1      -4.563  12.212  19.549  0.00  0.00    +0.000 NA
ATOM     15  C   UNL     1      -3.996  11.750  18.420  0.00  0.00    +0.000 A 
ATOM     16  N   UNL     1      -2.638  11.749  18.526  0.00  0.00    +0.000 N 
ATOM     17  C   UNL     1      -1.642  11.247  17.566  0.00  0.00    +0.000 C 
ATOM     18  C   UNL     1      -2.073   9.867  17.068  0.00  0.00    +0.000 C 
ATOM     19  C   UNL     1      -3.081   9.937  15.909  0.00  0.00    +0.000 C 
ATOM     20  C   UNL     1      -4.079  11.103  15.947  0.00  0.00    +0.000 C 
ATOM     21  C   UNL     1      -4.840  11.289  17.254  0.00  0.00    +0.000 C 
ENDBRANCH  11  12
ENDBRANCH   8  11
ENDBRANCH   7   8
ENDBRANCH   1   7
BRANCH   4  22
ATOM     22  O   UNL     1       3.241   6.515  17.838  0.00  0.00    +0.000 OA
BRANCH  22  23
ATOM     23  C   UNL     1       4.397   5.896  18.287  0.00  0.00    +0.000 C 
BRANCH  23  24
ATOM     24  C   UNL     1       5.205   5.341  17.134  0.00  0.00    +0.000 A 
ATOM     25  C   UNL     1       4.711   4.239  16.408  0.00  0.00    +0.000 A 
ATOM     26  F   UNL     1       3.530   3.663  16.748  0.00  0.00    +0.000 F 
ATOM     27  C   UNL     1       5.431   3.719  15.327  0.00  0.00    +0.000 A 
ATOM     28  C   UNL     1       6.644   4.294  14.948  0.00  0.00    +0.000 A 
ATOM     29  C   UNL     1       7.146   5.388  15.651  0.00  0.00    +0.000 A 
ATOM     30  C   UNL     1       6.442   5.916  16.741  0.00  0.00    +0.000 A 
ATOM     31 CL   UNL     1       7.150   7.311  17.555  0.00  0.00    +0.000 Cl
ENDBRANCH  23  24
ENDBRANCH  22  23
ENDBRANCH   4  22
TORSDOF 7
ENDMDL
MODEL 4
REMARK VINA RESULT:      -8.1      7.184      9.204
REMARK  Name = 
REMARK  8 active torsions:
REMARK  status: ('A' for Active; 'I' for Inactive)
REMARK    1  A    between atoms: C_1  and  C_2
REMARK    2  A    between atoms: C_2  and  N_3
REMARK    3  A    between atoms: C_2  and  C_21
REMARK    4  A    between atoms: N_3  and  C_4
REMARK    5  A    between atoms: C_4  and  C_5
REMARK    6  A    between atoms: C_8  and  O_9
REMARK    7  A    between atoms: O_9  and  C_10
REMARK    8  A    between atoms: C_10  and  C_11
REMARK                            x       y       z     vdW  Elec       q    Type
REMARK                         _______ _______ _______ _____ _____    ______ ____
ROOT
ATOM      1  C   UNL     1       0.954   9.836  20.274  0.00  0.00    +0.000 A 
ATOM      2  C   UNL     1       1.291   9.897  18.910  0.00  0.00    +0.000 A 
ATOM      3  C   UNL     1       1.879   8.792  18.273  0.00  0.00    +0.000 A 
ATOM      4  C   UNL     1       2.147   7.613  18.985  0.00  0.00    +0.000 A 
ATOM      5  C   UNL     1       1.814   7.560  20.352  0.00  0.00    +0.000 A 
ATOM      6  C   UNL     1       1.228   8.657  20.984  0.00  0.00    +0.000 A 
ENDROOT
BRANCH   1   7
ATOM      7  C   UNL     1       0.328  11.020  20.982  0.00  0.00    +0.000 C 
BRANCH   7   8
ATOM      8  N   UNL     1      -0.369  11.900  20.025  0.00  0.00    +0.000 NA
ATOM      9  H   UNL     1       0.328  12.605  19.685  0.00  0.00    +0.000 HD
BRANCH   8  11
ATOM     10  C   UNL     1      -1.781  12.265  22.076  0.00  0.00    +0.000 C 
ATOM     11  C   UNL     1      -1.510  12.645  20.608  0.00  0.00    +0.000 C 
BRANCH  11  12
ATOM     12  C   UNL     1      -2.770  12.320  19.819  0.00  0.00    +0.000 A 
ATOM     13  N   UNL     1      -3.998  12.565  20.315  0.00  0.00    +0.000 NA
ATOM     14  N   UNL     1      -4.879  12.196  19.401  0.00  0.00    +0.000 NA
ATOM     15  C   UNL     1      -4.195  11.741  18.335  0.00  0.00    +0.000 A 
ATOM     16  N   UNL     1      -2.853  11.798  18.562  0.00  0.00    +0.000 N 
ATOM     17  C   UNL     1      -1.755  11.323  17.704  0.00  0.00    +0.000 C 
ATOM     18  C   UNL     1      -2.085   9.920  17.195  0.00  0.00    +0.000 C 
ATOM     19  C   UNL     1      -2.987   9.932  15.949  0.00  0.00    +0.000 C 
ATOM     20  C   UNL     1      -4.029  11.057  15.876  0.00  0.00    +0.000 C 
ATOM     21  C   UNL     1      -4.911  11.230  17.106  0.00  0.00    +0.000 C 
ENDBRANCH  11  12
ENDBRANCH   8  11
ENDBRANCH   7   8
ENDBRANCH   1   7
BRANCH   4  22
ATOM     22  O   UNL     1       2.722   6.560  18.334  0.00  0.00    +0.000 OA
BRANCH  22  23
ATOM     23  C   UNL     1       2.114   5.335  18.108  0.00  0.00    +0.000 C 
BRANCH  23  24
ATOM     24  C   UNL     1       2.611   4.289  19.084  0.00  0.00    +0.000 A 
ATOM     25  C   UNL     1       1.797   3.913  20.172  0.00  0.00    +0.000 A 
ATOM     26  F   UNL     1       0.585   4.494  20.359  0.00  0.00    +0.000 F 
ATOM     27  C   UNL     1       2.226   2.936  21.077  0.00  0.00    +0.000 A 
ATOM     28  C   UNL     1       3.464   2.316  20.906  0.00  0.00    +0.000 A 
ATOM     29  C   UNL     1       4.280   2.671  19.833  0.00  0.00    +0.000 A 
ATOM     30  C   UNL     1       3.869   3.653  18.922  0.00  0.00    +0.000 A 
ATOM     31 CL   UNL     1       4.963   4.021  17.590  0.00  0.00    +0.000 Cl
ENDBRANCH  23  24
ENDBRANCH  22  23
ENDBRANCH   4  22
TORSDOF 7
ENDMDL
MODEL 5
REMARK VINA RESULT:      -8.0      8.124      9.725
REMARK  Name = 
REMARK  8 active torsions:
REMARK  status: ('A' for Active; 'I' for Inactive)
REMARK    1  A    between atoms: C_1  and  C_2
REMARK    2  A    between atoms: C_2  and  N_3
REMARK    3  A    between atoms: C_2  and  C_21
REMARK    4  A    between atoms: N_3  and  C_4
REMARK    5  A    between atoms: C_4  and  C_5
REMARK    6  A    between atoms: C_8  and  O_9
REMARK    7  A    between atoms: O_9  and  C_10
REMARK    8  A    between atoms: C_10  and  C_11
REMARK                            x       y       z     vdW  Elec       q    Type
REMARK                         _______ _______ _______ _____ _____    ______ ____
ROOT
ATOM      1  C   UNL     1       0.833  10.486  19.597  0.00  0.00    +0.000 A 
ATOM      2  C   UNL     1       1.353  10.365  18.297  0.00  0.00    +0.000 A 
ATOM      3  C   UNL     1       1.971   9.172  17.886  0.00  0.00    +0.000 A 
ATOM      4  C   UNL     1       2.087   8.085  18.766  0.00  0.00    +0.000 A 
ATOM      5  C   UNL     1       1.569   8.214  20.069  0.00  0.00    +0.000 A 
ATOM      6  C   UNL     1       0.954   9.399  20.475  0.00  0.00    +0.000 A 
ENDROOT
BRANCH   1   7
ATOM      7  C   UNL     1       0.172  11.767  20.063  0.00  0.00    +0.000 C 
BRANCH   7   8
ATOM      8  N   UNL     1      -1.128  11.489  20.704  0.00  0.00    +0.000 NA
ATOM      9  H   UNL     1      -1.580  10.710  20.168  0.00  0.00    +0.000 HD
BRANCH   8  11
ATOM     10  C   UNL     1      -1.340  13.995  20.790  0.00  0.00    +0.000 C 
ATOM     11  C   UNL     1      -2.064  12.638  20.698  0.00  0.00    +0.000 C 
BRANCH  11  12
ATOM     12  C   UNL     1      -2.984  12.535  21.905  0.00  0.00    +0.000 A 
ATOM     13  N   UNL     1      -2.529  12.138  23.109  0.00  0.00    +0.000 NA
ATOM     14  N   UNL     1      -3.549  12.167  23.951  0.00  0.00    +0.000 NA
ATOM     15  C   UNL     1      -4.627  12.598  23.271  0.00  0.00    +0.000 A 
ATOM     16  N   UNL     1      -4.312  12.838  21.968  0.00  0.00    +0.000 N 
ATOM     17  C   UNL     1      -5.203  13.235  20.865  0.00  0.00    +0.000 C 
ATOM     18  C   UNL     1      -6.456  12.360  20.891  0.00  0.00    +0.000 C 
ATOM     19  C   UNL     1      -7.524  12.872  21.872  0.00  0.00    +0.000 C 
ATOM     20  C   UNL     1      -7.004  13.533  23.156  0.00  0.00    +0.000 C 
ATOM     21  C   UNL     1      -5.972  12.738  23.946  0.00  0.00    +0.000 C 
ENDBRANCH  11  12
ENDBRANCH   8  11
ENDBRANCH   7   8
ENDBRANCH   1   7
BRANCH   4  22
ATOM     22  O   UNL     1       2.695   6.942  18.334  0.00  0.00    +0.000 OA
BRANCH  22  23
ATOM     23  C   UNL     1       3.264   5.982  19.156  0.00  0.00    +0.000 C 
BRANCH  23  24
ATOM     24  C   UNL     1       2.559   4.650  19.012  0.00  0.00    +0.000 A 
ATOM     25  C   UNL     1       1.510   4.321  19.894  0.00  0.00    +0.000 A 
ATOM     26  F   UNL     1       1.143   5.180  20.879  0.00  0.00    +0.000 F 
ATOM     27  C   UNL     1       0.832   3.104  19.770  0.00  0.00    +0.000 A 
ATOM     28  C   UNL     1       1.181   2.204  18.763  0.00  0.00    +0.000 A 
ATOM     29  C   UNL     1       2.212   2.515  17.878  0.00  0.00    +0.000 A 
ATOM     30  C   UNL     1       2.908   3.725  17.993  0.00  0.00    +0.000 A 
ATOM     31 CL   UNL     1       4.184   4.034  16.818  0.00  0.00    +0.000 Cl
ENDBRANCH  23  24
ENDBRANCH  22  23
ENDBRANCH   4  22
TORSDOF 7
ENDMDL
MODEL 6
REMARK VINA RESULT:      -8.0      8.065     10.029
REMARK  Name = 
REMARK  8 active torsions:
REMARK  status: ('A' for Active; 'I' for Inactive)
REMARK    1  A    between atoms: C_1  and  C_2
REMARK    2  A    between atoms: C_2  and  N_3
REMARK    3  A    between atoms: C_2  and  C_21
REMARK    4  A    between atoms: N_3  and  C_4
REMARK    5  A    between atoms: C_4  and  C_5
REMARK    6  A    between atoms: C_8  and  O_9
REMARK    7  A    between atoms: O_9  and  C_10
REMARK    8  A    between atoms: C_10  and  C_11
REMARK                            x       y       z     vdW  Elec       q    Type
REMARK                         _______ _______ _______ _____ _____    ______ ____
ROOT
ATOM      1  C   UNL     1       0.813  10.861  19.992  0.00  0.00    +0.000 A 
ATOM      2  C   UNL     1       1.249  10.751  18.660  0.00  0.00    +0.000 A 
ATOM      3  C   UNL     1       1.748   9.532  18.173  0.00  0.00    +0.000 A 
ATOM      4  C   UNL     1       1.828   8.405  19.007  0.00  0.00    +0.000 A 
ATOM      5  C   UNL     1       1.395   8.523  20.342  0.00  0.00    +0.000 A 
ATOM      6  C   UNL     1       0.898   9.734  20.823  0.00  0.00    +0.000 A 
ENDROOT
BRANCH   1   7
ATOM      7  C   UNL     1       0.281  12.169  20.539  0.00  0.00    +0.000 C 
BRANCH   7   8
ATOM      8  N   UNL     1      -1.123  12.030  20.969  0.00  0.00    +0.000 NA
ATOM      9  H   UNL     1      -1.432  11.060  20.721  0.00  0.00    +0.000 HD
BRANCH   8  11
ATOM     10  C   UNL     1      -1.735  14.449  20.638  0.00  0.00    +0.000 C 
ATOM     11  C   UNL     1      -2.055  12.977  20.312  0.00  0.00    +0.000 C 
BRANCH  11  12
ATOM     12  C   UNL     1      -3.469  12.704  20.802  0.00  0.00    +0.000 A 
ATOM     13  N   UNL     1      -3.791  12.773  22.108  0.00  0.00    +0.000 NA
ATOM     14  N   UNL     1      -5.081  12.505  22.217  0.00  0.00    +0.000 NA
ATOM     15  C   UNL     1      -5.559  12.290  20.977  0.00  0.00    +0.000 A 
ATOM     16  N   UNL     1      -4.566  12.401  20.051  0.00  0.00    +0.000 N 
ATOM     17  C   UNL     1      -4.632  12.161  18.600  0.00  0.00    +0.000 C 
ATOM     18  C   UNL     1      -5.368  10.846  18.341  0.00  0.00    +0.000 C 
ATOM     19  C   UNL     1      -6.898  11.008  18.333  0.00  0.00    +0.000 C 
ATOM     20  C   UNL     1      -7.475  12.052  19.300  0.00  0.00    +0.000 C 
ATOM     21  C   UNL     1      -7.013  11.948  20.748  0.00  0.00    +0.000 C 
ENDBRANCH  11  12
ENDBRANCH   8  11
ENDBRANCH   7   8
ENDBRANCH   1   7
BRANCH   4  22
ATOM     22  O   UNL     1       2.320   7.238  18.500  0.00  0.00    +0.000 OA
BRANCH  22  23
ATOM     23  C   UNL     1       3.011   6.282  19.229  0.00  0.00    +0.000 C 
BRANCH  23  24
ATOM     24  C   UNL     1       2.428   4.902  19.015  0.00  0.00    +0.000 A 
ATOM     25  C   UNL     1       1.372   4.459  19.838  0.00  0.00    +0.000 A 
ATOM     26  F   UNL     1       0.892   5.253  20.829  0.00  0.00    +0.000 F 
ATOM     27  C   UNL     1       0.804   3.195  19.648  0.00  0.00    +0.000 A 
ATOM     28  C   UNL     1       1.272   2.360  18.633  0.00  0.00    +0.000 A 
ATOM     29  C   UNL     1       2.311   2.783  17.805  0.00  0.00    +0.000 A 
ATOM     30  C   UNL     1       2.897   4.042  17.987  0.00  0.00    +0.000 A 
ATOM     31 CL   UNL     1       4.193   4.493  16.881  0.00  0.00    +0.000 Cl
ENDBRANCH  23  24
ENDBRANCH  22  23
ENDBRANCH   4  22
TORSDOF 7
ENDMDL
MODEL 7
REMARK VINA RESULT:      -8.0      5.887      8.510
REMARK  Name = 
REMARK  8 active torsions:
REMARK  status: ('A' for Active; 'I' for Inactive)
REMARK    1  A    between atoms: C_1  and  C_2
REMARK    2  A    between atoms: C_2  and  N_3
REMARK    3  A    between atoms: C_2  and  C_21
REMARK    4  A    between atoms: N_3  and  C_4
REMARK    5  A    between atoms: C_4  and  C_5
REMARK    6  A    between atoms: C_8  and  O_9
REMARK    7  A    between atoms: O_9  and  C_10
REMARK    8  A    between atoms: C_10  and  C_11
REMARK                            x       y       z     vdW  Elec       q    Type
REMARK                         _______ _______ _______ _____ _____    ______ ____
ROOT
ATOM      1  C   UNL     1       1.637   4.486  18.984  0.00  0.00    +0.000 A 
ATOM      2  C   UNL     1       1.380   4.753  20.340  0.00  0.00    +0.000 A 
ATOM      3  C   UNL     1       1.479   6.063  20.838  0.00  0.00    +0.000 A 
ATOM      4  C   UNL     1       1.842   7.125  19.995  0.00  0.00    +0.000 A 
ATOM      5  C   UNL     1       2.105   6.850  18.639  0.00  0.00    +0.000 A 
ATOM      6  C   UNL     1       2.004   5.548  18.145  0.00  0.00    +0.000 A 
ENDROOT
BRANCH   1   7
ATOM      7  C   UNL     1       1.545   3.078  18.429  0.00  0.00    +0.000 C 
BRANCH   7   8
ATOM      8  N   UNL     1       2.460   2.900  17.286  0.00  0.00    +0.000 NA
ATOM      9  H   UNL     1       1.973   2.289  16.588  0.00  0.00    +0.000 HD
BRANCH   8  11
ATOM     10  C   UNL     1       3.570   1.091  18.638  0.00  0.00    +0.000 C 
ATOM     11  C   UNL     1       3.744   2.246  17.634  0.00  0.00    +0.000 C 
BRANCH  11  12
ATOM     12  C   UNL     1       4.664   3.271  18.281  0.00  0.00    +0.000 A 
ATOM     13  N   UNL     1       4.933   3.246  19.601  0.00  0.00    +0.000 NA
ATOM     14  N   UNL     1       5.767   4.239  19.858  0.00  0.00    +0.000 NA
ATOM     15  C   UNL     1       6.027   4.864  18.694  0.00  0.00    +0.000 A 
ATOM     16  N   UNL     1       5.342   4.284  17.671  0.00  0.00    +0.000 N 
ATOM     17  C   UNL     1       5.269   4.701  16.260  0.00  0.00    +0.000 C 
ATOM     18  C   UNL     1       5.022   6.208  16.194  0.00  0.00    +0.000 C 
ATOM     19  C   UNL     1       6.314   7.033  16.319  0.00  0.00    +0.000 C 
ATOM     20  C   UNL     1       7.400   6.457  17.239  0.00  0.00    +0.000 C 
ATOM     21  C   UNL     1       6.948   6.061  18.639  0.00  0.00    +0.000 C 
ENDBRANCH  11  12
ENDBRANCH   8  11
ENDBRANCH   7   8
ENDBRANCH   1   7
BRANCH   4  22
ATOM     22  O   UNL     1       1.931   8.384  20.513  0.00  0.00    +0.000 OA
BRANCH  22  23
ATOM     23  C   UNL     1       1.590   8.737  21.810  0.00  0.00    +0.000 C 
BRANCH  23  24
ATOM     24  C   UNL     1       0.509   9.797  21.822  0.00  0.00    +0.000 A 
ATOM     25  C   UNL     1      -0.254   9.997  22.991  0.00  0.00    +0.000 A 
ATOM     26  F   UNL     1      -0.037   9.235  24.093  0.00  0.00    +0.000 F 
ATOM     27  C   UNL     1      -1.246  10.981  23.033  0.00  0.00    +0.000 A 
ATOM     28  C   UNL     1      -1.487  11.785  21.918  0.00  0.00    +0.000 A 
ATOM     29  C   UNL     1      -0.739  11.606  20.755  0.00  0.00    +0.000 A 
ATOM     30  C   UNL     1       0.253  10.619  20.693  0.00  0.00    +0.000 A 
ATOM     31 CL   UNL     1       1.155  10.479  19.185  0.00  0.00    +0.000 Cl
ENDBRANCH  23  24
ENDBRANCH  22  23
ENDBRANCH   4  22
TORSDOF 7
ENDMDL
MODEL 8
REMARK VINA RESULT:      -8.0      1.605      2.189
REMARK  Name = 
REMARK  8 active torsions:
REMARK  status: ('A' for Active; 'I' for Inactive)
REMARK    1  A    between atoms: C_1  and  C_2
REMARK    2  A    between atoms: C_2  and  N_3
REMARK    3  A    between atoms: C_2  and  C_21
REMARK    4  A    between atoms: N_3  and  C_4
REMARK    5  A    between atoms: C_4  and  C_5
REMARK    6  A    between atoms: C_8  and  O_9
REMARK    7  A    between atoms: O_9  and  C_10
REMARK    8  A    between atoms: C_10  and  C_11
REMARK                            x       y       z     vdW  Elec       q    Type
REMARK                         _______ _______ _______ _____ _____    ______ ____
ROOT
ATOM      1  C   UNL     1       7.449   7.126  18.188  0.00  0.00    +0.000 A 
ATOM      2  C   UNL     1       7.300   5.908  18.875  0.00  0.00    +0.000 A 
ATOM      3  C   UNL     1       6.227   5.052  18.580  0.00  0.00    +0.000 A 
ATOM      4  C   UNL     1       5.281   5.398  17.601  0.00  0.00    +0.000 A 
ATOM      5  C   UNL     1       5.432   6.622  16.921  0.00  0.00    +0.000 A 
ATOM      6  C   UNL     1       6.500   7.471  17.214  0.00  0.00    +0.000 A 
ENDROOT
BRANCH   1   7
ATOM      7  C   UNL     1       8.594   8.068  18.498  0.00  0.00    +0.000 C 
BRANCH   7   8
ATOM      8  N   UNL     1       8.328   9.417  17.965  0.00  0.00    +0.000 NA
ATOM      9  H   UNL     1       8.412   9.364  16.922  0.00  0.00    +0.000 HD
BRANCH   8  11
ATOM     10  C   UNL     1       9.469  10.431  19.966  0.00  0.00    +0.000 C 
ATOM     11  C   UNL     1       9.277  10.453  18.438  0.00  0.00    +0.000 C 
BRANCH  11  12
ATOM     12  C   UNL     1       8.736  11.827  18.072  0.00  0.00    +0.000 A 
ATOM     13  N   UNL     1       7.608  11.974  17.349  0.00  0.00    +0.000 NA
ATOM     14  N   UNL     1       7.388  13.270  17.211  0.00  0.00    +0.000 NA
ATOM     15  C   UNL     1       8.368  13.922  17.864  0.00  0.00    +0.000 A 
ATOM     16  N   UNL     1       9.247  13.043  18.419  0.00  0.00    +0.000 N 
ATOM     17  C   UNL     1      10.500  13.326  19.139  0.00  0.00    +0.000 C 
ATOM     18  C   UNL     1      11.306  14.362  18.356  0.00  0.00    +0.000 C 
ATOM     19  C   UNL     1      10.869  15.808  18.650  0.00  0.00    +0.000 C 
ATOM     20  C   UNL     1       9.374  16.022  18.923  0.00  0.00    +0.000 C 
ATOM     21  C   UNL     1       8.416  15.433  17.894  0.00  0.00    +0.000 C 
ENDBRANCH  11  12
ENDBRANCH   8  11
ENDBRANCH   7   8
ENDBRANCH   1   7
BRANCH   4  22
ATOM     22  O   UNL     1       4.250   4.543  17.342  0.00  0.00    +0.000 OA
BRANCH  22  23
ATOM     23  C   UNL     1       4.127   3.263  17.861  0.00  0.00    +0.000 C 
BRANCH  23  24
ATOM     24  C   UNL     1       3.163   3.236  19.029  0.00  0.00    +0.000 A 
ATOM     25  C   UNL     1       3.580   2.686  20.259  0.00  0.00    +0.000 A 
ATOM     26  F   UNL     1       4.826   2.167  20.394  0.00  0.00    +0.000 F 
ATOM     27  C   UNL     1       2.714   2.665  21.357  0.00  0.00    +0.000 A 
ATOM     28  C   UNL     1       1.429   3.198  21.250  0.00  0.00    +0.000 A 
ATOM     29  C   UNL     1       1.002   3.751  20.044  0.00  0.00    +0.000 A 
ATOM     30  C   UNL     1       1.853   3.772  18.931  0.00  0.00    +0.000 A 
ATOM     31 CL   UNL     1       1.228   4.506  17.455  0.00  0.00    +0.000 Cl
ENDBRANCH  23  24
ENDBRANCH  22  23
ENDBRANCH   4  22
TORSDOF 7
ENDMDL
MODEL 9
REMARK VINA RESULT:      -8.0      5.389      7.100
REMARK  Name = 
REMARK  8 active torsions:
REMARK  status: ('A' for Active; 'I' for Inactive)
REMARK    1  A    between atoms: C_1  and  C_2
REMARK    2  A    between atoms: C_2  and  N_3
REMARK    3  A    between atoms: C_2  and  C_21
REMARK    4  A    between atoms: N_3  and  C_4
REMARK    5  A    between atoms: C_4  and  C_5
REMARK    6  A    between atoms: C_8  and  O_9
REMARK    7  A    between atoms: O_9  and  C_10
REMARK    8  A    between atoms: C_10  and  C_11
REMARK                            x       y       z     vdW  Elec       q    Type
REMARK                         _______ _______ _______ _____ _____    ______ ____
ROOT
ATOM      1  C   UNL     1       1.822   7.234  20.174  0.00  0.00    +0.000 A 
ATOM      2  C   UNL     1       2.301   7.656  18.922  0.00  0.00    +0.000 A 
ATOM      3  C   UNL     1       2.713   6.715  17.963  0.00  0.00    +0.000 A 
ATOM      4  C   UNL     1       2.661   5.340  18.241  0.00  0.00    +0.000 A 
ATOM      5  C   UNL     1       2.186   4.923  19.500  0.00  0.00    +0.000 A 
ATOM      6  C   UNL     1       1.776   5.859  20.450  0.00  0.00    +0.000 A 
ENDROOT
BRANCH   1   7
ATOM      7  C   UNL     1       1.383   8.233  21.225  0.00  0.00    +0.000 C 
BRANCH   7   8
ATOM      8  N   UNL     1       0.895   9.477  20.600  0.00  0.00    +0.000 NA
ATOM      9  H   UNL     1       1.661   9.839  19.983  0.00  0.00    +0.000 HD
BRANCH   8  11
ATOM     10  C   UNL     1      -0.489  10.099  22.608  0.00  0.00    +0.000 C 
ATOM     11  C   UNL     1       0.554  10.547  21.566  0.00  0.00    +0.000 C 
BRANCH  11  12
ATOM     12  C   UNL     1      -0.040  11.727  20.812  0.00  0.00    +0.000 A 
ATOM     13  N   UNL     1      -1.368  11.843  20.614  0.00  0.00    +0.000 NA
ATOM     14  N   UNL     1      -1.576  12.969  19.951  0.00  0.00    +0.000 NA
ATOM     15  C   UNL     1      -0.380  13.555  19.757  0.00  0.00    +0.000 A 
ATOM     16  N   UNL     1       0.621  12.796  20.284  0.00  0.00    +0.000 N 
ATOM     17  C   UNL     1       2.075  13.020  20.220  0.00  0.00    +0.000 C 
ATOM     18  C   UNL     1       2.465  13.379  18.786  0.00  0.00    +0.000 C 
ATOM     19  C   UNL     1       2.272  14.872  18.470  0.00  0.00    +0.000 C 
ATOM     20  C   UNL     1       1.085  15.563  19.155  0.00  0.00    +0.000 C 
ATOM     21  C   UNL     1      -0.264  14.867  19.016  0.00  0.00    +0.000 C 
ENDBRANCH  11  12
ENDBRANCH   8  11
ENDBRANCH   7   8
ENDBRANCH   1   7
BRANCH   4  22
ATOM     22  O   UNL     1       3.071   4.454  17.287  0.00  0.00    +0.000 OA
BRANCH  22  23
ATOM     23  C   UNL     1       4.276   3.768  17.303  0.00  0.00    +0.000 C 
BRANCH  23  24
ATOM     24  C   UNL     1       5.429   4.693  17.629  0.00  0.00    +0.000 A 
ATOM     25  C   UNL     1       5.916   4.755  18.951  0.00  0.00    +0.000 A 
ATOM     26  F   UNL     1       5.347   4.008  19.931  0.00  0.00    +0.000 F 
ATOM     27  C   UNL     1       6.991   5.589  19.274  0.00  0.00    +0.000 A 
ATOM     28  C   UNL     1       7.602   6.364  18.287  0.00  0.00    +0.000 A 
ATOM     29  C   UNL     1       7.138   6.311  16.974  0.00  0.00    +0.000 A 
ATOM     30  C   UNL     1       6.056   5.488  16.634  0.00  0.00    +0.000 A 
ATOM     31 CL   UNL     1       5.552   5.478  14.945  0.00  0.00    +0.000 Cl
ENDBRANCH  23  24
ENDBRANCH  22  23
ENDBRANCH   4  22
TORSDOF 7
ENDMDL
