MODEL 1
REMARK VINA RESULT:      -8.4      0.000      0.000
REMARK  Name = 
REMARK  4 active torsions:
REMARK  status: ('A' for Active; 'I' for Inactive)
REMARK    1  A    between atoms: C_1  and  C_2
REMARK    2  A    between atoms: N_4  and  C_5
REMARK    3  A    between atoms: C_9  and  C_10
REMARK    4  A    between atoms: N_14  and  C_15
REMARK                            x       y       z     vdW  Elec       q    Type
REMARK                         _______ _______ _______ _____ _____    ______ ____
ROOT
ATOM      1  C   UNL     1       1.686   4.226  18.215  0.00  0.00    +0.000 C 
ATOM      2  C   UNL     1       1.201   2.775  18.397  0.00  0.00    +0.000 C 
ATOM      3  C   UNL     1       2.312   1.743  18.633  0.00  0.00    +0.000 C 
ATOM      4  C   UNL     1       3.575   1.941  17.772  0.00  0.00    +0.000 C 
ATOM      5  N   UNL     1       3.950   3.352  17.754  0.00  0.00    +0.000 N 
ATOM      6  C   UNL     1       2.873   4.242  17.249  0.00  0.00    +0.000 C 
ENDROOT
BRANCH   5   7
ATOM      7  C   UNL     1       5.201   3.909  17.535  0.00  0.00    +0.000 A 
ATOM      8  N   UNL     1       5.777   4.353  18.673  0.00  0.00    +0.000 NA
ATOM      9  C   UNL     1       6.919   5.032  18.598  0.00  0.00    +0.000 A 
ATOM     10  N   UNL     1       7.536   5.364  17.468  0.00  0.00    +0.000 NA
ATOM     11  C   UNL     1       6.995   4.900  16.342  0.00  0.00    +0.000 A 
ATOM     12  C   UNL     1       7.597   5.283  15.156  0.00  0.00    +0.000 A 
ATOM     13  C   UNL     1       7.129   4.822  13.932  0.00  0.00    +0.000 A 
ATOM     14  F   UNL     1       7.700   5.253  12.800  0.00  0.00    +0.000 F 
ATOM     15  C   UNL     1       6.079   3.928  13.884  0.00  0.00    +0.000 A 
ATOM     16  F   UNL     1       5.658   3.426  12.716  0.00  0.00    +0.000 F 
ATOM     17  C   UNL     1       5.435   3.555  15.051  0.00  0.00    +0.000 A 
ATOM     18  C   UNL     1       5.846   4.078  16.301  0.00  0.00    +0.000 A 
ENDBRANCH   5   7
BRANCH   1  23
ATOM     19  C   UNL     1       2.234   6.367  19.725  0.00  0.00    +0.000 A 
ATOM     20  C   UNL     1       2.427   6.481  21.075  0.00  0.00    +0.000 A 
ATOM     21  N   UNL     1       2.197   5.244  21.589  0.00  0.00    +0.000 N 
ATOM     22  N   UNL     1       1.949   4.304  20.661  0.00  0.00    +0.000 NA
ATOM     23  C   UNL     1       1.962   4.982  19.499  0.00  0.00    +0.000 A 
ATOM     24  H   UNL     1       2.181   4.972  22.566  0.00  0.00    +0.000 HD
BRANCH  19  28
ATOM     25  C   UNL     1       1.933   9.424  17.612  0.00  0.00    +0.000 C 
ATOM     26  C   UNL     1       1.704   8.632  18.879  0.00  0.00    +0.000 C 
ATOM     27  O   UNL     1       1.137   9.118  19.846  0.00  0.00    +0.000 OA
ATOM     28  N   UNL     1       2.245   7.371  18.784  0.00  0.00    +0.000 N 
ATOM     29  H   UNL     1       2.572   7.061  17.875  0.00  0.00    +0.000 HD
ENDBRANCH  19  28
ENDBRANCH   1  23
TORSDOF 3
ENDMDL
MODEL 2
REMARK VINA RESULT:      -8.3      1.099      1.099
REMARK  Name = 
REMARK  4 active torsions:
REMARK  status: ('A' for Active; 'I' for Inactive)
REMARK    1  A    between atoms: C_1  and  C_2
REMARK    2  A    between atoms: N_4  and  C_5
REMARK    3  A    between atoms: C_9  and  C_10
REMARK    4  A    between atoms: N_14  and  C_15
REMARK                            x       y       z     vdW  Elec       q    Type
REMARK                         _______ _______ _______ _____ _____    ______ ____
ROOT
ATOM      1  C   UNL     1       1.689   3.820  18.035  0.00  0.00    +0.000 C 
ATOM      2  C   UNL     1       1.338   2.377  18.445  0.00  0.00    +0.000 C 
ATOM      3  C   UNL     1       2.525   1.529  18.920  0.00  0.00    +0.000 C 
ATOM      4  C   UNL     1       3.821   1.715  18.106  0.00  0.00    +0.000 C 
ATOM      5  N   UNL     1       4.055   3.135  17.859  0.00  0.00    +0.000 N 
ATOM      6  C   UNL     1       2.935   3.802  17.147  0.00  0.00    +0.000 C 
ENDROOT
BRANCH   5   7
ATOM      7  C   UNL     1       5.257   3.780  17.613  0.00  0.00    +0.000 A 
ATOM      8  N   UNL     1       5.817   4.279  18.735  0.00  0.00    +0.000 NA
ATOM      9  C   UNL     1       6.905   5.040  18.632  0.00  0.00    +0.000 A 
ATOM     10  N   UNL     1       7.476   5.404  17.489  0.00  0.00    +0.000 NA
ATOM     11  C   UNL     1       6.953   4.888  16.378  0.00  0.00    +0.000 A 
ATOM     12  C   UNL     1       7.506   5.299  15.177  0.00  0.00    +0.000 A 
ATOM     13  C   UNL     1       7.053   4.790  13.967  0.00  0.00    +0.000 A 
ATOM     14  F   UNL     1       7.571   5.249  12.820  0.00  0.00    +0.000 F 
ATOM     15  C   UNL     1       6.072   3.820  13.947  0.00  0.00    +0.000 A 
ATOM     16  F   UNL     1       5.670   3.275  12.792  0.00  0.00    +0.000 F 
ATOM     17  C   UNL     1       5.476   3.415  15.129  0.00  0.00    +0.000 A 
ATOM     18  C   UNL     1       5.868   3.982  16.366  0.00  0.00    +0.000 A 
ENDBRANCH   5   7
BRANCH   1  23
ATOM     19  C   UNL     1       2.654   5.939  19.356  0.00  0.00    +0.000 A 
ATOM     20  C   UNL     1       2.328   6.450  20.583  0.00  0.00    +0.000 A 
ATOM     21  N   UNL     1       1.290   5.698  21.035  0.00  0.00    +0.000 N 
ATOM     22  N   UNL     1       0.965   4.673  20.227  0.00  0.00    +0.000 NA
ATOM     23  C   UNL     1       1.796   4.809  19.179  0.00  0.00    +0.000 A 
ATOM     24  H   UNL     1       0.748   5.835  21.880  0.00  0.00    +0.000 HD
BRANCH  19  28
ATOM     25  C   UNL     1       4.686   7.702  16.774  0.00  0.00    +0.000 C 
ATOM     26  C   UNL     1       3.440   7.504  17.607  0.00  0.00    +0.000 C 
ATOM     27  O   UNL     1       2.484   8.260  17.520  0.00  0.00    +0.000 OA
ATOM     28  N   UNL     1       3.571   6.429  18.456  0.00  0.00    +0.000 N 
ATOM     29  H   UNL     1       4.369   5.816  18.326  0.00  0.00    +0.000 HD
ENDBRANCH  19  28
ENDBRANCH   1  23
TORSDOF 3
ENDMDL
MODEL 3
REMARK VINA RESULT:      -8.0      1.829      2.775
REMARK  Name = 
REMARK  4 active torsions:
REMARK  status: ('A' for Active; 'I' for Inactive)
REMARK    1  A    between atoms: C_1  and  C_2
REMARK    2  A    between atoms: N_4  and  C_5
REMARK    3  A    between atoms: C_9  and  C_10
REMARK    4  A    between atoms: N_14  and  C_15
REMARK                            x       y       z     vdW  Elec       q    Type
REMARK                         _______ _______ _______ _____ _____    ______ ____
ROOT
ATOM      1  C   UNL     1       1.893   4.022  17.738  0.00  0.00    +0.000 C 
ATOM      2  C   UNL     1       1.676   2.585  18.248  0.00  0.00    +0.000 C 
ATOM      3  C   UNL     1       2.956   1.832  18.636  0.00  0.00    +0.000 C 
ATOM      4  C   UNL     1       4.149   2.050  17.686  0.00  0.00    +0.000 C 
ATOM      5  N   UNL     1       4.268   3.466  17.351  0.00  0.00    +0.000 N 
ATOM      6  C   UNL     1       3.042   4.029  16.728  0.00  0.00    +0.000 C 
ENDROOT
BRANCH   5   7
ATOM      7  C   UNL     1       5.397   4.166  16.952  0.00  0.00    +0.000 A 
ATOM      8  N   UNL     1       5.914   4.924  17.944  0.00  0.00    +0.000 NA
ATOM      9  C   UNL     1       6.918   5.753  17.667  0.00  0.00    +0.000 A 
ATOM     10  N   UNL     1       7.439   5.944  16.460  0.00  0.00    +0.000 NA
ATOM     11  C   UNL     1       6.960   5.176  15.482  0.00  0.00    +0.000 A 
ATOM     12  C   UNL     1       7.457   5.402  14.210  0.00  0.00    +0.000 A 
ATOM     13  C   UNL     1       7.047   4.629  13.132  0.00  0.00    +0.000 A 
ATOM     14  F   UNL     1       7.505   4.908  11.905  0.00  0.00    +0.000 F 
ATOM     15  C   UNL     1       6.169   3.583  13.324  0.00  0.00    +0.000 A 
ATOM     16  F   UNL     1       5.813   2.790  12.305  0.00  0.00    +0.000 F 
ATOM     17  C   UNL     1       5.628   3.356  14.578  0.00  0.00    +0.000 A 
ATOM     18  C   UNL     1       5.972   4.184  15.673  0.00  0.00    +0.000 A 
ENDBRANCH   5   7
BRANCH   1  23
ATOM     19  C   UNL     1       1.711   5.043  20.206  0.00  0.00    +0.000 A 
ATOM     20  C   UNL     1       2.054   6.277  20.689  0.00  0.00    +0.000 A 
ATOM     21  N   UNL     1       2.630   6.936  19.649  0.00  0.00    +0.000 N 
ATOM     22  N   UNL     1       2.612   6.252  18.491  0.00  0.00    +0.000 NA
ATOM     23  C   UNL     1       2.051   5.074  18.818  0.00  0.00    +0.000 A 
ATOM     24  H   UNL     1       3.066   7.851  19.661  0.00  0.00    +0.000 HD
BRANCH  19  28
ATOM     25  C   UNL     1       0.927   2.050  22.287  0.00  0.00    +0.000 C 
ATOM     26  C   UNL     1       1.869   3.078  21.703  0.00  0.00    +0.000 C 
ATOM     27  O   UNL     1       3.061   3.082  21.972  0.00  0.00    +0.000 OA
ATOM     28  N   UNL     1       1.197   3.977  20.907  0.00  0.00    +0.000 N 
ATOM     29  H   UNL     1       0.232   3.773  20.671  0.00  0.00    +0.000 HD
ENDBRANCH  19  28
ENDBRANCH   1  23
TORSDOF 3
ENDMDL
MODEL 4
REMARK VINA RESULT:      -7.7      4.338      7.169
REMARK  Name = 
REMARK  4 active torsions:
REMARK  status: ('A' for Active; 'I' for Inactive)
REMARK    1  A    between atoms: C_1  and  C_2
REMARK    2  A    between atoms: N_4  and  C_5
REMARK    3  A    between atoms: C_9  and  C_10
REMARK    4  A    between atoms: N_14  and  C_15
REMARK                            x       y       z     vdW  Elec       q    Type
REMARK                         _______ _______ _______ _____ _____    ______ ____
ROOT
ATOM      1  C   UNL     1       4.189   4.328  19.621  0.00  0.00    +0.000 C 
ATOM      2  C   UNL     1       3.313   3.214  20.225  0.00  0.00    +0.000 C 
ATOM      3  C   UNL     1       1.800   3.455  20.134  0.00  0.00    +0.000 C 
ATOM      4  C   UNL     1       1.358   4.905  20.414  0.00  0.00    +0.000 C 
ATOM      5  N   UNL     1       2.239   5.839  19.719  0.00  0.00    +0.000 N 
ATOM      6  C   UNL     1       3.669   5.688  20.090  0.00  0.00    +0.000 C 
ENDROOT
BRANCH   5   7
ATOM      7  C   UNL     1       1.965   7.132  19.300  0.00  0.00    +0.000 A 
ATOM      8  N   UNL     1       2.433   7.385  18.059  0.00  0.00    +0.000 NA
ATOM      9  C   UNL     1       2.362   8.626  17.581  0.00  0.00    +0.000 A 
ATOM     10  N   UNL     1       1.905   9.677  18.254  0.00  0.00    +0.000 NA
ATOM     11  C   UNL     1       1.408   9.432  19.466  0.00  0.00    +0.000 A 
ATOM     12  C   UNL     1       0.977  10.525  20.197  0.00  0.00    +0.000 A 
ATOM     13  C   UNL     1       0.411  10.369  21.455  0.00  0.00    +0.000 A 
ATOM     14  F   UNL     1       0.053  11.450  22.160  0.00  0.00    +0.000 F 
ATOM     15  C   UNL     1       0.222   9.106  21.978  0.00  0.00    +0.000 A 
ATOM     16  F   UNL     1      -0.380   8.936  23.162  0.00  0.00    +0.000 F 
ATOM     17  C   UNL     1       0.675   7.996  21.285  0.00  0.00    +0.000 A 
ATOM     18  C   UNL     1       1.328   8.142  20.037  0.00  0.00    +0.000 A 
ENDBRANCH   5   7
BRANCH   1  23
ATOM     19  C   UNL     1       5.233   5.011  17.252  0.00  0.00    +0.000 A 
ATOM     20  C   UNL     1       4.975   4.538  15.993  0.00  0.00    +0.000 A 
ATOM     21  N   UNL     1       4.087   3.522  16.153  0.00  0.00    +0.000 N 
ATOM     22  N   UNL     1       3.677   3.348  17.422  0.00  0.00    +0.000 NA
ATOM     23  C   UNL     1       4.381   4.257  18.119  0.00  0.00    +0.000 A 
ATOM     24  H   UNL     1       3.726   2.897  15.441  0.00  0.00    +0.000 HD
BRANCH  19  28
ATOM     25  C   UNL     1       8.065   7.105  18.474  0.00  0.00    +0.000 C 
ATOM     26  C   UNL     1       7.368   5.785  18.237  0.00  0.00    +0.000 C 
ATOM     27  O   UNL     1       7.887   4.721  18.539  0.00  0.00    +0.000 OA
ATOM     28  N   UNL     1       6.150   5.966  17.622  0.00  0.00    +0.000 N 
ATOM     29  H   UNL     1       5.792   6.912  17.549  0.00  0.00    +0.000 HD
ENDBRANCH  19  28
ENDBRANCH   1  23
TORSDOF 3
ENDMDL
MODEL 5
REMARK VINA RESULT:      -7.4      1.784      1.846
REMARK  Name = 
REMARK  4 active torsions:
REMARK  status: ('A' for Active; 'I' for Inactive)
REMARK    1  A    between atoms: C_1  and  C_2
REMARK    2  A    between atoms: N_4  and  C_5
REMARK    3  A    between atoms: C_9  and  C_10
REMARK    4  A    between atoms: N_14  and  C_15
REMARK                            x       y       z     vdW  Elec       q    Type
REMARK                         _______ _______ _______ _____ _____    ______ ____
ROOT
ATOM      1  C   UNL     1       2.155   3.999  18.934  0.00  0.00    +0.000 C 
ATOM      2  C   UNL     1       1.911   2.898  19.982  0.00  0.00    +0.000 C 
ATOM      3  C   UNL     1       3.132   2.533  20.839  0.00  0.00    +0.000 C 
ATOM      4  C   UNL     1       4.465   2.464  20.069  0.00  0.00    +0.000 C 
ATOM      5  N   UNL     1       4.582   3.609  19.170  0.00  0.00    +0.000 N 
ATOM      6  C   UNL     1       3.465   3.711  18.197  0.00  0.00    +0.000 C 
ENDROOT
BRANCH   5   7
ATOM      7  C   UNL     1       5.734   4.199  18.672  0.00  0.00    +0.000 A 
ATOM      8  N   UNL     1       6.472   4.790  19.635  0.00  0.00    +0.000 NA
ATOM      9  C   UNL     1       7.535   5.512  19.285  0.00  0.00    +0.000 A 
ATOM     10  N   UNL     1       7.915   5.751  18.034  0.00  0.00    +0.000 NA
ATOM     11  C   UNL     1       7.215   5.143  17.078  0.00  0.00    +0.000 A 
ATOM     12  C   UNL     1       7.568   5.425  15.769  0.00  0.00    +0.000 A 
ATOM     13  C   UNL     1       6.922   4.814  14.704  0.00  0.00    +0.000 A 
ATOM     14  F   UNL     1       7.250   5.148  13.449  0.00  0.00    +0.000 F 
ATOM     15  C   UNL     1       5.943   3.870  14.936  0.00  0.00    +0.000 A 
ATOM     16  F   UNL     1       5.355   3.226  13.920  0.00  0.00    +0.000 F 
ATOM     17  C   UNL     1       5.544   3.593  16.233  0.00  0.00    +0.000 A 
ATOM     18  C   UNL     1       6.136   4.266  17.329  0.00  0.00    +0.000 A 
ENDBRANCH   5   7
BRANCH   1  23
ATOM     19  C   UNL     1       2.480   6.656  18.861  0.00  0.00    +0.000 A 
ATOM     20  C   UNL     1       2.189   7.616  19.793  0.00  0.00    +0.000 A 
ATOM     21  N   UNL     1       1.581   6.965  20.820  0.00  0.00    +0.000 N 
ATOM     22  N   UNL     1       1.527   5.631  20.666  0.00  0.00    +0.000 NA
ATOM     23  C   UNL     1       2.074   5.420  19.456  0.00  0.00    +0.000 A 
ATOM     24  H   UNL     1       1.167   7.371  21.651  0.00  0.00    +0.000 HD
BRANCH  19  28
ATOM     25  C   UNL     1       4.421   7.342  15.753  0.00  0.00    +0.000 C 
ATOM     26  C   UNL     1       4.253   7.288  17.255  0.00  0.00    +0.000 C 
ATOM     27  O   UNL     1       5.164   7.585  18.013  0.00  0.00    +0.000 OA
ATOM     28  N   UNL     1       3.001   6.834  17.601  0.00  0.00    +0.000 N 
ATOM     29  H   UNL     1       2.307   6.749  16.867  0.00  0.00    +0.000 HD
ENDBRANCH  19  28
ENDBRANCH   1  23
TORSDOF 3
ENDMDL
MODEL 6
REMARK VINA RESULT:      -7.1      4.095      6.897
REMARK  Name = 
REMARK  4 active torsions:
REMARK  status: ('A' for Active; 'I' for Inactive)
REMARK    1  A    between atoms: C_1  and  C_2
REMARK    2  A    between atoms: N_4  and  C_5
REMARK    3  A    between atoms: C_9  and  C_10
REMARK    4  A    between atoms: N_14  and  C_15
REMARK                            x       y       z     vdW  Elec       q    Type
REMARK                         _______ _______ _______ _____ _____    ______ ____
ROOT
ATOM      1  C   UNL     1      -0.641  10.458  20.912  0.00  0.00    +0.000 C 
ATOM      2  C   UNL     1      -0.568  10.434  22.450  0.00  0.00    +0.000 C 
ATOM      3  C   UNL     1       0.675   9.746  23.031  0.00  0.00    +0.000 C 
ATOM      4  C   UNL     1       1.101   8.456  22.304  0.00  0.00    +0.000 C 
ATOM      5  N   UNL     1       1.048   8.658  20.859  0.00  0.00    +0.000 N 
ATOM      6  C   UNL     1      -0.292   9.071  20.369  0.00  0.00    +0.000 C 
ENDROOT
BRANCH   5   7
ATOM      7  C   UNL     1       1.758   7.994  19.869  0.00  0.00    +0.000 A 
ATOM      8  N   UNL     1       2.171   8.821  18.884  0.00  0.00    +0.000 NA
ATOM      9  C   UNL     1       2.747   8.301  17.802  0.00  0.00    +0.000 A 
ATOM     10  N   UNL     1       2.912   7.001  17.576  0.00  0.00    +0.000 NA
ATOM     11  C   UNL     1       2.541   6.180  18.557  0.00  0.00    +0.000 A 
ATOM     12  C   UNL     1       2.659   4.822  18.313  0.00  0.00    +0.000 A 
ATOM     13  C   UNL     1       2.332   3.887  19.287  0.00  0.00    +0.000 A 
ATOM     14  F   UNL     1       2.406   2.581  19.002  0.00  0.00    +0.000 F 
ATOM     15  C   UNL     1       1.930   4.303  20.539  0.00  0.00    +0.000 A 
ATOM     16  F   UNL     1       1.672   3.414  21.507  0.00  0.00    +0.000 F 
ATOM     17  C   UNL     1       1.768   5.653  20.801  0.00  0.00    +0.000 A 
ATOM     18  C   UNL     1       2.019   6.618  19.796  0.00  0.00    +0.000 A 
ENDBRANCH   5   7
BRANCH   1  23
ATOM     19  C   UNL     1       0.157  12.017  18.886  0.00  0.00    +0.000 A 
ATOM     20  C   UNL     1       1.076  13.031  18.849  0.00  0.00    +0.000 A 
ATOM     21  N   UNL     1       1.500  13.195  20.130  0.00  0.00    +0.000 N 
ATOM     22  N   UNL     1       0.988  12.302  20.995  0.00  0.00    +0.000 NA
ATOM     23  C   UNL     1       0.148  11.567  20.244  0.00  0.00    +0.000 A 
ATOM     24  H   UNL     1       2.130  13.904  20.488  0.00  0.00    +0.000 HD
BRANCH  19  28
ATOM     25  C   UNL     1      -2.475  10.976  16.460  0.00  0.00    +0.000 C 
ATOM     26  C   UNL     1      -2.004  11.600  17.754  0.00  0.00    +0.000 C 
ATOM     27  O   UNL     1      -2.787  12.098  18.549  0.00  0.00    +0.000 OA
ATOM     28  N   UNL     1      -0.632  11.557  17.859  0.00  0.00    +0.000 N 
ATOM     29  H   UNL     1      -0.122  10.998  17.184  0.00  0.00    +0.000 HD
ENDBRANCH  19  28
ENDBRANCH   1  23
TORSDOF 3
ENDMDL
MODEL 7
REMARK VINA RESULT:      -7.1      7.470     11.214
REMARK  Name = 
REMARK  4 active torsions:
REMARK  status: ('A' for Active; 'I' for Inactive)
REMARK    1  A    between atoms: C_1  and  C_2
REMARK    2  A    between atoms: N_4  and  C_5
REMARK    3  A    between atoms: C_9  and  C_10
REMARK    4  A    between atoms: N_14  and  C_15
REMARK                            x       y       z     vdW  Elec       q    Type
REMARK                         _______ _______ _______ _____ _____    ______ ____
ROOT
ATOM      1  C   UNL     1      -0.123  12.369  21.756  0.00  0.00    +0.000 C 
ATOM      2  C   UNL     1      -0.724  13.294  22.831  0.00  0.00    +0.000 C 
ATOM      3  C   UNL     1      -2.251  13.436  22.787  0.00  0.00    +0.000 C 
ATOM      4  C   UNL     1      -2.851  13.550  21.371  0.00  0.00    +0.000 C 
ATOM      5  N   UNL     1      -2.233  12.564  20.488  0.00  0.00    +0.000 N 
ATOM      6  C   UNL     1      -0.756  12.694  20.402  0.00  0.00    +0.000 C 
ENDROOT
BRANCH   5   7
ATOM      7  C   UNL     1      -2.752  11.995  19.336  0.00  0.00    +0.000 A 
ATOM      8  N   UNL     1      -1.827  11.304  18.636  0.00  0.00    +0.000 NA
ATOM      9  C   UNL     1      -2.151  10.817  17.439  0.00  0.00    +0.000 A 
ATOM     10  N   UNL     1      -3.320  10.998  16.834  0.00  0.00    +0.000 NA
ATOM     11  C   UNL     1      -4.251  11.647  17.530  0.00  0.00    +0.000 A 
ATOM     12  C   UNL     1      -5.456  11.887  16.891  0.00  0.00    +0.000 A 
ATOM     13  C   UNL     1      -6.501  12.525  17.546  0.00  0.00    +0.000 A 
ATOM     14  F   UNL     1      -7.634  12.791  16.883  0.00  0.00    +0.000 F 
ATOM     15  C   UNL     1      -6.371  12.885  18.871  0.00  0.00    +0.000 A 
ATOM     16  F   UNL     1      -7.392  13.443  19.534  0.00  0.00    +0.000 F 
ATOM     17  C   UNL     1      -5.167  12.690  19.526  0.00  0.00    +0.000 A 
ATOM     18  C   UNL     1      -4.063  12.115  18.850  0.00  0.00    +0.000 A 
ENDBRANCH   5   7
BRANCH   1  23
ATOM     19  C   UNL     1       0.112   9.748  21.264  0.00  0.00    +0.000 A 
ATOM     20  C   UNL     1      -0.099   8.665  22.075  0.00  0.00    +0.000 A 
ATOM     21  N   UNL     1      -0.393   9.172  23.302  0.00  0.00    +0.000 N 
ATOM     22  N   UNL     1      -0.474  10.513  23.334  0.00  0.00    +0.000 NA
ATOM     23  C   UNL     1      -0.159  10.889  22.082  0.00  0.00    +0.000 A 
ATOM     24  H   UNL     1      -0.538   8.660  24.165  0.00  0.00    +0.000 HD
BRANCH  19  28
ATOM     25  C   UNL     1       1.635   9.251  17.897  0.00  0.00    +0.000 C 
ATOM     26  C   UNL     1       1.431   8.893  19.352  0.00  0.00    +0.000 C 
ATOM     27  O   UNL     1       1.983   7.928  19.859  0.00  0.00    +0.000 OA
ATOM     28  N   UNL     1       0.542   9.751  19.958  0.00  0.00    +0.000 N 
ATOM     29  H   UNL     1       0.263  10.583  19.449  0.00  0.00    +0.000 HD
ENDBRANCH  19  28
ENDBRANCH   1  23
TORSDOF 3
ENDMDL
MODEL 8
REMARK VINA RESULT:      -7.0      8.839     11.222
REMARK  Name = 
REMARK  4 active torsions:
REMARK  status: ('A' for Active; 'I' for Inactive)
REMARK    1  A    between atoms: C_1  and  C_2
REMARK    2  A    between atoms: N_4  and  C_5
REMARK    3  A    between atoms: C_9  and  C_10
REMARK    4  A    between atoms: N_14  and  C_15
REMARK                            x       y       z     vdW  Elec       q    Type
REMARK                         _______ _______ _______ _____ _____    ______ ____
ROOT
ATOM      1  C   UNL     1      -1.290  14.205  21.910  0.00  0.00    +0.000 C 
ATOM      2  C   UNL     1      -1.466  13.603  23.317  0.00  0.00    +0.000 C 
ATOM      3  C   UNL     1      -2.335  12.340  23.380  0.00  0.00    +0.000 C 
ATOM      4  C   UNL     1      -3.590  12.372  22.486  0.00  0.00    +0.000 C 
ATOM      5  N   UNL     1      -3.249  12.899  21.167  0.00  0.00    +0.000 N 
ATOM      6  C   UNL     1      -2.650  14.257  21.212  0.00  0.00    +0.000 C 
ENDROOT
BRANCH   5   7
ATOM      7  C   UNL     1      -3.890  12.675  19.958  0.00  0.00    +0.000 A 
ATOM      8  N   UNL     1      -5.115  13.241  19.908  0.00  0.00    +0.000 NA
ATOM      9  C   UNL     1      -5.899  12.994  18.860  0.00  0.00    +0.000 A 
ATOM     10  N   UNL     1      -5.596  12.179  17.856  0.00  0.00    +0.000 NA
ATOM     11  C   UNL     1      -4.376  11.644  17.878  0.00  0.00    +0.000 A 
ATOM     12  C   UNL     1      -4.066  10.753  16.865  0.00  0.00    +0.000 A 
ATOM     13  C   UNL     1      -2.808  10.171  16.781  0.00  0.00    +0.000 A 
ATOM     14  F   UNL     1      -2.557   9.272  15.821  0.00  0.00    +0.000 F 
ATOM     15  C   UNL     1      -1.824  10.515  17.685  0.00  0.00    +0.000 A 
ATOM     16  F   UNL     1      -0.588  10.010  17.579  0.00  0.00    +0.000 F 
ATOM     17  C   UNL     1      -2.115  11.376  18.729  0.00  0.00    +0.000 A 
ATOM     18  C   UNL     1      -3.415  11.917  18.878  0.00  0.00    +0.000 A 
ENDBRANCH   5   7
BRANCH   1  23
ATOM     19  C   UNL     1       0.247  13.874  19.743  0.00  0.00    +0.000 A 
ATOM     20  C   UNL     1       1.214  12.945  19.468  0.00  0.00    +0.000 A 
ATOM     21  N   UNL     1       1.344  12.199  20.597  0.00  0.00    +0.000 N 
ATOM     22  N   UNL     1       0.469  12.518  21.567  0.00  0.00    +0.000 NA
ATOM     23  C   UNL     1      -0.215  13.558  21.059  0.00  0.00    +0.000 A 
ATOM     24  H   UNL     1       2.017  11.464  20.780  0.00  0.00    +0.000 HD
BRANCH  19  28
ATOM     25  C   UNL     1      -0.539  17.083  18.016  0.00  0.00    +0.000 C 
ATOM     26  C   UNL     1       0.115  16.261  19.103  0.00  0.00    +0.000 C 
ATOM     27  O   UNL     1       0.822  16.773  19.957  0.00  0.00    +0.000 OA
ATOM     28  N   UNL     1      -0.164  14.922  18.953  0.00  0.00    +0.000 N 
ATOM     29  H   UNL     1      -0.870  14.657  18.275  0.00  0.00    +0.000 HD
ENDBRANCH  19  28
ENDBRANCH   1  23
TORSDOF 3
ENDMDL
MODEL 9
REMARK VINA RESULT:      -7.0      7.922     10.749
REMARK  Name = 
REMARK  4 active torsions:
REMARK  status: ('A' for Active; 'I' for Inactive)
REMARK    1  A    between atoms: C_1  and  C_2
REMARK    2  A    between atoms: N_4  and  C_5
REMARK    3  A    between atoms: C_9  and  C_10
REMARK    4  A    between atoms: N_14  and  C_15
REMARK                            x       y       z     vdW  Elec       q    Type
REMARK                         _______ _______ _______ _____ _____    ______ ____
ROOT
ATOM      1  C   UNL     1      -1.159  13.167  21.863  0.00  0.00    +0.000 C 
ATOM      2  C   UNL     1      -1.672  12.940  23.298  0.00  0.00    +0.000 C 
ATOM      3  C   UNL     1      -3.001  12.180  23.400  0.00  0.00    +0.000 C 
ATOM      4  C   UNL     1      -4.057  12.577  22.349  0.00  0.00    +0.000 C 
ATOM      5  N   UNL     1      -3.434  12.684  21.033  0.00  0.00    +0.000 N 
ATOM      6  C   UNL     1      -2.313  13.658  20.988  0.00  0.00    +0.000 C 
ENDROOT
BRANCH   5   7
ATOM      7  C   UNL     1      -4.024  12.545  19.786  0.00  0.00    +0.000 A 
ATOM      8  N   UNL     1      -5.216  13.174  19.703  0.00  0.00    +0.000 NA
ATOM      9  C   UNL     1      -5.958  13.012  18.610  0.00  0.00    +0.000 A 
ATOM     10  N   UNL     1      -5.645  12.226  17.585  0.00  0.00    +0.000 NA
ATOM     11  C   UNL     1      -4.456  11.629  17.641  0.00  0.00    +0.000 A 
ATOM     12  C   UNL     1      -4.140  10.767  16.605  0.00  0.00    +0.000 A 
ATOM     13  C   UNL     1      -2.909  10.126  16.555  0.00  0.00    +0.000 A 
ATOM     14  F   UNL     1      -2.655   9.256  15.569  0.00  0.00    +0.000 F 
ATOM     15  C   UNL     1      -1.955  10.380  17.519  0.00  0.00    +0.000 A 
ATOM     16  F   UNL     1      -0.742   9.818  17.449  0.00  0.00    +0.000 F 
ATOM     17  C   UNL     1      -2.255  11.210  18.585  0.00  0.00    +0.000 A 
ATOM     18  C   UNL     1      -3.533  11.810  18.696  0.00  0.00    +0.000 A 
ENDBRANCH   5   7
BRANCH   1  23
ATOM     19  C   UNL     1       0.681  11.974  20.328  0.00  0.00    +0.000 A 
ATOM     20  C   UNL     1       0.933  10.647  20.106  0.00  0.00    +0.000 A 
ATOM     21  N   UNL     1       0.083   9.966  20.919  0.00  0.00    +0.000 N 
ATOM     22  N   UNL     1      -0.770  10.751  21.599  0.00  0.00    +0.000 NA
ATOM     23  C   UNL     1      -0.411  11.999  21.251  0.00  0.00    +0.000 A 
ATOM     24  H   UNL     1       0.039   8.964  21.069  0.00  0.00    +0.000 HD
BRANCH  19  28
ATOM     25  C   UNL     1       2.006  14.985  18.573  0.00  0.00    +0.000 C 
ATOM     26  C   UNL     1       0.954  13.932  18.840  0.00  0.00    +0.000 C 
ATOM     27  O   UNL     1      -0.119  13.934  18.254  0.00  0.00    +0.000 OA
ATOM     28  N   UNL     1       1.360  13.057  19.821  0.00  0.00    +0.000 N 
ATOM     29  H   UNL     1       2.326  13.100  20.125  0.00  0.00    +0.000 HD
ENDBRANCH  19  28
ENDBRANCH   1  23
TORSDOF 3
ENDMDL
