MODEL 1
REMARK VINA RESULT:      -8.3      0.000      0.000
REMARK  Name = 
REMARK  5 active torsions:
REMARK  status: ('A' for Active; 'I' for Inactive)
REMARK    1  A    between atoms: C_2  and  C_18
REMARK    2  A    between atoms: N_3  and  C_4
REMARK    3  A    between atoms: C_4  and  C_5
REMARK    4  A    between atoms: C_8  and  C_9
REMARK    5  A    between atoms: C_12  and  O_13
REMARK                            x       y       z     vdW  Elec       q    Type
REMARK                         _______ _______ _______ _____ _____    ______ ____
ROOT
ATOM      1  C   UNL     1       0.283  10.774  20.024  0.00  0.00    +0.000 C 
ENDROOT
BRANCH   1   2
ATOM      2  C   UNL     1       1.079   9.620  19.483  0.00  0.00    +0.000 A 
ATOM      3  C   UNL     1       1.397   8.519  20.286  0.00  0.00    +0.000 A 
ATOM      4  C   UNL     1       2.113   7.437  19.761  0.00  0.00    +0.000 A 
ATOM      5  C   UNL     1       2.553   7.431  18.429  0.00  0.00    +0.000 A 
ATOM      6  C   UNL     1       2.237   8.550  17.643  0.00  0.00    +0.000 A 
ATOM      7  C   UNL     1       1.524   9.633  18.158  0.00  0.00    +0.000 A 
BRANCH   5   8
ATOM      8  C   UNL     1       3.348   6.313  17.874  0.00  0.00    +0.000 A 
ATOM      9  C   UNL     1       2.926   4.976  17.964  0.00  0.00    +0.000 A 
ATOM     10  C   UNL     1       3.691   3.933  17.433  0.00  0.00    +0.000 A 
ATOM     11  C   UNL     1       4.891   4.225  16.795  0.00  0.00    +0.000 A 
ATOM     12  C   UNL     1       5.335   5.530  16.683  0.00  0.00    +0.000 A 
ATOM     13  C   UNL     1       4.574   6.562  17.228  0.00  0.00    +0.000 A 
BRANCH  11  14
ATOM     14  O   UNL     1       5.671   3.245  16.260  0.00  0.00    +0.000 OA
ATOM     15  H   UNL     1       6.503   3.643  15.964  0.00  0.00    +0.000 HD
ENDBRANCH  11  14
ENDBRANCH   5   8
ENDBRANCH   1   2
BRANCH   1  18
ATOM     16  O   UNL     1       1.985  12.687  21.107  0.00  0.00    +0.000 OA
ATOM     17  C   UNL     1       1.502  12.889  20.001  0.00  0.00    +0.000 C 
ATOM     18  N   UNL     1       0.642  12.013  19.380  0.00  0.00    +0.000 N 
ATOM     19  H   UNL     1       0.477  12.088  18.388  0.00  0.00    +0.000 HD
BRANCH  17  20
ATOM     20  C   UNL     1       1.862  14.106  19.202  0.00  0.00    +0.000 A 
ATOM     21  C   UNL     1       3.125  14.137  18.454  0.00  0.00    +0.000 A 
ATOM     22  C   UNL     1       3.512  15.220  17.751  0.00  0.00    +0.000 A 
ATOM     23  C   UNL     1       2.685  16.374  17.738  0.00  0.00    +0.000 A 
ATOM     24  N   UNL     1       2.790  17.552  17.162  0.00  0.00    +0.000 NA
ATOM     25  N   UNL     1       1.684  18.296  17.520  0.00  0.00    +0.000 NA
ATOM     26  C   UNL     1       0.936  17.553  18.304  0.00  0.00    +0.000 A 
ATOM     27  N   UNL     1       1.513  16.325  18.471  0.00  0.00    +0.000 N 
ATOM     28  C   UNL     1       1.094  15.217  19.200  0.00  0.00    +0.000 A 
ENDBRANCH  17  20
ENDBRANCH   1  18
TORSDOF 5
ENDMDL
MODEL 2
REMARK VINA RESULT:      -8.1      3.705      5.380
REMARK  Name = 
REMARK  5 active torsions:
REMARK  status: ('A' for Active; 'I' for Inactive)
REMARK    1  A    between atoms: C_2  and  C_18
REMARK    2  A    between atoms: N_3  and  C_4
REMARK    3  A    between atoms: C_4  and  C_5
REMARK    4  A    between atoms: C_8  and  C_9
REMARK    5  A    between atoms: C_12  and  O_13
REMARK                            x       y       z     vdW  Elec       q    Type
REMARK                         _______ _______ _______ _____ _____    ______ ____
ROOT
ATOM      1  C   UNL     1       0.583  10.929  18.808  0.00  0.00    +0.000 C 
ENDROOT
BRANCH   1   2
ATOM      2  C   UNL     1       1.242   9.584  18.945  0.00  0.00    +0.000 A 
ATOM      3  C   UNL     1       1.936   9.005  17.877  0.00  0.00    +0.000 A 
ATOM      4  C   UNL     1       2.570   7.766  18.027  0.00  0.00    +0.000 A 
ATOM      5  C   UNL     1       2.512   7.060  19.237  0.00  0.00    +0.000 A 
ATOM      6  C   UNL     1       1.800   7.650  20.293  0.00  0.00    +0.000 A 
ATOM      7  C   UNL     1       1.164   8.884  20.152  0.00  0.00    +0.000 A 
BRANCH   5   8
ATOM      8  C   UNL     1       3.142   5.730  19.396  0.00  0.00    +0.000 A 
ATOM      9  C   UNL     1       2.481   4.655  20.012  0.00  0.00    +0.000 A 
ATOM     10  C   UNL     1       3.094   3.407  20.153  0.00  0.00    +0.000 A 
ATOM     11  C   UNL     1       4.381   3.221  19.664  0.00  0.00    +0.000 A 
ATOM     12  C   UNL     1       5.061   4.255  19.046  0.00  0.00    +0.000 A 
ATOM     13  C   UNL     1       4.449   5.501  18.925  0.00  0.00    +0.000 A 
BRANCH  11  14
ATOM     14  O   UNL     1       5.020   2.023  19.774  0.00  0.00    +0.000 OA
ATOM     15  H   UNL     1       4.353   1.324  19.839  0.00  0.00    +0.000 HD
ENDBRANCH  11  14
ENDBRANCH   5   8
ENDBRANCH   1   2
BRANCH   1  18
ATOM     16  O   UNL     1      -1.102  13.135  18.966  0.00  0.00    +0.000 OA
ATOM     17  C   UNL     1      -1.161  12.286  19.845  0.00  0.00    +0.000 C 
ATOM     18  N   UNL     1      -0.366  11.164  19.867  0.00  0.00    +0.000 N 
ATOM     19  H   UNL     1      -0.619  10.379  20.449  0.00  0.00    +0.000 HD
BRANCH  17  20
ATOM     20  C   UNL     1      -2.163  12.383  20.958  0.00  0.00    +0.000 A 
ATOM     21  C   UNL     1      -1.736  12.145  22.342  0.00  0.00    +0.000 A 
ATOM     22  C   UNL     1      -2.603  12.184  23.372  0.00  0.00    +0.000 A 
ATOM     23  C   UNL     1      -3.975  12.451  23.120  0.00  0.00    +0.000 A 
ATOM     24  N   UNL     1      -5.032  12.549  23.896  0.00  0.00    +0.000 NA
ATOM     25  N   UNL     1      -6.123  12.806  23.091  0.00  0.00    +0.000 NA
ATOM     26  C   UNL     1      -5.702  12.856  21.847  0.00  0.00    +0.000 A 
ATOM     27  N   UNL     1      -4.352  12.647  21.804  0.00  0.00    +0.000 N 
ATOM     28  C   UNL     1      -3.473  12.614  20.727  0.00  0.00    +0.000 A 
ENDBRANCH  17  20
ENDBRANCH   1  18
TORSDOF 5
ENDMDL
MODEL 3
REMARK VINA RESULT:      -8.0      3.451      5.239
REMARK  Name = 
REMARK  5 active torsions:
REMARK  status: ('A' for Active; 'I' for Inactive)
REMARK    1  A    between atoms: C_2  and  C_18
REMARK    2  A    between atoms: N_3  and  C_4
REMARK    3  A    between atoms: C_4  and  C_5
REMARK    4  A    between atoms: C_8  and  C_9
REMARK    5  A    between atoms: C_12  and  O_13
REMARK                            x       y       z     vdW  Elec       q    Type
REMARK                         _______ _______ _______ _____ _____    ______ ____
ROOT
ATOM      1  C   UNL     1       1.031  11.424  19.131  0.00  0.00    +0.000 C 
ENDROOT
BRANCH   1   2
ATOM      2  C   UNL     1       1.475   9.991  19.037  0.00  0.00    +0.000 A 
ATOM      3  C   UNL     1       1.345   9.120  20.124  0.00  0.00    +0.000 A 
ATOM      4  C   UNL     1       1.734   7.780  20.014  0.00  0.00    +0.000 A 
ATOM      5  C   UNL     1       2.285   7.276  18.826  0.00  0.00    +0.000 A 
ATOM      6  C   UNL     1       2.420   8.168  17.751  0.00  0.00    +0.000 A 
ATOM      7  C   UNL     1       2.035   9.505  17.852  0.00  0.00    +0.000 A 
BRANCH   5   8
ATOM      8  C   UNL     1       2.739   5.872  18.711  0.00  0.00    +0.000 A 
ATOM      9  C   UNL     1       2.053   4.923  17.936  0.00  0.00    +0.000 A 
ATOM     10  C   UNL     1       2.498   3.601  17.839  0.00  0.00    +0.000 A 
ATOM     11  C   UNL     1       3.650   3.219  18.516  0.00  0.00    +0.000 A 
ATOM     12  C   UNL     1       4.355   4.128  19.285  0.00  0.00    +0.000 A 
ATOM     13  C   UNL     1       3.895   5.440  19.388  0.00  0.00    +0.000 A 
BRANCH  11  14
ATOM     14  O   UNL     1       4.126   1.945  18.453  0.00  0.00    +0.000 OA
ATOM     15  H   UNL     1       5.093   1.980  18.409  0.00  0.00    +0.000 HD
ENDBRANCH  11  14
ENDBRANCH   5   8
ENDBRANCH   1   2
BRANCH   1  18
ATOM     16  O   UNL     1       0.537  12.632  21.586  0.00  0.00    +0.000 OA
ATOM     17  C   UNL     1      -0.406  12.163  20.961  0.00  0.00    +0.000 C 
ATOM     18  N   UNL     1      -0.269  11.537  19.744  0.00  0.00    +0.000 N 
ATOM     19  H   UNL     1      -1.076  11.401  19.155  0.00  0.00    +0.000 HD
BRANCH  17  20
ATOM     20  C   UNL     1      -1.814  12.288  21.463  0.00  0.00    +0.000 A 
ATOM     21  C   UNL     1      -2.891  12.625  20.524  0.00  0.00    +0.000 A 
ATOM     22  C   UNL     1      -4.167  12.785  20.931  0.00  0.00    +0.000 A 
ATOM     23  C   UNL     1      -4.484  12.635  22.306  0.00  0.00    +0.000 A 
ATOM     24  N   UNL     1      -5.605  12.729  22.989  0.00  0.00    +0.000 NA
ATOM     25  N   UNL     1      -5.310  12.502  24.317  0.00  0.00    +0.000 NA
ATOM     26  C   UNL     1      -4.018  12.278  24.409  0.00  0.00    +0.000 A 
ATOM     27  N   UNL     1      -3.445  12.341  23.171  0.00  0.00    +0.000 N 
ATOM     28  C   UNL     1      -2.124  12.169  22.772  0.00  0.00    +0.000 A 
ENDBRANCH  17  20
ENDBRANCH   1  18
TORSDOF 5
ENDMDL
MODEL 4
REMARK VINA RESULT:      -8.0      1.122      1.893
REMARK  Name = 
REMARK  5 active torsions:
REMARK  status: ('A' for Active; 'I' for Inactive)
REMARK    1  A    between atoms: C_2  and  C_18
REMARK    2  A    between atoms: N_3  and  C_4
REMARK    3  A    between atoms: C_4  and  C_5
REMARK    4  A    between atoms: C_8  and  C_9
REMARK    5  A    between atoms: C_12  and  O_13
REMARK                            x       y       z     vdW  Elec       q    Type
REMARK                         _______ _______ _______ _____ _____    ______ ____
ROOT
ATOM      1  C   UNL     1       0.291  10.397  20.171  0.00  0.00    +0.000 C 
ENDROOT
BRANCH   1   2
ATOM      2  C   UNL     1       1.127   9.320  19.537  0.00  0.00    +0.000 A 
ATOM      3  C   UNL     1       1.543   9.416  18.204  0.00  0.00    +0.000 A 
ATOM      4  C   UNL     1       2.346   8.421  17.635  0.00  0.00    +0.000 A 
ATOM      5  C   UNL     1       2.739   7.292  18.370  0.00  0.00    +0.000 A 
ATOM      6  C   UNL     1       2.302   7.207  19.701  0.00  0.00    +0.000 A 
ATOM      7  C   UNL     1       1.500   8.194  20.276  0.00  0.00    +0.000 A 
BRANCH   5   8
ATOM      8  C   UNL     1       3.553   6.213  17.768  0.00  0.00    +0.000 A 
ATOM      9  C   UNL     1       3.313   4.855  18.035  0.00  0.00    +0.000 A 
ATOM     10  C   UNL     1       4.094   3.850  17.456  0.00  0.00    +0.000 A 
ATOM     11  C   UNL     1       5.123   4.200  16.590  0.00  0.00    +0.000 A 
ATOM     12  C   UNL     1       5.385   5.527  16.300  0.00  0.00    +0.000 A 
ATOM     13  C   UNL     1       4.612   6.524  16.894  0.00  0.00    +0.000 A 
BRANCH  11  14
ATOM     14  O   UNL     1       5.910   3.258  15.999  0.00  0.00    +0.000 OA
ATOM     15  H   UNL     1       6.722   3.166  16.520  0.00  0.00    +0.000 HD
ENDBRANCH  11  14
ENDBRANCH   5   8
ENDBRANCH   1   2
BRANCH   1  18
ATOM     16  O   UNL     1      -1.108  12.296  18.697  0.00  0.00    +0.000 OA
ATOM     17  C   UNL     1       0.007  12.581  19.116  0.00  0.00    +0.000 C 
ATOM     18  N   UNL     1       0.785  11.712  19.845  0.00  0.00    +0.000 N 
ATOM     19  H   UNL     1       1.565  12.063  20.380  0.00  0.00    +0.000 HD
BRANCH  17  20
ATOM     20  C   UNL     1       0.595  13.944  18.906  0.00  0.00    +0.000 A 
ATOM     21  C   UNL     1      -0.272  15.128  18.974  0.00  0.00    +0.000 A 
ATOM     22  C   UNL     1       0.201  16.371  18.757  0.00  0.00    +0.000 A 
ATOM     23  C   UNL     1       1.573  16.550  18.439  0.00  0.00    +0.000 A 
ATOM     24  N   UNL     1       2.307  17.610  18.179  0.00  0.00    +0.000 NA
ATOM     25  N   UNL     1       3.591  17.178  17.916  0.00  0.00    +0.000 NA
ATOM     26  C   UNL     1       3.604  15.868  18.021  0.00  0.00    +0.000 A 
ATOM     27  N   UNL     1       2.360  15.415  18.358  0.00  0.00    +0.000 N 
ATOM     28  C   UNL     1       1.893  14.125  18.582  0.00  0.00    +0.000 A 
ENDBRANCH  17  20
ENDBRANCH   1  18
TORSDOF 5
ENDMDL
MODEL 5
REMARK VINA RESULT:      -8.0      3.999      5.178
REMARK  Name = 
REMARK  5 active torsions:
REMARK  status: ('A' for Active; 'I' for Inactive)
REMARK    1  A    between atoms: C_2  and  C_18
REMARK    2  A    between atoms: N_3  and  C_4
REMARK    3  A    between atoms: C_4  and  C_5
REMARK    4  A    between atoms: C_8  and  C_9
REMARK    5  A    between atoms: C_12  and  O_13
REMARK                            x       y       z     vdW  Elec       q    Type
REMARK                         _______ _______ _______ _____ _____    ______ ____
ROOT
ATOM      1  C   UNL     1       1.100  10.078  19.866  0.00  0.00    +0.000 C 
ENDROOT
BRANCH   1   2
ATOM      2  C   UNL     1       1.538   8.664  19.607  0.00  0.00    +0.000 A 
ATOM      3  C   UNL     1       2.040   8.277  18.360  0.00  0.00    +0.000 A 
ATOM      4  C   UNL     1       2.473   6.964  18.141  0.00  0.00    +0.000 A 
ATOM      5  C   UNL     1       2.395   5.994  19.151  0.00  0.00    +0.000 A 
ATOM      6  C   UNL     1       1.876   6.396  20.391  0.00  0.00    +0.000 A 
ATOM      7  C   UNL     1       1.442   7.703  20.618  0.00  0.00    +0.000 A 
BRANCH   5   8
ATOM      8  C   UNL     1       2.810   4.591  18.920  0.00  0.00    +0.000 A 
ATOM      9  C   UNL     1       2.288   3.819  17.869  0.00  0.00    +0.000 A 
ATOM     10  C   UNL     1       2.692   2.496  17.668  0.00  0.00    +0.000 A 
ATOM     11  C   UNL     1       3.637   1.935  18.518  0.00  0.00    +0.000 A 
ATOM     12  C   UNL     1       4.176   2.667  19.561  0.00  0.00    +0.000 A 
ATOM     13  C   UNL     1       3.756   3.981  19.765  0.00  0.00    +0.000 A 
BRANCH  11  14
ATOM     14  O   UNL     1       4.065   0.651  18.362  0.00  0.00    +0.000 OA
ATOM     15  H   UNL     1       4.972   0.669  18.022  0.00  0.00    +0.000 HD
ENDBRANCH  11  14
ENDBRANCH   5   8
ENDBRANCH   1   2
BRANCH   1  18
ATOM     16  O   UNL     1       0.113  12.345  18.592  0.00  0.00    +0.000 OA
ATOM     17  C   UNL     1      -0.663  11.438  18.862  0.00  0.00    +0.000 C 
ATOM     18  N   UNL     1      -0.280  10.280  19.500  0.00  0.00    +0.000 N 
ATOM     19  H   UNL     1      -0.879   9.469  19.471  0.00  0.00    +0.000 HD
BRANCH  17  20
ATOM     20  C   UNL     1      -2.107  11.501  18.463  0.00  0.00    +0.000 A 
ATOM     21  C   UNL     1      -2.512  11.048  17.126  0.00  0.00    +0.000 A 
ATOM     22  C   UNL     1      -3.790  11.119  16.706  0.00  0.00    +0.000 A 
ATOM     23  C   UNL     1      -4.780  11.656  17.571  0.00  0.00    +0.000 A 
ATOM     24  N   UNL     1      -6.075  11.852  17.448  0.00  0.00    +0.000 NA
ATOM     25  N   UNL     1      -6.526  12.434  18.615  0.00  0.00    +0.000 NA
ATOM     26  C   UNL     1      -5.494  12.578  19.417  0.00  0.00    +0.000 A 
ATOM     27  N   UNL     1      -4.366  12.097  18.815  0.00  0.00    +0.000 N 
ATOM     28  C   UNL     1      -3.053  12.030  19.269  0.00  0.00    +0.000 A 
ENDBRANCH  17  20
ENDBRANCH   1  18
TORSDOF 5
ENDMDL
MODEL 6
REMARK VINA RESULT:      -8.0      3.958      5.586
REMARK  Name = 
REMARK  5 active torsions:
REMARK  status: ('A' for Active; 'I' for Inactive)
REMARK    1  A    between atoms: C_2  and  C_18
REMARK    2  A    between atoms: N_3  and  C_4
REMARK    3  A    between atoms: C_4  and  C_5
REMARK    4  A    between atoms: C_8  and  C_9
REMARK    5  A    between atoms: C_12  and  O_13
REMARK                            x       y       z     vdW  Elec       q    Type
REMARK                         _______ _______ _______ _____ _____    ______ ____
ROOT
ATOM      1  C   UNL     1       0.676  10.978  18.916  0.00  0.00    +0.000 C 
ENDROOT
BRANCH   1   2
ATOM      2  C   UNL     1       1.301   9.615  19.037  0.00  0.00    +0.000 A 
ATOM      3  C   UNL     1       1.999   9.041  17.969  0.00  0.00    +0.000 A 
ATOM      4  C   UNL     1       2.601   7.785  18.104  0.00  0.00    +0.000 A 
ATOM      5  C   UNL     1       2.505   7.056  19.299  0.00  0.00    +0.000 A 
ATOM      6  C   UNL     1       1.789   7.642  20.355  0.00  0.00    +0.000 A 
ATOM      7  C   UNL     1       1.185   8.893  20.228  0.00  0.00    +0.000 A 
BRANCH   5   8
ATOM      8  C   UNL     1       3.101   5.708  19.441  0.00  0.00    +0.000 A 
ATOM      9  C   UNL     1       2.451   4.669  20.127  0.00  0.00    +0.000 A 
ATOM     10  C   UNL     1       3.031   3.403  20.250  0.00  0.00    +0.000 A 
ATOM     11  C   UNL     1       4.272   3.163  19.675  0.00  0.00    +0.000 A 
ATOM     12  C   UNL     1       4.940   4.161  18.988  0.00  0.00    +0.000 A 
ATOM     13  C   UNL     1       4.362   5.425  18.883  0.00  0.00    +0.000 A 
BRANCH  11  14
ATOM     14  O   UNL     1       4.878   1.946  19.765  0.00  0.00    +0.000 OA
ATOM     15  H   UNL     1       4.282   1.341  20.230  0.00  0.00    +0.000 HD
ENDBRANCH  11  14
ENDBRANCH   5   8
ENDBRANCH   1   2
BRANCH   1  18
ATOM     16  O   UNL     1      -1.076  13.111  19.249  0.00  0.00    +0.000 OA
ATOM     17  C   UNL     1      -1.534  12.014  18.956  0.00  0.00    +0.000 C 
ATOM     18  N   UNL     1      -0.757  10.893  18.779  0.00  0.00    +0.000 N 
ATOM     19  H   UNL     1      -1.132  10.091  18.296  0.00  0.00    +0.000 HD
BRANCH  17  20
ATOM     20  C   UNL     1      -3.001  11.820  18.713  0.00  0.00    +0.000 A 
ATOM     21  C   UNL     1      -3.455  11.213  17.455  0.00  0.00    +0.000 A 
ATOM     22  C   UNL     1      -4.763  11.051  17.173  0.00  0.00    +0.000 A 
ATOM     23  C   UNL     1      -5.738  11.487  18.108  0.00  0.00    +0.000 A 
ATOM     24  N   UNL     1      -7.053  11.468  18.115  0.00  0.00    +0.000 NA
ATOM     25  N   UNL     1      -7.477  12.054  19.290  0.00  0.00    +0.000 NA
ATOM     26  C   UNL     1      -6.409  12.417  19.965  0.00  0.00    +0.000 A 
ATOM     27  N   UNL     1      -5.282  12.077  19.273  0.00  0.00    +0.000 N 
ATOM     28  C   UNL     1      -3.938  12.251  19.585  0.00  0.00    +0.000 A 
ENDBRANCH  17  20
ENDBRANCH   1  18
TORSDOF 5
ENDMDL
MODEL 7
REMARK VINA RESULT:      -8.0      3.732      5.382
REMARK  Name = 
REMARK  5 active torsions:
REMARK  status: ('A' for Active; 'I' for Inactive)
REMARK    1  A    between atoms: C_2  and  C_18
REMARK    2  A    between atoms: N_3  and  C_4
REMARK    3  A    between atoms: C_4  and  C_5
REMARK    4  A    between atoms: C_8  and  C_9
REMARK    5  A    between atoms: C_12  and  O_13
REMARK                            x       y       z     vdW  Elec       q    Type
REMARK                         _______ _______ _______ _____ _____    ______ ____
ROOT
ATOM      1  C   UNL     1       0.643  10.899  18.685  0.00  0.00    +0.000 C 
ENDROOT
BRANCH   1   2
ATOM      2  C   UNL     1       1.314   9.561  18.827  0.00  0.00    +0.000 A 
ATOM      3  C   UNL     1       2.030   8.994  17.767  0.00  0.00    +0.000 A 
ATOM      4  C   UNL     1       2.675   7.761  17.921  0.00  0.00    +0.000 A 
ATOM      5  C   UNL     1       2.606   7.049  19.128  0.00  0.00    +0.000 A 
ATOM      6  C   UNL     1       1.873   7.627  20.176  0.00  0.00    +0.000 A 
ATOM      7  C   UNL     1       1.226   8.855  20.030  0.00  0.00    +0.000 A 
BRANCH   5   8
ATOM      8  C   UNL     1       3.248   5.725  19.291  0.00  0.00    +0.000 A 
ATOM      9  C   UNL     1       4.548   5.460  18.828  0.00  0.00    +0.000 A 
ATOM     10  C   UNL     1       5.137   4.203  18.991  0.00  0.00    +0.000 A 
ATOM     11  C   UNL     1       4.427   3.196  19.634  0.00  0.00    +0.000 A 
ATOM     12  C   UNL     1       3.147   3.422  20.108  0.00  0.00    +0.000 A 
ATOM     13  C   UNL     1       2.561   4.674  19.927  0.00  0.00    +0.000 A 
BRANCH  11  14
ATOM     14  O   UNL     1       4.958   1.956  19.820  0.00  0.00    +0.000 OA
ATOM     15  H   UNL     1       5.716   1.854  19.226  0.00  0.00    +0.000 HD
ENDBRANCH  11  14
ENDBRANCH   5   8
ENDBRANCH   1   2
BRANCH   1  18
ATOM     16  O   UNL     1      -1.745  12.325  18.657  0.00  0.00    +0.000 OA
ATOM     17  C   UNL     1      -1.306  11.934  19.731  0.00  0.00    +0.000 C 
ATOM     18  N   UNL     1      -0.130  11.230  19.856  0.00  0.00    +0.000 N 
ATOM     19  H   UNL     1       0.059  10.714  20.701  0.00  0.00    +0.000 HD
BRANCH  17  20
ATOM     20  C   UNL     1      -2.060  12.152  21.008  0.00  0.00    +0.000 A 
ATOM     21  C   UNL     1      -1.481  11.701  22.280  0.00  0.00    +0.000 A 
ATOM     22  C   UNL     1      -2.135  11.841  23.450  0.00  0.00    +0.000 A 
ATOM     23  C   UNL     1      -3.427  12.429  23.462  0.00  0.00    +0.000 A 
ATOM     24  N   UNL     1      -4.290  12.691  24.419  0.00  0.00    +0.000 NA
ATOM     25  N   UNL     1      -5.406  13.256  23.837  0.00  0.00    +0.000 NA
ATOM     26  C   UNL     1      -5.194  13.321  22.542  0.00  0.00    +0.000 A 
ATOM     27  N   UNL     1      -3.958  12.822  22.246  0.00  0.00    +0.000 N 
ATOM     28  C   UNL     1      -3.299  12.690  21.028  0.00  0.00    +0.000 A 
ENDBRANCH  17  20
ENDBRANCH   1  18
TORSDOF 5
ENDMDL
MODEL 8
REMARK VINA RESULT:      -8.0      1.123      1.890
REMARK  Name = 
REMARK  5 active torsions:
REMARK  status: ('A' for Active; 'I' for Inactive)
REMARK    1  A    between atoms: C_2  and  C_18
REMARK    2  A    between atoms: N_3  and  C_4
REMARK    3  A    between atoms: C_4  and  C_5
REMARK    4  A    between atoms: C_8  and  C_9
REMARK    5  A    between atoms: C_12  and  O_13
REMARK                            x       y       z     vdW  Elec       q    Type
REMARK                         _______ _______ _______ _____ _____    ______ ____
ROOT
ATOM      1  C   UNL     1       0.282  10.393  20.268  0.00  0.00    +0.000 C 
ENDROOT
BRANCH   1   2
ATOM      2  C   UNL     1       1.131   9.329  19.629  0.00  0.00    +0.000 A 
ATOM      3  C   UNL     1       1.523   8.190  20.342  0.00  0.00    +0.000 A 
ATOM      4  C   UNL     1       2.288   7.193  19.726  0.00  0.00    +0.000 A 
ATOM      5  C   UNL     1       2.703   7.312  18.391  0.00  0.00    +0.000 A 
ATOM      6  C   UNL     1       2.311   8.467  17.697  0.00  0.00    +0.000 A 
ATOM      7  C   UNL     1       1.549   9.467  18.303  0.00  0.00    +0.000 A 
BRANCH   5   8
ATOM      8  C   UNL     1       3.548   6.285  17.741  0.00  0.00    +0.000 A 
ATOM      9  C   UNL     1       4.684   6.617  16.985  0.00  0.00    +0.000 A 
ATOM     10  C   UNL     1       5.469   5.632  16.379  0.00  0.00    +0.000 A 
ATOM     11  C   UNL     1       5.124   4.295  16.535  0.00  0.00    +0.000 A 
ATOM     12  C   UNL     1       4.015   3.930  17.277  0.00  0.00    +0.000 A 
ATOM     13  C   UNL     1       3.229   4.920  17.865  0.00  0.00    +0.000 A 
BRANCH  11  14
ATOM     14  O   UNL     1       5.858   3.298  15.966  0.00  0.00    +0.000 OA
ATOM     15  H   UNL     1       6.400   3.680  15.260  0.00  0.00    +0.000 HD
ENDBRANCH  11  14
ENDBRANCH   5   8
ENDBRANCH   1   2
BRANCH   1  18
ATOM     16  O   UNL     1      -0.921  12.141  18.472  0.00  0.00    +0.000 OA
ATOM     17  C   UNL     1       0.090  12.505  19.058  0.00  0.00    +0.000 C 
ATOM     18  N   UNL     1       0.767  11.715  19.958  0.00  0.00    +0.000 N 
ATOM     19  H   UNL     1       1.426  12.132  20.598  0.00  0.00    +0.000 HD
BRANCH  17  20
ATOM     20  C   UNL     1       0.645  13.886  18.875  0.00  0.00    +0.000 A 
ATOM     21  C   UNL     1      -0.245  15.048  18.989  0.00  0.00    +0.000 A 
ATOM     22  C   UNL     1       0.197  16.306  18.797  0.00  0.00    +0.000 A 
ATOM     23  C   UNL     1       1.560  16.523  18.461  0.00  0.00    +0.000 A 
ATOM     24  N   UNL     1       2.267  17.605  18.218  0.00  0.00    +0.000 NA
ATOM     25  N   UNL     1       3.555  17.209  17.921  0.00  0.00    +0.000 NA
ATOM     26  C   UNL     1       3.597  15.897  17.991  0.00  0.00    +0.000 A 
ATOM     27  N   UNL     1       2.369  15.409  18.337  0.00  0.00    +0.000 N 
ATOM     28  C   UNL     1       1.934  14.102  18.534  0.00  0.00    +0.000 A 
ENDBRANCH  17  20
ENDBRANCH   1  18
TORSDOF 5
ENDMDL
MODEL 9
REMARK VINA RESULT:      -7.9      4.055      4.931
REMARK  Name = 
REMARK  5 active torsions:
REMARK  status: ('A' for Active; 'I' for Inactive)
REMARK    1  A    between atoms: C_2  and  C_18
REMARK    2  A    between atoms: N_3  and  C_4
REMARK    3  A    between atoms: C_4  and  C_5
REMARK    4  A    between atoms: C_8  and  C_9
REMARK    5  A    between atoms: C_12  and  O_13
REMARK                            x       y       z     vdW  Elec       q    Type
REMARK                         _______ _______ _______ _____ _____    ______ ____
ROOT
ATOM      1  C   UNL     1       0.734   9.473  20.610  0.00  0.00    +0.000 C 
ENDROOT
BRANCH   1   2
ATOM      2  C   UNL     1       1.572   8.585  19.733  0.00  0.00    +0.000 A 
ATOM      3  C   UNL     1       1.930   8.975  18.438  0.00  0.00    +0.000 A 
ATOM      4  C   UNL     1       2.736   8.152  17.643  0.00  0.00    +0.000 A 
ATOM      5  C   UNL     1       3.189   6.907  18.107  0.00  0.00    +0.000 A 
ATOM      6  C   UNL     1       2.809   6.527  19.404  0.00  0.00    +0.000 A 
ATOM      7  C   UNL     1       2.004   7.341  20.202  0.00  0.00    +0.000 A 
BRANCH   5   8
ATOM      8  C   UNL     1       4.006   6.009  17.261  0.00  0.00    +0.000 A 
ATOM      9  C   UNL     1       4.915   6.498  16.309  0.00  0.00    +0.000 A 
ATOM     10  C   UNL     1       5.678   5.633  15.519  0.00  0.00    +0.000 A 
ATOM     11  C   UNL     1       5.543   4.260  15.685  0.00  0.00    +0.000 A 
ATOM     12  C   UNL     1       4.662   3.743  16.618  0.00  0.00    +0.000 A 
ATOM     13  C   UNL     1       3.893   4.612  17.390  0.00  0.00    +0.000 A 
BRANCH  11  14
ATOM     14  O   UNL     1       6.265   3.376  14.942  0.00  0.00    +0.000 OA
ATOM     15  H   UNL     1       6.976   3.860  14.495  0.00  0.00    +0.000 HD
ENDBRANCH  11  14
ENDBRANCH   5   8
ENDBRANCH   1   2
BRANCH   1  18
ATOM     16  O   UNL     1       0.067  11.973  19.591  0.00  0.00    +0.000 OA
ATOM     17  C   UNL     1      -0.750  11.066  19.505  0.00  0.00    +0.000 C 
ATOM     18  N   UNL     1      -0.525   9.797  19.985  0.00  0.00    +0.000 N 
ATOM     19  H   UNL     1      -1.101   9.031  19.671  0.00  0.00    +0.000 HD
BRANCH  17  20
ATOM     20  C   UNL     1      -2.064  11.263  18.808  0.00  0.00    +0.000 A 
ATOM     21  C   UNL     1      -2.221  10.819  17.417  0.00  0.00    +0.000 A 
ATOM     22  C   UNL     1      -3.369  11.006  16.735  0.00  0.00    +0.000 A 
ATOM     23  C   UNL     1      -4.458  11.661  17.368  0.00  0.00    +0.000 A 
ATOM     24  N   UNL     1      -5.671  11.981  16.973  0.00  0.00    +0.000 NA
ATOM     25  N   UNL     1      -6.296  12.634  18.016  0.00  0.00    +0.000 NA
ATOM     26  C   UNL     1      -5.447  12.695  19.017  0.00  0.00    +0.000 A 
ATOM     27  N   UNL     1      -4.273  12.089  18.670  0.00  0.00    +0.000 N 
ATOM     28  C   UNL     1      -3.099  11.904  19.393  0.00  0.00    +0.000 A 
ENDBRANCH  17  20
ENDBRANCH   1  18
TORSDOF 5
ENDMDL
