MODEL 1
REMARK VINA RESULT:      -8.1      0.000      0.000
REMARK  Name = 
REMARK  5 active torsions:
REMARK  status: ('A' for Active; 'I' for Inactive)
REMARK    1  A    between atoms: C_1  and  O_2
REMARK    2  A    between atoms: O_2  and  C_3
REMARK    3  A    between atoms: C_7  and  N_8
REMARK    4  A    between atoms: C_9  and  C_11
REMARK    5  A    between atoms: C_11  and  N_12
REMARK                            x       y       z     vdW  Elec       q    Type
REMARK                         _______ _______ _______ _____ _____    ______ ____
ROOT
ATOM      1  N   UNL     1       6.288   4.503  16.930  0.00  0.00    +0.000 N 
ATOM      2  C   UNL     1       7.019   4.470  18.088  0.00  0.00    +0.000 C 
ATOM      3  O   UNL     1       8.223   4.610  18.223  0.00  0.00    +0.000 OA
ATOM      4  N   UNL     1       6.131   4.429  19.157  0.00  0.00    +0.000 N 
ATOM      5  C   UNL     1       4.831   4.924  18.713  0.00  0.00    +0.000 C 
ATOM      6  C   UNL     1       4.925   6.492  18.741  0.00  0.00    +0.000 C 
ATOM      7  C   UNL     1       4.103   7.248  17.699  0.00  0.00    +0.000 C 
ATOM      8  C   UNL     1       2.644   7.398  18.030  0.00  0.00    +0.000 C 
ATOM      9  C   UNL     1       1.975   6.232  18.766  0.00  0.00    +0.000 C 
ATOM     10  C   UNL     1       2.422   4.975  19.562  0.00  0.00    +0.000 A 
ATOM     11  C   UNL     1       1.405   4.451  20.401  0.00  0.00    +0.000 A 
ATOM     12  C   UNL     1       1.593   3.283  21.125  0.00  0.00    +0.000 A 
ATOM     13  C   UNL     1       2.785   2.590  20.982  0.00  0.00    +0.000 A 
ATOM     14  C   UNL     1       3.807   3.106  20.175  0.00  0.00    +0.000 A 
ATOM     15  C   UNL     1       3.671   4.336  19.486  0.00  0.00    +0.000 A 
ATOM     16  C   UNL     1       4.952   4.462  17.250  0.00  0.00    +0.000 C 
ATOM     17  O   UNL     1       4.059   4.320  16.422  0.00  0.00    +0.000 OA
ATOM     18  H   UNL     1       6.505   4.626  20.087  0.00  0.00    +0.000 HD
ENDROOT
BRANCH   1  19
ATOM     19  C   UNL     1       6.704   5.340  15.834  0.00  0.00    +0.000 C 
BRANCH  19  21
ATOM     20  N   UNL     1       5.563   3.938  14.153  0.00  0.00    +0.000 N 
ATOM     21  C   UNL     1       6.630   4.773  14.438  0.00  0.00    +0.000 C 
ATOM     22  O   UNL     1       7.404   5.252  13.602  0.00  0.00    +0.000 OA
ATOM     23  H   UNL     1       4.825   3.871  14.842  0.00  0.00    +0.000 HD
BRANCH  20  28
ATOM     24  C   UNL     1       5.770   1.703  11.170  0.00  0.00    +0.000 A 
ATOM     25  C   UNL     1       4.748   2.227  10.379  0.00  0.00    +0.000 A 
ATOM     26  C   UNL     1       4.041   3.341  10.807  0.00  0.00    +0.000 A 
ATOM     27  C   UNL     1       4.343   3.920  12.030  0.00  0.00    +0.000 A 
ATOM     28  C   UNL     1       5.326   3.381  12.869  0.00  0.00    +0.000 A 
ATOM     29  C   UNL     1       6.064   2.282  12.413  0.00  0.00    +0.000 A 
BRANCH  24  31
ATOM     30  C   UNL     1       6.101  -0.648  11.313  0.00  0.00    +0.000 C 
ATOM     31  O   UNL     1       6.538   0.617  10.811  0.00  0.00    +0.000 OA
ENDBRANCH  24  31
ENDBRANCH  20  28
ENDBRANCH  19  21
ENDBRANCH   1  19
TORSDOF 4
ENDMDL
MODEL 2
REMARK VINA RESULT:      -7.9      1.006      1.664
REMARK  Name = 
REMARK  5 active torsions:
REMARK  status: ('A' for Active; 'I' for Inactive)
REMARK    1  A    between atoms: C_1  and  O_2
REMARK    2  A    between atoms: O_2  and  C_3
REMARK    3  A    between atoms: C_7  and  N_8
REMARK    4  A    between atoms: C_9  and  C_11
REMARK    5  A    between atoms: C_11  and  N_12
REMARK                            x       y       z     vdW  Elec       q    Type
REMARK                         _______ _______ _______ _____ _____    ______ ____
ROOT
ATOM      1  N   UNL     1       6.252   4.560  17.088  0.00  0.00    +0.000 N 
ATOM      2  C   UNL     1       6.938   4.552  18.275  0.00  0.00    +0.000 C 
ATOM      3  O   UNL     1       8.130   4.733  18.458  0.00  0.00    +0.000 OA
ATOM      4  N   UNL     1       6.010   4.482  19.308  0.00  0.00    +0.000 N 
ATOM      5  C   UNL     1       4.713   4.932  18.811  0.00  0.00    +0.000 C 
ATOM      6  C   UNL     1       4.752   6.503  18.839  0.00  0.00    +0.000 C 
ATOM      7  C   UNL     1       3.947   7.229  17.763  0.00  0.00    +0.000 C 
ATOM      8  C   UNL     1       2.471   7.330  18.036  0.00  0.00    +0.000 C 
ATOM      9  C   UNL     1       1.814   6.142  18.747  0.00  0.00    +0.000 C 
ATOM     10  C   UNL     1       2.271   4.902  19.563  0.00  0.00    +0.000 A 
ATOM     11  C   UNL     1       1.240   4.344  20.362  0.00  0.00    +0.000 A 
ATOM     12  C   UNL     1       1.438   3.184  21.095  0.00  0.00    +0.000 A 
ATOM     13  C   UNL     1       2.658   2.532  21.002  0.00  0.00    +0.000 A 
ATOM     14  C   UNL     1       3.693   3.082  20.236  0.00  0.00    +0.000 A 
ATOM     15  C   UNL     1       3.543   4.306  19.539  0.00  0.00    +0.000 A 
ATOM     16  C   UNL     1       4.907   4.473  17.355  0.00  0.00    +0.000 C 
ATOM     17  O   UNL     1       4.054   4.301  16.493  0.00  0.00    +0.000 OA
ATOM     18  H   UNL     1       6.339   4.692  20.252  0.00  0.00    +0.000 HD
ENDROOT
BRANCH   1  19
ATOM     19  C   UNL     1       6.683   5.409  16.008  0.00  0.00    +0.000 C 
BRANCH  19  21
ATOM     20  N   UNL     1       5.717   3.916  14.297  0.00  0.00    +0.000 N 
ATOM     21  C   UNL     1       6.705   4.833  14.614  0.00  0.00    +0.000 C 
ATOM     22  O   UNL     1       7.469   5.367  13.804  0.00  0.00    +0.000 OA
ATOM     23  H   UNL     1       4.961   3.794  14.960  0.00  0.00    +0.000 HD
BRANCH  20  28
ATOM     24  C   UNL     1       4.273   2.942  10.996  0.00  0.00    +0.000 A 
ATOM     25  C   UNL     1       5.360   2.286  10.418  0.00  0.00    +0.000 A 
ATOM     26  C   UNL     1       6.533   2.121  11.138  0.00  0.00    +0.000 A 
ATOM     27  C   UNL     1       6.627   2.625  12.427  0.00  0.00    +0.000 A 
ATOM     28  C   UNL     1       5.571   3.337  13.010  0.00  0.00    +0.000 A 
ATOM     29  C   UNL     1       4.375   3.463  12.294  0.00  0.00    +0.000 A 
BRANCH  24  31
ATOM     30  C   UNL     1       2.949   4.314   9.574  0.00  0.00    +0.000 C 
ATOM     31  O   UNL     1       3.064   3.127  10.362  0.00  0.00    +0.000 OA
ENDBRANCH  24  31
ENDBRANCH  20  28
ENDBRANCH  19  21
ENDBRANCH   1  19
TORSDOF 4
ENDMDL
MODEL 3
REMARK VINA RESULT:      -7.8      7.335      9.895
REMARK  Name = 
REMARK  5 active torsions:
REMARK  status: ('A' for Active; 'I' for Inactive)
REMARK    1  A    between atoms: C_1  and  O_2
REMARK    2  A    between atoms: O_2  and  C_3
REMARK    3  A    between atoms: C_7  and  N_8
REMARK    4  A    between atoms: C_9  and  C_11
REMARK    5  A    between atoms: C_11  and  N_12
REMARK                            x       y       z     vdW  Elec       q    Type
REMARK                         _______ _______ _______ _____ _____    ______ ____
ROOT
ATOM      1  N   UNL     1       8.891  11.156  19.360  0.00  0.00    +0.000 N 
ATOM      2  C   UNL     1       9.079  11.568  20.654  0.00  0.00    +0.000 C 
ATOM      3  O   UNL     1       9.126  10.886  21.663  0.00  0.00    +0.000 OA
ATOM      4  N   UNL     1       9.401  12.921  20.632  0.00  0.00    +0.000 N 
ATOM      5  C   UNL     1       9.896  13.269  19.303  0.00  0.00    +0.000 C 
ATOM      6  C   UNL     1      11.402  12.823  19.265  0.00  0.00    +0.000 C 
ATOM      7  C   UNL     1      11.948  12.364  17.913  0.00  0.00    +0.000 C 
ATOM      8  C   UNL     1      12.325  13.475  16.972  0.00  0.00    +0.000 C 
ATOM      9  C   UNL     1      11.457  14.738  17.007  0.00  0.00    +0.000 C 
ATOM     10  C   UNL     1      10.405  15.377  17.954  0.00  0.00    +0.000 A 
ATOM     11  C   UNL     1      10.217  16.766  17.728  0.00  0.00    +0.000 A 
ATOM     12  C   UNL     1       9.258  17.489  18.422  0.00  0.00    +0.000 A 
ATOM     13  C   UNL     1       8.435  16.825  19.317  0.00  0.00    +0.000 A 
ATOM     14  C   UNL     1       8.623  15.460  19.568  0.00  0.00    +0.000 A 
ATOM     15  C   UNL     1       9.645  14.713  18.931  0.00  0.00    +0.000 A 
ATOM     16  C   UNL     1       9.068  12.232  18.524  0.00  0.00    +0.000 C 
ATOM     17  O   UNL     1       8.812  12.210  17.326  0.00  0.00    +0.000 OA
ATOM     18  H   UNL     1       9.789  13.326  21.486  0.00  0.00    +0.000 HD
ENDROOT
BRANCH   1  19
ATOM     19  C   UNL     1       9.376   9.869  18.932  0.00  0.00    +0.000 C 
BRANCH  19  21
ATOM     20  N   UNL     1       8.470   7.587  18.680  0.00  0.00    +0.000 N 
ATOM     21  C   UNL     1       8.396   8.915  18.296  0.00  0.00    +0.000 C 
ATOM     22  O   UNL     1       7.477   9.418  17.640  0.00  0.00    +0.000 OA
ATOM     23  H   UNL     1       9.071   7.359  19.462  0.00  0.00    +0.000 HD
BRANCH  20  28
ATOM     24  C   UNL     1       6.069   4.729  18.634  0.00  0.00    +0.000 A 
ATOM     25  C   UNL     1       5.719   4.703  17.284  0.00  0.00    +0.000 A 
ATOM     26  C   UNL     1       6.316   5.585  16.395  0.00  0.00    +0.000 A 
ATOM     27  C   UNL     1       7.248   6.502  16.857  0.00  0.00    +0.000 A 
ATOM     28  C   UNL     1       7.576   6.587  18.216  0.00  0.00    +0.000 A 
ATOM     29  C   UNL     1       7.002   5.667  19.100  0.00  0.00    +0.000 A 
BRANCH  24  31
ATOM     30  C   UNL     1       4.243   3.357  19.297  0.00  0.00    +0.000 C 
ATOM     31  O   UNL     1       5.545   3.874  19.579  0.00  0.00    +0.000 OA
ENDBRANCH  24  31
ENDBRANCH  20  28
ENDBRANCH  19  21
ENDBRANCH   1  19
TORSDOF 4
ENDMDL
MODEL 4
REMARK VINA RESULT:      -7.7      7.438      9.876
REMARK  Name = 
REMARK  5 active torsions:
REMARK  status: ('A' for Active; 'I' for Inactive)
REMARK    1  A    between atoms: C_1  and  O_2
REMARK    2  A    between atoms: O_2  and  C_3
REMARK    3  A    between atoms: C_7  and  N_8
REMARK    4  A    between atoms: C_9  and  C_11
REMARK    5  A    between atoms: C_11  and  N_12
REMARK                            x       y       z     vdW  Elec       q    Type
REMARK                         _______ _______ _______ _____ _____    ______ ____
ROOT
ATOM      1  N   UNL     1       8.934  11.310  19.415  0.00  0.00    +0.000 N 
ATOM      2  C   UNL     1       9.131  11.735  20.703  0.00  0.00    +0.000 C 
ATOM      3  O   UNL     1       9.192  11.061  21.717  0.00  0.00    +0.000 OA
ATOM      4  N   UNL     1       9.443  13.089  20.667  0.00  0.00    +0.000 N 
ATOM      5  C   UNL     1       9.923  13.430  19.331  0.00  0.00    +0.000 C 
ATOM      6  C   UNL     1      11.432  12.994  19.283  0.00  0.00    +0.000 C 
ATOM      7  C   UNL     1      11.969  12.529  17.930  0.00  0.00    +0.000 C 
ATOM      8  C   UNL     1      12.329  13.634  16.976  0.00  0.00    +0.000 C 
ATOM      9  C   UNL     1      11.453  14.891  17.008  0.00  0.00    +0.000 C 
ATOM     10  C   UNL     1      10.405  15.531  17.959  0.00  0.00    +0.000 A 
ATOM     11  C   UNL     1      10.204  16.916  17.725  0.00  0.00    +0.000 A 
ATOM     12  C   UNL     1       9.246  17.638  18.421  0.00  0.00    +0.000 A 
ATOM     13  C   UNL     1       8.436  16.976  19.329  0.00  0.00    +0.000 A 
ATOM     14  C   UNL     1       8.636  15.614  19.589  0.00  0.00    +0.000 A 
ATOM     15  C   UNL     1       9.658  14.870  18.949  0.00  0.00    +0.000 A 
ATOM     16  C   UNL     1       9.096  12.381  18.568  0.00  0.00    +0.000 C 
ATOM     17  O   UNL     1       8.829  12.347  17.373  0.00  0.00    +0.000 OA
ATOM     18  H   UNL     1       9.835  13.504  21.514  0.00  0.00    +0.000 HD
ENDROOT
BRANCH   1  19
ATOM     19  C   UNL     1       9.424  10.024  18.993  0.00  0.00    +0.000 C 
BRANCH  19  21
ATOM     20  N   UNL     1       8.543   7.732  18.736  0.00  0.00    +0.000 N 
ATOM     21  C   UNL     1       8.448   9.062  18.362  0.00  0.00    +0.000 C 
ATOM     22  O   UNL     1       7.516   9.558  17.721  0.00  0.00    +0.000 OA
ATOM     23  H   UNL     1       9.156   7.507  19.509  0.00  0.00    +0.000 HD
BRANCH  20  28
ATOM     24  C   UNL     1       6.438   5.627  16.484  0.00  0.00    +0.000 A 
ATOM     25  C   UNL     1       6.002   4.647  17.375  0.00  0.00    +0.000 A 
ATOM     26  C   UNL     1       6.355   4.719  18.714  0.00  0.00    +0.000 A 
ATOM     27  C   UNL     1       7.157   5.759  19.159  0.00  0.00    +0.000 A 
ATOM     28  C   UNL     1       7.656   6.725  18.276  0.00  0.00    +0.000 A 
ATOM     29  C   UNL     1       7.261   6.670  16.934  0.00  0.00    +0.000 A 
BRANCH  24  31
ATOM     30  C   UNL     1       6.883   4.783  14.306  0.00  0.00    +0.000 C 
ATOM     31  O   UNL     1       6.114   5.646  15.145  0.00  0.00    +0.000 OA
ENDBRANCH  24  31
ENDBRANCH  20  28
ENDBRANCH  19  21
ENDBRANCH   1  19
TORSDOF 4
ENDMDL
MODEL 5
REMARK VINA RESULT:      -7.7      1.843      3.183
REMARK  Name = 
REMARK  5 active torsions:
REMARK  status: ('A' for Active; 'I' for Inactive)
REMARK    1  A    between atoms: C_1  and  O_2
REMARK    2  A    between atoms: O_2  and  C_3
REMARK    3  A    between atoms: C_7  and  N_8
REMARK    4  A    between atoms: C_9  and  C_11
REMARK    5  A    between atoms: C_11  and  N_12
REMARK                            x       y       z     vdW  Elec       q    Type
REMARK                         _______ _______ _______ _____ _____    ______ ____
ROOT
ATOM      1  N   UNL     1       5.924   5.995  17.109  0.00  0.00    +0.000 N 
ATOM      2  C   UNL     1       5.065   6.651  16.267  0.00  0.00    +0.000 C 
ATOM      3  O   UNL     1       5.237   6.946  15.096  0.00  0.00    +0.000 OA
ATOM      4  N   UNL     1       3.842   6.782  16.915  0.00  0.00    +0.000 N 
ATOM      5  C   UNL     1       3.763   5.789  17.982  0.00  0.00    +0.000 C 
ATOM      6  C   UNL     1       3.349   4.438  17.294  0.00  0.00    +0.000 C 
ATOM      7  C   UNL     1       3.885   3.153  17.925  0.00  0.00    +0.000 C 
ATOM      8  C   UNL     1       3.135   2.684  19.141  0.00  0.00    +0.000 C 
ATOM      9  C   UNL     1       2.577   3.765  20.073  0.00  0.00    +0.000 C 
ATOM     10  C   UNL     1       2.297   5.292  20.015  0.00  0.00    +0.000 A 
ATOM     11  C   UNL     1       1.378   5.732  21.002  0.00  0.00    +0.000 A 
ATOM     12  C   UNL     1       1.069   7.075  21.157  0.00  0.00    +0.000 A 
ATOM     13  C   UNL     1       1.713   8.008  20.361  0.00  0.00    +0.000 A 
ATOM     14  C   UNL     1       2.606   7.588  19.366  0.00  0.00    +0.000 A 
ATOM     15  C   UNL     1       2.881   6.218  19.134  0.00  0.00    +0.000 A 
ATOM     16  C   UNL     1       5.269   5.730  18.288  0.00  0.00    +0.000 C 
ATOM     17  O   UNL     1       5.824   5.294  19.289  0.00  0.00    +0.000 OA
ATOM     18  H   UNL     1       3.035   7.044  16.347  0.00  0.00    +0.000 HD
ENDROOT
BRANCH   1  19
ATOM     19  C   UNL     1       6.832   5.004  16.592  0.00  0.00    +0.000 C 
BRANCH  19  21
ATOM     20  N   UNL     1       6.609   4.493  14.187  0.00  0.00    +0.000 N 
ATOM     21  C   UNL     1       6.344   4.099  15.488  0.00  0.00    +0.000 C 
ATOM     22  O   UNL     1       5.929   2.985  15.826  0.00  0.00    +0.000 OA
ATOM     23  H   UNL     1       7.232   5.280  14.055  0.00  0.00    +0.000 HD
BRANCH  20  28
ATOM     24  C   UNL     1       4.650   2.960  11.405  0.00  0.00    +0.000 A 
ATOM     25  C   UNL     1       5.654   2.272  10.726  0.00  0.00    +0.000 A 
ATOM     26  C   UNL     1       6.951   2.271  11.219  0.00  0.00    +0.000 A 
ATOM     27  C   UNL     1       7.246   2.971  12.379  0.00  0.00    +0.000 A 
ATOM     28  C   UNL     1       6.268   3.717  13.050  0.00  0.00    +0.000 A 
ATOM     29  C   UNL     1       4.954   3.678  12.570  0.00  0.00    +0.000 A 
BRANCH  24  31
ATOM     30  C   UNL     1       3.059   3.772   9.834  0.00  0.00    +0.000 C 
ATOM     31  O   UNL     1       3.333   2.992  11.000  0.00  0.00    +0.000 OA
ENDBRANCH  24  31
ENDBRANCH  20  28
ENDBRANCH  19  21
ENDBRANCH   1  19
TORSDOF 4
ENDMDL
MODEL 6
REMARK VINA RESULT:      -7.5      6.190      8.933
REMARK  Name = 
REMARK  5 active torsions:
REMARK  status: ('A' for Active; 'I' for Inactive)
REMARK    1  A    between atoms: C_1  and  O_2
REMARK    2  A    between atoms: O_2  and  C_3
REMARK    3  A    between atoms: C_7  and  N_8
REMARK    4  A    between atoms: C_9  and  C_11
REMARK    5  A    between atoms: C_11  and  N_12
REMARK                            x       y       z     vdW  Elec       q    Type
REMARK                         _______ _______ _______ _____ _____    ______ ____
ROOT
ATOM      1  N   UNL     1       1.054  10.706  19.122  0.00  0.00    +0.000 N 
ATOM      2  C   UNL     1       1.558  11.964  18.922  0.00  0.00    +0.000 C 
ATOM      3  O   UNL     1       2.600  12.281  18.375  0.00  0.00    +0.000 OA
ATOM      4  N   UNL     1       0.581  12.883  19.292  0.00  0.00    +0.000 N 
ATOM      5  C   UNL     1      -0.721  12.223  19.271  0.00  0.00    +0.000 C 
ATOM      6  C   UNL     1      -1.182  12.209  17.769  0.00  0.00    +0.000 C 
ATOM      7  C   UNL     1      -2.039  11.024  17.325  0.00  0.00    +0.000 C 
ATOM      8  C   UNL     1      -3.493  11.118  17.698  0.00  0.00    +0.000 C 
ATOM      9  C   UNL     1      -3.824  11.783  19.039  0.00  0.00    +0.000 C 
ATOM     10  C   UNL     1      -3.101  12.684  20.078  0.00  0.00    +0.000 A 
ATOM     11  C   UNL     1      -3.993  13.373  20.940  0.00  0.00    +0.000 A 
ATOM     12  C   UNL     1      -3.529  14.159  21.985  0.00  0.00    +0.000 A 
ATOM     13  C   UNL     1      -2.165  14.230  22.216  0.00  0.00    +0.000 A 
ATOM     14  C   UNL     1      -1.270  13.574  21.360  0.00  0.00    +0.000 A 
ATOM     15  C   UNL     1      -1.713  12.827  20.241  0.00  0.00    +0.000 A 
ATOM     16  C   UNL     1      -0.218  10.815  19.632  0.00  0.00    +0.000 C 
ATOM     17  O   UNL     1      -0.862   9.864  20.058  0.00  0.00    +0.000 OA
ATOM     18  H   UNL     1       0.711  13.852  18.996  0.00  0.00    +0.000 HD
ENDROOT
BRANCH   1  19
ATOM     19  C   UNL     1       1.323   9.659  18.171  0.00  0.00    +0.000 C 
BRANCH  19  21
ATOM     20  N   UNL     1       2.433   7.490  17.775  0.00  0.00    +0.000 N 
ATOM     21  C   UNL     1       1.834   8.338  18.691  0.00  0.00    +0.000 C 
ATOM     22  O   UNL     1       1.865   8.199  19.918  0.00  0.00    +0.000 OA
ATOM     23  H   UNL     1       2.621   7.858  16.850  0.00  0.00    +0.000 HD
BRANCH  20  28
ATOM     24  C   UNL     1       4.889   4.936  18.947  0.00  0.00    +0.000 A 
ATOM     25  C   UNL     1       4.099   3.787  18.931  0.00  0.00    +0.000 A 
ATOM     26  C   UNL     1       2.788   3.851  18.482  0.00  0.00    +0.000 A 
ATOM     27  C   UNL     1       2.262   5.065  18.067  0.00  0.00    +0.000 A 
ATOM     28  C   UNL     1       3.015   6.245  18.126  0.00  0.00    +0.000 A 
ATOM     29  C   UNL     1       4.350   6.165  18.540  0.00  0.00    +0.000 A 
BRANCH  24  31
ATOM     30  C   UNL     1       7.089   5.752  18.561  0.00  0.00    +0.000 C 
ATOM     31  O   UNL     1       6.205   4.956  19.353  0.00  0.00    +0.000 OA
ENDBRANCH  24  31
ENDBRANCH  20  28
ENDBRANCH  19  21
ENDBRANCH   1  19
TORSDOF 4
ENDMDL
MODEL 7
REMARK VINA RESULT:      -7.5      7.514     10.405
REMARK  Name = 
REMARK  5 active torsions:
REMARK  status: ('A' for Active; 'I' for Inactive)
REMARK    1  A    between atoms: C_1  and  O_2
REMARK    2  A    between atoms: O_2  and  C_3
REMARK    3  A    between atoms: C_7  and  N_8
REMARK    4  A    between atoms: C_9  and  C_11
REMARK    5  A    between atoms: C_11  and  N_12
REMARK                            x       y       z     vdW  Elec       q    Type
REMARK                         _______ _______ _______ _____ _____    ______ ____
ROOT
ATOM      1  N   UNL     1      -0.414  10.675  21.458  0.00  0.00    +0.000 N 
ATOM      2  C   UNL     1      -0.597  10.626  22.815  0.00  0.00    +0.000 C 
ATOM      3  O   UNL     1       0.022   9.970  23.636  0.00  0.00    +0.000 OA
ATOM      4  N   UNL     1      -1.516  11.610  23.162  0.00  0.00    +0.000 N 
ATOM      5  C   UNL     1      -1.560  12.612  22.100  0.00  0.00    +0.000 C 
ATOM      6  C   UNL     1      -0.328  13.558  22.338  0.00  0.00    +0.000 C 
ATOM      7  C   UNL     1       0.314  14.173  21.095  0.00  0.00    +0.000 C 
ATOM      8  C   UNL     1      -0.407  15.367  20.534  0.00  0.00    +0.000 C 
ATOM      9  C   UNL     1      -1.937  15.359  20.624  0.00  0.00    +0.000 C 
ATOM     10  C   UNL     1      -3.033  14.577  21.398  0.00  0.00    +0.000 A 
ATOM     11  C   UNL     1      -4.283  15.250  21.435  0.00  0.00    +0.000 A 
ATOM     12  C   UNL     1      -5.402  14.667  22.010  0.00  0.00    +0.000 A 
ATOM     13  C   UNL     1      -5.305  13.380  22.514  0.00  0.00    +0.000 A 
ATOM     14  C   UNL     1      -4.073  12.712  22.506  0.00  0.00    +0.000 A 
ATOM     15  C   UNL     1      -2.897  13.313  21.995  0.00  0.00    +0.000 A 
ATOM     16  C   UNL     1      -1.219  11.661  20.940  0.00  0.00    +0.000 C 
ATOM     17  O   UNL     1      -1.389  11.836  19.739  0.00  0.00    +0.000 OA
ATOM     18  H   UNL     1      -1.593  11.854  24.151  0.00  0.00    +0.000 HD
ENDROOT
BRANCH   1  19
ATOM     19  C   UNL     1       0.901  10.499  20.898  0.00  0.00    +0.000 C 
BRANCH  19  21
ATOM     20  N   UNL     1       1.734   8.182  20.727  0.00  0.00    +0.000 N 
ATOM     21  C   UNL     1       1.164   9.262  20.075  0.00  0.00    +0.000 C 
ATOM     22  O   UNL     1       0.671   9.233  18.943  0.00  0.00    +0.000 OA
ATOM     23  H   UNL     1       1.808   8.231  21.736  0.00  0.00    +0.000 HD
BRANCH  20  28
ATOM     24  C   UNL     1       1.629   4.536  19.937  0.00  0.00    +0.000 A 
ATOM     25  C   UNL     1       2.393   4.499  18.771  0.00  0.00    +0.000 A 
ATOM     26  C   UNL     1       2.981   5.659  18.289  0.00  0.00    +0.000 A 
ATOM     27  C   UNL     1       2.791   6.857  18.961  0.00  0.00    +0.000 A 
ATOM     28  C   UNL     1       1.983   6.933  20.103  0.00  0.00    +0.000 A 
ATOM     29  C   UNL     1       1.428   5.751  20.607  0.00  0.00    +0.000 A 
BRANCH  24  31
ATOM     30  C   UNL     1       1.798   2.742  21.490  0.00  0.00    +0.000 C 
ATOM     31  O   UNL     1       1.032   3.428  20.498  0.00  0.00    +0.000 OA
ENDBRANCH  24  31
ENDBRANCH  20  28
ENDBRANCH  19  21
ENDBRANCH   1  19
TORSDOF 4
ENDMDL
MODEL 8
REMARK VINA RESULT:      -7.4      6.112      8.924
REMARK  Name = 
REMARK  5 active torsions:
REMARK  status: ('A' for Active; 'I' for Inactive)
REMARK    1  A    between atoms: C_1  and  O_2
REMARK    2  A    between atoms: O_2  and  C_3
REMARK    3  A    between atoms: C_7  and  N_8
REMARK    4  A    between atoms: C_9  and  C_11
REMARK    5  A    between atoms: C_11  and  N_12
REMARK                            x       y       z     vdW  Elec       q    Type
REMARK                         _______ _______ _______ _____ _____    ______ ____
ROOT
ATOM      1  N   UNL     1       0.990  10.504  19.015  0.00  0.00    +0.000 N 
ATOM      2  C   UNL     1       1.468  11.749  18.702  0.00  0.00    +0.000 C 
ATOM      3  O   UNL     1       2.508  12.037  18.134  0.00  0.00    +0.000 OA
ATOM      4  N   UNL     1       0.469  12.676  18.978  0.00  0.00    +0.000 N 
ATOM      5  C   UNL     1      -0.819  11.988  19.012  0.00  0.00    +0.000 C 
ATOM      6  C   UNL     1      -1.268  11.823  17.515  0.00  0.00    +0.000 C 
ATOM      7  C   UNL     1      -2.095  10.583  17.178  0.00  0.00    +0.000 C 
ATOM      8  C   UNL     1      -3.553  10.678  17.533  0.00  0.00    +0.000 C 
ATOM      9  C   UNL     1      -3.909  11.457  18.804  0.00  0.00    +0.000 C 
ATOM     10  C   UNL     1      -3.215  12.468  19.758  0.00  0.00    +0.000 A 
ATOM     11  C   UNL     1      -4.129  13.214  20.547  0.00  0.00    +0.000 A 
ATOM     12  C   UNL     1      -3.690  14.104  21.516  0.00  0.00    +0.000 A 
ATOM     13  C   UNL     1      -2.330  14.227  21.748  0.00  0.00    +0.000 A 
ATOM     14  C   UNL     1      -1.414  13.515  20.962  0.00  0.00    +0.000 A 
ATOM     15  C   UNL     1      -1.832  12.657  19.915  0.00  0.00    +0.000 A 
ATOM     16  C   UNL     1      -0.287  10.631  19.506  0.00  0.00    +0.000 C 
ATOM     17  O   UNL     1      -0.914   9.710  20.015  0.00  0.00    +0.000 OA
ATOM     18  H   UNL     1       0.579  13.616  18.594  0.00  0.00    +0.000 HD
ENDROOT
BRANCH   1  19
ATOM     19  C   UNL     1       1.290   9.378  18.168  0.00  0.00    +0.000 C 
BRANCH  19  21
ATOM     20  N   UNL     1       2.439   7.205  17.956  0.00  0.00    +0.000 N 
ATOM     21  C   UNL     1       1.878   8.144  18.805  0.00  0.00    +0.000 C 
ATOM     22  O   UNL     1       1.998   8.157  20.034  0.00  0.00    +0.000 OA
ATOM     23  H   UNL     1       2.552   7.461  16.983  0.00  0.00    +0.000 HD
BRANCH  20  28
ATOM     24  C   UNL     1       3.004   3.720  19.167  0.00  0.00    +0.000 A 
ATOM     25  C   UNL     1       4.398   3.672  19.187  0.00  0.00    +0.000 A 
ATOM     26  C   UNL     1       5.135   4.800  18.859  0.00  0.00    +0.000 A 
ATOM     27  C   UNL     1       4.482   5.968  18.494  0.00  0.00    +0.000 A 
ATOM     28  C   UNL     1       3.085   6.026  18.411  0.00  0.00    +0.000 A 
ATOM     29  C   UNL     1       2.346   4.898  18.785  0.00  0.00    +0.000 A 
BRANCH  24  31
ATOM     30  C   UNL     1       0.987   2.530  18.751  0.00  0.00    +0.000 C 
ATOM     31  O   UNL     1       2.196   2.656  19.503  0.00  0.00    +0.000 OA
ENDBRANCH  24  31
ENDBRANCH  20  28
ENDBRANCH  19  21
ENDBRANCH   1  19
TORSDOF 4
ENDMDL
MODEL 9
REMARK VINA RESULT:      -7.4      6.177      8.668
REMARK  Name = 
REMARK  5 active torsions:
REMARK  status: ('A' for Active; 'I' for Inactive)
REMARK    1  A    between atoms: C_1  and  O_2
REMARK    2  A    between atoms: O_2  and  C_3
REMARK    3  A    between atoms: C_7  and  N_8
REMARK    4  A    between atoms: C_9  and  C_11
REMARK    5  A    between atoms: C_11  and  N_12
REMARK                            x       y       z     vdW  Elec       q    Type
REMARK                         _______ _______ _______ _____ _____    ______ ____
ROOT
ATOM      1  N   UNL     1       0.505   9.510  20.713  0.00  0.00    +0.000 N 
ATOM      2  C   UNL     1       0.863   9.772  22.009  0.00  0.00    +0.000 C 
ATOM      3  O   UNL     1       1.772   9.279  22.655  0.00  0.00    +0.000 OA
ATOM      4  N   UNL     1       0.118  10.861  22.449  0.00  0.00    +0.000 N 
ATOM      5  C   UNL     1      -0.366  11.604  21.289  0.00  0.00    +0.000 C 
ATOM      6  C   UNL     1       0.830  12.506  20.814  0.00  0.00    +0.000 C 
ATOM      7  C   UNL     1       0.922  12.792  19.316  0.00  0.00    +0.000 C 
ATOM      8  C   UNL     1       0.000  13.872  18.821  0.00  0.00    +0.000 C 
ATOM      9  C   UNL     1      -1.375  13.973  19.490  0.00  0.00    +0.000 C 
ATOM     10  C   UNL     1      -2.060  13.447  20.781  0.00  0.00    +0.000 A 
ATOM     11  C   UNL     1      -3.219  14.183  21.141  0.00  0.00    +0.000 A 
ATOM     12  C   UNL     1      -4.009  13.808  22.217  0.00  0.00    +0.000 A 
ATOM     13  C   UNL     1      -3.682  12.661  22.923  0.00  0.00    +0.000 A 
ATOM     14  C   UNL     1      -2.529  11.937  22.594  0.00  0.00    +0.000 A 
ATOM     15  C   UNL     1      -1.662  12.340  21.549  0.00  0.00    +0.000 A 
ATOM     16  C   UNL     1      -0.469  10.402  20.334  0.00  0.00    +0.000 C 
ATOM     17  O   UNL     1      -1.096  10.317  19.285  0.00  0.00    +0.000 OA
ATOM     18  H   UNL     1       0.421  11.322  23.309  0.00  0.00    +0.000 HD
ENDROOT
BRANCH   1  19
ATOM     19  C   UNL     1       1.506   9.138  19.746  0.00  0.00    +0.000 C 
BRANCH  19  21
ATOM     20  N   UNL     1       2.633   7.310  18.529  0.00  0.00    +0.000 N 
ATOM     21  C   UNL     1       1.870   7.679  19.624  0.00  0.00    +0.000 C 
ATOM     22  O   UNL     1       1.637   6.964  20.604  0.00  0.00    +0.000 OA
ATOM     23  H   UNL     1       3.021   8.052  17.958  0.00  0.00    +0.000 HD
BRANCH  20  28
ATOM     24  C   UNL     1       4.870   4.325  18.407  0.00  0.00    +0.000 A 
ATOM     25  C   UNL     1       3.972   3.342  17.992  0.00  0.00    +0.000 A 
ATOM     26  C   UNL     1       2.659   3.680  17.701  0.00  0.00    +0.000 A 
ATOM     27  C   UNL     1       2.239   4.994  17.843  0.00  0.00    +0.000 A 
ATOM     28  C   UNL     1       3.105   5.990  18.312  0.00  0.00    +0.000 A 
ATOM     29  C   UNL     1       4.439   5.650  18.562  0.00  0.00    +0.000 A 
BRANCH  24  31
ATOM     30  C   UNL     1       7.144   4.704  17.821  0.00  0.00    +0.000 C 
ATOM     31  O   UNL     1       6.196   4.082  18.691  0.00  0.00    +0.000 OA
ENDBRANCH  24  31
ENDBRANCH  20  28
ENDBRANCH  19  21
ENDBRANCH   1  19
TORSDOF 4
ENDMDL
