MODEL 1
REMARK VINA RESULT:      -9.4      0.000      0.000
REMARK  Name = 
REMARK  3 active torsions:
REMARK  status: ('A' for Active; 'I' for Inactive)
REMARK    1  A    between atoms: C_8  and  N_9
REMARK    2  A    between atoms: C_10  and  C_12
REMARK    3  A    between atoms: N_16  and  C_17
REMARK                            x       y       z     vdW  Elec       q    Type
REMARK                         _______ _______ _______ _____ _____    ______ ____
ROOT
ATOM      1  N   UNL     1       2.821   6.385  18.441  0.00  0.00    +0.000 N 
ATOM      2  C   UNL     1       4.112   6.286  17.940  0.00  0.00    +0.000 C 
ATOM      3  O   UNL     1       4.893   7.211  17.749  0.00  0.00    +0.000 OA
ATOM      4  H   UNL     1       2.290   5.530  18.569  0.00  0.00    +0.000 HD
ENDROOT
BRANCH   1  12
ATOM      5  O   UNL     1      -0.248  10.345  23.495  0.00  0.00    +0.000 OA
ATOM      6  C   UNL     1       0.152  10.229  22.340  0.00  0.00    +0.000 C 
ATOM      7  C   UNL     1       0.160  11.381  21.338  0.00  0.00    +0.000 C 
ATOM      8  O   UNL     1       0.218  11.093  19.952  0.00  0.00    +0.000 OA
ATOM      9  C   UNL     1       0.874   9.934  19.648  0.00  0.00    +0.000 A 
ATOM     10  C   UNL     1       1.246   9.775  18.321  0.00  0.00    +0.000 A 
ATOM     11  C   UNL     1       1.891   8.609  17.914  0.00  0.00    +0.000 A 
ATOM     12  C   UNL     1       2.163   7.580  18.818  0.00  0.00    +0.000 A 
ATOM     13  C   UNL     1       1.766   7.735  20.157  0.00  0.00    +0.000 A 
ATOM     14  C   UNL     1       1.126   8.913  20.566  0.00  0.00    +0.000 A 
ATOM     15  N   UNL     1       0.709   9.061  21.891  0.00  0.00    +0.000 N 
ATOM     16  H   UNL     1       0.783   8.306  22.558  0.00  0.00    +0.000 HD
ENDBRANCH   1  12
BRANCH   2  17
ATOM     17  C   UNL     1       4.577   4.882  17.612  0.00  0.00    +0.000 C 
ATOM     18  C   UNL     1       5.982   4.606  18.107  0.00  0.00    +0.000 C 
ATOM     19  C   UNL     1       6.822   4.566  16.861  0.00  0.00    +0.000 C 
ATOM     20  O   UNL     1       8.041   4.488  16.904  0.00  0.00    +0.000 OA
ATOM     21  N   UNL     1       5.981   4.605  15.747  0.00  0.00    +0.000 N 
ATOM     22  C   UNL     1       4.586   4.621  16.124  0.00  0.00    +0.000 C 
BRANCH  21  23
ATOM     23  C   UNL     1       6.385   4.436  14.392  0.00  0.00    +0.000 A 
ATOM     24  C   UNL     1       7.368   5.248  13.810  0.00  0.00    +0.000 A 
ATOM     25  C   UNL     1       7.793   5.040  12.495  0.00  0.00    +0.000 A 
ATOM     26  C   UNL     1       7.232   4.022  11.733  0.00  0.00    +0.000 A 
ATOM     27  C   UNL     1       6.239   3.224  12.288  0.00  0.00    +0.000 A 
ATOM     28 CL   UNL     1       5.526   1.967  11.351  0.00  0.00    +0.000 Cl
ATOM     29  C   UNL     1       5.817   3.425  13.603  0.00  0.00    +0.000 A 
ENDBRANCH  21  23
ENDBRANCH   2  17
TORSDOF 3
ENDMDL
MODEL 2
REMARK VINA RESULT:      -9.1      1.135      1.163
REMARK  Name = 
REMARK  3 active torsions:
REMARK  status: ('A' for Active; 'I' for Inactive)
REMARK    1  A    between atoms: C_8  and  N_9
REMARK    2  A    between atoms: C_10  and  C_12
REMARK    3  A    between atoms: N_16  and  C_17
REMARK                            x       y       z     vdW  Elec       q    Type
REMARK                         _______ _______ _______ _____ _____    ______ ____
ROOT
ATOM      1  N   UNL     1       3.298   6.182  18.624  0.00  0.00    +0.000 N 
ATOM      2  C   UNL     1       2.827   4.896  18.399  0.00  0.00    +0.000 C 
ATOM      3  O   UNL     1       1.654   4.541  18.386  0.00  0.00    +0.000 OA
ATOM      4  H   UNL     1       4.300   6.339  18.585  0.00  0.00    +0.000 HD
ENDROOT
BRANCH   1  12
ATOM      5  O   UNL     1      -0.176  10.263  23.307  0.00  0.00    +0.000 OA
ATOM      6  C   UNL     1       0.225  10.074  22.161  0.00  0.00    +0.000 C 
ATOM      7  C   UNL     1       0.087  11.108  21.046  0.00  0.00    +0.000 C 
ATOM      8  O   UNL     1       0.167  10.685  19.696  0.00  0.00    +0.000 OA
ATOM      9  C   UNL     1       0.953   9.585  19.499  0.00  0.00    +0.000 A 
ATOM     10  C   UNL     1       1.329   9.333  18.189  0.00  0.00    +0.000 A 
ATOM     11  C   UNL     1       2.105   8.214  17.890  0.00  0.00    +0.000 A 
ATOM     12  C   UNL     1       2.505   7.325  18.890  0.00  0.00    +0.000 A 
ATOM     13  C   UNL     1       2.105   7.572  20.213  0.00  0.00    +0.000 A 
ATOM     14  C   UNL     1       1.333   8.703  20.512  0.00  0.00    +0.000 A 
ATOM     15  N   UNL     1       0.913   8.939  21.823  0.00  0.00    +0.000 N 
ATOM     16  H   UNL     1       1.081   8.272  22.563  0.00  0.00    +0.000 HD
ENDBRANCH   1  12
BRANCH   2  17
ATOM     17  C   UNL     1       3.891   3.849  18.139  0.00  0.00    +0.000 C 
ATOM     18  C   UNL     1       5.226   4.213  18.756  0.00  0.00    +0.000 C 
ATOM     19  C   UNL     1       6.099   4.573  17.586  0.00  0.00    +0.000 C 
ATOM     20  O   UNL     1       7.218   5.042  17.733  0.00  0.00    +0.000 OA
ATOM     21  N   UNL     1       5.424   4.258  16.405  0.00  0.00    +0.000 N 
ATOM     22  C   UNL     1       4.140   3.648  16.663  0.00  0.00    +0.000 C 
BRANCH  21  23
ATOM     23  C   UNL     1       5.974   4.312  15.093  0.00  0.00    +0.000 A 
ATOM     24  C   UNL     1       7.092   5.101  14.795  0.00  0.00    +0.000 A 
ATOM     25  C   UNL     1       7.654   5.107  13.515  0.00  0.00    +0.000 A 
ATOM     26  C   UNL     1       7.097   4.331  12.505  0.00  0.00    +0.000 A 
ATOM     27  C   UNL     1       5.973   3.562  12.779  0.00  0.00    +0.000 A 
ATOM     28 CL   UNL     1       5.265   2.606  11.533  0.00  0.00    +0.000 Cl
ATOM     29  C   UNL     1       5.414   3.549  14.057  0.00  0.00    +0.000 A 
ENDBRANCH  21  23
ENDBRANCH   2  17
TORSDOF 3
ENDMDL
MODEL 3
REMARK VINA RESULT:      -8.9      1.471      1.734
REMARK  Name = 
REMARK  3 active torsions:
REMARK  status: ('A' for Active; 'I' for Inactive)
REMARK    1  A    between atoms: C_8  and  N_9
REMARK    2  A    between atoms: C_10  and  C_12
REMARK    3  A    between atoms: N_16  and  C_17
REMARK                            x       y       z     vdW  Elec       q    Type
REMARK                         _______ _______ _______ _____ _____    ______ ____
ROOT
ATOM      1  N   UNL     1       3.399   6.169  18.594  0.00  0.00    +0.000 N 
ATOM      2  C   UNL     1       2.973   4.969  18.040  0.00  0.00    +0.000 C 
ATOM      3  O   UNL     1       1.828   4.686  17.707  0.00  0.00    +0.000 OA
ATOM      4  H   UNL     1       4.386   6.276  18.804  0.00  0.00    +0.000 HD
ENDROOT
BRANCH   1  12
ATOM      5  O   UNL     1      -0.134  10.089  23.369  0.00  0.00    +0.000 OA
ATOM      6  C   UNL     1       0.263   9.929  22.217  0.00  0.00    +0.000 C 
ATOM      7  C   UNL     1       0.095  10.979  21.121  0.00  0.00    +0.000 C 
ATOM      8  O   UNL     1       0.176  10.581  19.763  0.00  0.00    +0.000 OA
ATOM      9  C   UNL     1       0.985   9.503  19.543  0.00  0.00    +0.000 A 
ATOM     10  C   UNL     1       1.358   9.282  18.226  0.00  0.00    +0.000 A 
ATOM     11  C   UNL     1       2.157   8.186  17.903  0.00  0.00    +0.000 A 
ATOM     12  C   UNL     1       2.583   7.289  18.885  0.00  0.00    +0.000 A 
ATOM     13  C   UNL     1       2.186   7.503  20.215  0.00  0.00    +0.000 A 
ATOM     14  C   UNL     1       1.391   8.612  20.538  0.00  0.00    +0.000 A 
ATOM     15  N   UNL     1       0.974   8.816  21.856  0.00  0.00    +0.000 N 
ATOM     16  H   UNL     1       1.163   8.140  22.583  0.00  0.00    +0.000 HD
ENDBRANCH   1  12
BRANCH   2  17
ATOM     17  C   UNL     1       4.054   3.928  17.833  0.00  0.00    +0.000 C 
ATOM     18  C   UNL     1       5.390   4.355  18.406  0.00  0.00    +0.000 C 
ATOM     19  C   UNL     1       6.240   4.656  17.202  0.00  0.00    +0.000 C 
ATOM     20  O   UNL     1       7.351   5.153  17.303  0.00  0.00    +0.000 OA
ATOM     21  N   UNL     1       5.555   4.253  16.053  0.00  0.00    +0.000 N 
ATOM     22  C   UNL     1       4.287   3.637  16.369  0.00  0.00    +0.000 C 
BRANCH  21  23
ATOM     23  C   UNL     1       6.087   4.233  14.733  0.00  0.00    +0.000 A 
ATOM     24  C   UNL     1       5.523   3.442  13.724  0.00  0.00    +0.000 A 
ATOM     25  C   UNL     1       6.022   3.468  12.418  0.00  0.00    +0.000 A 
ATOM     26  C   UNL     1       7.105   4.280  12.102  0.00  0.00    +0.000 A 
ATOM     27  C   UNL     1       7.690   5.053  13.098  0.00  0.00    +0.000 A 
ATOM     28 CL   UNL     1       9.041   6.053  12.722  0.00  0.00    +0.000 Cl
ATOM     29  C   UNL     1       7.190   5.033  14.400  0.00  0.00    +0.000 A 
ENDBRANCH  21  23
ENDBRANCH   2  17
TORSDOF 3
ENDMDL
MODEL 4
REMARK VINA RESULT:      -8.7      5.943      7.644
REMARK  Name = 
REMARK  3 active torsions:
REMARK  status: ('A' for Active; 'I' for Inactive)
REMARK    1  A    between atoms: C_8  and  N_9
REMARK    2  A    between atoms: C_10  and  C_12
REMARK    3  A    between atoms: N_16  and  C_17
REMARK                            x       y       z     vdW  Elec       q    Type
REMARK                         _______ _______ _______ _____ _____    ______ ____
ROOT
ATOM      1  N   UNL     1       8.347   8.040  18.715  0.00  0.00    +0.000 N 
ATOM      2  C   UNL     1       7.688   7.188  17.839  0.00  0.00    +0.000 C 
ATOM      3  O   UNL     1       7.234   7.482  16.739  0.00  0.00    +0.000 OA
ATOM      4  H   UNL     1       8.691   7.656  19.589  0.00  0.00    +0.000 HD
ENDROOT
BRANCH   1  12
ATOM      5  O   UNL     1      12.333  13.784  20.041  0.00  0.00    +0.000 OA
ATOM      6  C   UNL     1      11.420  13.252  19.415  0.00  0.00    +0.000 C 
ATOM      7  C   UNL     1      10.683  13.938  18.267  0.00  0.00    +0.000 C 
ATOM      8  O   UNL     1       9.402  13.465  17.887  0.00  0.00    +0.000 OA
ATOM      9  C   UNL     1       9.210  12.130  18.107  0.00  0.00    +0.000 A 
ATOM     10  C   UNL     1       8.125  11.557  17.461  0.00  0.00    +0.000 A 
ATOM     11  C   UNL     1       7.833  10.208  17.653  0.00  0.00    +0.000 A 
ATOM     12  C   UNL     1       8.610   9.414  18.500  0.00  0.00    +0.000 A 
ATOM     13  C   UNL     1       9.695  10.003  19.170  0.00  0.00    +0.000 A 
ATOM     14  C   UNL     1       9.992  11.358  18.967  0.00  0.00    +0.000 A 
ATOM     15  N   UNL     1      11.057  11.952  19.649  0.00  0.00    +0.000 N 
ATOM     16  H   UNL     1      11.581  11.453  20.354  0.00  0.00    +0.000 HD
ENDBRANCH   1  12
BRANCH   2  17
ATOM     17  C   UNL     1       7.535   5.758  18.313  0.00  0.00    +0.000 C 
ATOM     18  C   UNL     1       7.527   4.764  17.169  0.00  0.00    +0.000 C 
ATOM     19  C   UNL     1       6.101   4.291  17.089  0.00  0.00    +0.000 C 
ATOM     20  O   UNL     1       5.709   3.570  16.184  0.00  0.00    +0.000 OA
ATOM     21  N   UNL     1       5.398   4.788  18.189  0.00  0.00    +0.000 N 
ATOM     22  C   UNL     1       6.249   5.547  19.076  0.00  0.00    +0.000 C 
BRANCH  21  23
ATOM     23  C   UNL     1       4.065   4.441  18.549  0.00  0.00    +0.000 A 
ATOM     24  C   UNL     1       2.979   4.715  17.706  0.00  0.00    +0.000 A 
ATOM     25  C   UNL     1       1.681   4.324  18.047  0.00  0.00    +0.000 A 
ATOM     26  C   UNL     1       1.444   3.664  19.247  0.00  0.00    +0.000 A 
ATOM     27  C   UNL     1       2.507   3.406  20.104  0.00  0.00    +0.000 A 
ATOM     28 CL   UNL     1       2.225   2.600  21.600  0.00  0.00    +0.000 Cl
ATOM     29  C   UNL     1       3.805   3.789  19.764  0.00  0.00    +0.000 A 
ENDBRANCH  21  23
ENDBRANCH   2  17
TORSDOF 3
ENDMDL
MODEL 5
REMARK VINA RESULT:      -8.7      1.144      1.916
REMARK  Name = 
REMARK  3 active torsions:
REMARK  status: ('A' for Active; 'I' for Inactive)
REMARK    1  A    between atoms: C_8  and  N_9
REMARK    2  A    between atoms: C_10  and  C_12
REMARK    3  A    between atoms: N_16  and  C_17
REMARK                            x       y       z     vdW  Elec       q    Type
REMARK                         _______ _______ _______ _____ _____    ______ ____
ROOT
ATOM      1  N   UNL     1       2.889   6.044  19.013  0.00  0.00    +0.000 N 
ATOM      2  C   UNL     1       4.002   6.047  18.185  0.00  0.00    +0.000 C 
ATOM      3  O   UNL     1       4.590   7.034  17.757  0.00  0.00    +0.000 OA
ATOM      4  H   UNL     1       2.515   5.148  19.310  0.00  0.00    +0.000 HD
ENDROOT
BRANCH   1  12
ATOM      5  O   UNL     1       0.499  12.668  17.989  0.00  0.00    +0.000 OA
ATOM      6  C   UNL     1       0.572  11.668  18.698  0.00  0.00    +0.000 C 
ATOM      7  C   UNL     1      -0.195  11.516  20.010  0.00  0.00    +0.000 C 
ATOM      8  O   UNL     1       0.249  10.566  20.964  0.00  0.00    +0.000 OA
ATOM      9  C   UNL     1       0.878   9.481  20.423  0.00  0.00    +0.000 A 
ATOM     10  C   UNL     1       1.032   8.387  21.261  0.00  0.00    +0.000 A 
ATOM     11  C   UNL     1       1.691   7.247  20.805  0.00  0.00    +0.000 A 
ATOM     12  C   UNL     1       2.218   7.186  19.513  0.00  0.00    +0.000 A 
ATOM     13  C   UNL     1       2.080   8.304  18.674  0.00  0.00    +0.000 A 
ATOM     14  C   UNL     1       1.408   9.446  19.132  0.00  0.00    +0.000 A 
ATOM     15  N   UNL     1       1.289  10.568  18.309  0.00  0.00    +0.000 N 
ATOM     16  H   UNL     1       1.745  10.617  17.409  0.00  0.00    +0.000 HD
ENDBRANCH   1  12
BRANCH   2  17
ATOM     17  C   UNL     1       4.526   4.681  17.793  0.00  0.00    +0.000 C 
ATOM     18  C   UNL     1       5.942   4.441  18.276  0.00  0.00    +0.000 C 
ATOM     19  C   UNL     1       6.782   4.495  17.030  0.00  0.00    +0.000 C 
ATOM     20  O   UNL     1       8.003   4.466  17.070  0.00  0.00    +0.000 OA
ATOM     21  N   UNL     1       5.938   4.550  15.918  0.00  0.00    +0.000 N 
ATOM     22  C   UNL     1       4.545   4.489  16.295  0.00  0.00    +0.000 C 
BRANCH  21  23
ATOM     23  C   UNL     1       6.348   4.461  14.557  0.00  0.00    +0.000 A 
ATOM     24  C   UNL     1       7.351   5.288  14.035  0.00  0.00    +0.000 A 
ATOM     25  C   UNL     1       7.781   5.157  12.711  0.00  0.00    +0.000 A 
ATOM     26  C   UNL     1       7.203   4.203  11.881  0.00  0.00    +0.000 A 
ATOM     27  C   UNL     1       6.190   3.392  12.378  0.00  0.00    +0.000 A 
ATOM     28 CL   UNL     1       5.457   2.215  11.357  0.00  0.00    +0.000 Cl
ATOM     29  C   UNL     1       5.764   3.516  13.701  0.00  0.00    +0.000 A 
ENDBRANCH  21  23
ENDBRANCH   2  17
TORSDOF 3
ENDMDL
MODEL 6
REMARK VINA RESULT:      -8.5      6.011      7.342
REMARK  Name = 
REMARK  3 active torsions:
REMARK  status: ('A' for Active; 'I' for Inactive)
REMARK    1  A    between atoms: C_8  and  N_9
REMARK    2  A    between atoms: C_10  and  C_12
REMARK    3  A    between atoms: N_16  and  C_17
REMARK                            x       y       z     vdW  Elec       q    Type
REMARK                         _______ _______ _______ _____ _____    ______ ____
ROOT
ATOM      1  N   UNL     1       8.625   8.154  18.982  0.00  0.00    +0.000 N 
ATOM      2  C   UNL     1       7.785   7.463  18.119  0.00  0.00    +0.000 C 
ATOM      3  O   UNL     1       7.171   7.931  17.168  0.00  0.00    +0.000 OA
ATOM      4  H   UNL     1       9.089   7.634  19.719  0.00  0.00    +0.000 HD
ENDROOT
BRANCH   1  12
ATOM      5  O   UNL     1       9.949  14.272  22.369  0.00  0.00    +0.000 OA
ATOM      6  C   UNL     1       9.877  13.638  21.319  0.00  0.00    +0.000 C 
ATOM      7  C   UNL     1      10.289  14.213  19.965  0.00  0.00    +0.000 C 
ATOM      8  O   UNL     1       9.792  13.615  18.780  0.00  0.00    +0.000 OA
ATOM      9  C   UNL     1       9.535  12.278  18.892  0.00  0.00    +0.000 A 
ATOM     10  C   UNL     1       9.370  11.589  17.701  0.00  0.00    +0.000 A 
ATOM     11  C   UNL     1       9.073  10.227  17.719  0.00  0.00    +0.000 A 
ATOM     12  C   UNL     1       8.921   9.537  18.924  0.00  0.00    +0.000 A 
ATOM     13  C   UNL     1       9.067  10.244  20.130  0.00  0.00    +0.000 A 
ATOM     14  C   UNL     1       9.377  11.611  20.108  0.00  0.00    +0.000 A 
ATOM     15  N   UNL     1       9.500  12.321  21.304  0.00  0.00    +0.000 N 
ATOM     16  H   UNL     1       9.293  11.897  22.197  0.00  0.00    +0.000 HD
ENDBRANCH   1  12
BRANCH   2  17
ATOM     17  C   UNL     1       7.637   5.982  18.403  0.00  0.00    +0.000 C 
ATOM     18  C   UNL     1       7.609   5.148  17.138  0.00  0.00    +0.000 C 
ATOM     19  C   UNL     1       6.182   4.689  17.018  0.00  0.00    +0.000 C 
ATOM     20  O   UNL     1       5.775   4.094  16.032  0.00  0.00    +0.000 OA
ATOM     21  N   UNL     1       5.497   5.036  18.185  0.00  0.00    +0.000 N 
ATOM     22  C   UNL     1       6.362   5.672  19.151  0.00  0.00    +0.000 C 
BRANCH  21  23
ATOM     23  C   UNL     1       4.168   4.645  18.516  0.00  0.00    +0.000 A 
ATOM     24  C   UNL     1       3.094   4.873  17.646  0.00  0.00    +0.000 A 
ATOM     25  C   UNL     1       1.803   4.439  17.961  0.00  0.00    +0.000 A 
ATOM     26  C   UNL     1       1.562   3.779  19.160  0.00  0.00    +0.000 A 
ATOM     27  C   UNL     1       2.612   3.567  20.044  0.00  0.00    +0.000 A 
ATOM     28 CL   UNL     1       2.324   2.762  21.539  0.00  0.00    +0.000 Cl
ATOM     29  C   UNL     1       3.903   3.993  19.730  0.00  0.00    +0.000 A 
ENDBRANCH  21  23
ENDBRANCH   2  17
TORSDOF 3
ENDMDL
MODEL 7
REMARK VINA RESULT:      -8.5      6.278      8.041
REMARK  Name = 
REMARK  3 active torsions:
REMARK  status: ('A' for Active; 'I' for Inactive)
REMARK    1  A    between atoms: C_8  and  N_9
REMARK    2  A    between atoms: C_10  and  C_12
REMARK    3  A    between atoms: N_16  and  C_17
REMARK                            x       y       z     vdW  Elec       q    Type
REMARK                         _______ _______ _______ _____ _____    ______ ____
ROOT
ATOM      1  N   UNL     1       8.915   8.532  18.884  0.00  0.00    +0.000 N 
ATOM      2  C   UNL     1       7.934   8.053  18.026  0.00  0.00    +0.000 C 
ATOM      3  O   UNL     1       7.144   8.726  17.375  0.00  0.00    +0.000 OA
ATOM      4  H   UNL     1       9.518   7.859  19.346  0.00  0.00    +0.000 HD
ENDROOT
BRANCH   1  12
ATOM      5  O   UNL     1      11.080  14.943  16.679  0.00  0.00    +0.000 OA
ATOM      6  C   UNL     1      10.604  14.233  17.561  0.00  0.00    +0.000 C 
ATOM      7  C   UNL     1      10.092  14.781  18.891  0.00  0.00    +0.000 C 
ATOM      8  O   UNL     1       9.965  13.906  19.998  0.00  0.00    +0.000 OA
ATOM      9  C   UNL     1       9.700  12.609  19.660  0.00  0.00    +0.000 A 
ATOM     10  C   UNL     1       9.245  11.794  20.684  0.00  0.00    +0.000 A 
ATOM     11  C   UNL     1       8.980  10.448  20.438  0.00  0.00    +0.000 A 
ATOM     12  C   UNL     1       9.178   9.893  19.172  0.00  0.00    +0.000 A 
ATOM     13  C   UNL     1       9.660  10.716  18.141  0.00  0.00    +0.000 A 
ATOM     14  C   UNL     1       9.916  12.072  18.390  0.00  0.00    +0.000 A 
ATOM     15  N   UNL     1      10.418  12.889  17.373  0.00  0.00    +0.000 N 
ATOM     16  H   UNL     1      10.681  12.514  16.473  0.00  0.00    +0.000 HD
ENDBRANCH   1  12
BRANCH   2  17
ATOM     17  C   UNL     1       7.862   6.546  17.897  0.00  0.00    +0.000 C 
ATOM     18  C   UNL     1       7.283   6.104  16.568  0.00  0.00    +0.000 C 
ATOM     19  C   UNL     1       5.918   5.573  16.907  0.00  0.00    +0.000 C 
ATOM     20  O   UNL     1       5.117   5.246  16.044  0.00  0.00    +0.000 OA
ATOM     21  N   UNL     1       5.788   5.514  18.297  0.00  0.00    +0.000 N 
ATOM     22  C   UNL     1       6.999   5.925  18.969  0.00  0.00    +0.000 C 
BRANCH  21  23
ATOM     23  C   UNL     1       4.702   4.928  19.007  0.00  0.00    +0.000 A 
ATOM     24  C   UNL     1       4.638   3.549  19.248  0.00  0.00    +0.000 A 
ATOM     25  C   UNL     1       3.592   2.992  19.990  0.00  0.00    +0.000 A 
ATOM     26  C   UNL     1       2.583   3.805  20.493  0.00  0.00    +0.000 A 
ATOM     27  C   UNL     1       2.621   5.171  20.243  0.00  0.00    +0.000 A 
ATOM     28 CL   UNL     1       1.371   6.188  20.850  0.00  0.00    +0.000 Cl
ATOM     29  C   UNL     1       3.667   5.731  19.508  0.00  0.00    +0.000 A 
ENDBRANCH  21  23
ENDBRANCH   2  17
TORSDOF 3
ENDMDL
MODEL 8
REMARK VINA RESULT:      -8.5      6.106      7.892
REMARK  Name = 
REMARK  3 active torsions:
REMARK  status: ('A' for Active; 'I' for Inactive)
REMARK    1  A    between atoms: C_8  and  N_9
REMARK    2  A    between atoms: C_10  and  C_12
REMARK    3  A    between atoms: N_16  and  C_17
REMARK                            x       y       z     vdW  Elec       q    Type
REMARK                         _______ _______ _______ _____ _____    ______ ____
ROOT
ATOM      1  N   UNL     1       8.840   8.543  18.910  0.00  0.00    +0.000 N 
ATOM      2  C   UNL     1       7.887   8.119  17.994  0.00  0.00    +0.000 C 
ATOM      3  O   UNL     1       7.197   8.833  17.275  0.00  0.00    +0.000 OA
ATOM      4  H   UNL     1       9.356   7.838  19.426  0.00  0.00    +0.000 HD
ENDROOT
BRANCH   1  12
ATOM      5  O   UNL     1      11.194  14.857  16.619  0.00  0.00    +0.000 OA
ATOM      6  C   UNL     1      10.734  14.164  17.523  0.00  0.00    +0.000 C 
ATOM      7  C   UNL     1      10.325  14.727  18.882  0.00  0.00    +0.000 C 
ATOM      8  O   UNL     1      10.217  13.850  19.990  0.00  0.00    +0.000 OA
ATOM      9  C   UNL     1       9.870  12.570  19.660  0.00  0.00    +0.000 A 
ATOM     10  C   UNL     1       9.433  11.770  20.705  0.00  0.00    +0.000 A 
ATOM     11  C   UNL     1       9.088  10.441  20.467  0.00  0.00    +0.000 A 
ATOM     12  C   UNL     1       9.186   9.887  19.189  0.00  0.00    +0.000 A 
ATOM     13  C   UNL     1       9.650  10.694  18.137  0.00  0.00    +0.000 A 
ATOM     14  C   UNL     1       9.987  12.033  18.378  0.00  0.00    +0.000 A 
ATOM     15  N   UNL     1      10.470  12.832  17.338  0.00  0.00    +0.000 N 
ATOM     16  H   UNL     1      10.664  12.453  16.423  0.00  0.00    +0.000 HD
ENDBRANCH   1  12
BRANCH   2  17
ATOM     17  C   UNL     1       7.708   6.618  17.888  0.00  0.00    +0.000 C 
ATOM     18  C   UNL     1       7.245   6.183  16.512  0.00  0.00    +0.000 C 
ATOM     19  C   UNL     1       5.813   5.770  16.708  0.00  0.00    +0.000 C 
ATOM     20  O   UNL     1       5.089   5.481  15.767  0.00  0.00    +0.000 OA
ATOM     21  N   UNL     1       5.527   5.762  18.075  0.00  0.00    +0.000 N 
ATOM     22  C   UNL     1       6.685   6.098  18.870  0.00  0.00    +0.000 C 
BRANCH  21  23
ATOM     23  C   UNL     1       4.326   5.284  18.671  0.00  0.00    +0.000 A 
ATOM     24  C   UNL     1       3.445   6.141  19.344  0.00  0.00    +0.000 A 
ATOM     25  C   UNL     1       2.244   5.669  19.881  0.00  0.00    +0.000 A 
ATOM     26  C   UNL     1       1.909   4.325  19.765  0.00  0.00    +0.000 A 
ATOM     27  C   UNL     1       2.783   3.458  19.121  0.00  0.00    +0.000 A 
ATOM     28 CL   UNL     1       2.385   1.788  18.981  0.00  0.00    +0.000 Cl
ATOM     29  C   UNL     1       3.979   3.928  18.578  0.00  0.00    +0.000 A 
ENDBRANCH  21  23
ENDBRANCH   2  17
TORSDOF 3
ENDMDL
MODEL 9
REMARK VINA RESULT:      -8.3      6.118      7.510
REMARK  Name = 
REMARK  3 active torsions:
REMARK  status: ('A' for Active; 'I' for Inactive)
REMARK    1  A    between atoms: C_8  and  N_9
REMARK    2  A    between atoms: C_10  and  C_12
REMARK    3  A    between atoms: N_16  and  C_17
REMARK                            x       y       z     vdW  Elec       q    Type
REMARK                         _______ _______ _______ _____ _____    ______ ____
ROOT
ATOM      1  N   UNL     1       8.772   8.326  18.874  0.00  0.00    +0.000 N 
ATOM      2  C   UNL     1       7.864   7.684  18.043  0.00  0.00    +0.000 C 
ATOM      3  O   UNL     1       7.116   8.216  17.231  0.00  0.00    +0.000 OA
ATOM      4  H   UNL     1       9.347   7.757  19.487  0.00  0.00    +0.000 HD
ENDROOT
BRANCH   1  12
ATOM      5  O   UNL     1       9.581  14.206  22.802  0.00  0.00    +0.000 OA
ATOM      6  C   UNL     1       9.599  13.657  21.703  0.00  0.00    +0.000 C 
ATOM      7  C   UNL     1      10.049  14.360  20.425  0.00  0.00    +0.000 C 
ATOM      8  O   UNL     1       9.649  13.837  19.169  0.00  0.00    +0.000 OA
ATOM      9  C   UNL     1       9.459  12.484  19.161  0.00  0.00    +0.000 A 
ATOM     10  C   UNL     1       9.395  11.886  17.912  0.00  0.00    +0.000 A 
ATOM     11  C   UNL     1       9.172  10.515  17.806  0.00  0.00    +0.000 A 
ATOM     12  C   UNL     1       8.995   9.722  18.943  0.00  0.00    +0.000 A 
ATOM     13  C   UNL     1       9.039  10.334  20.207  0.00  0.00    +0.000 A 
ATOM     14  C   UNL     1       9.274  11.713  20.310  0.00  0.00    +0.000 A 
ATOM     15  N   UNL     1       9.295  12.328  21.563  0.00  0.00    +0.000 N 
ATOM     16  H   UNL     1       9.066  11.823  22.407  0.00  0.00    +0.000 HD
ENDBRANCH   1  12
BRANCH   2  17
ATOM     17  C   UNL     1       7.821   6.175  18.169  0.00  0.00    +0.000 C 
ATOM     18  C   UNL     1       7.387   5.497  16.884  0.00  0.00    +0.000 C 
ATOM     19  C   UNL     1       6.000   4.994  17.172  0.00  0.00    +0.000 C 
ATOM     20  O   UNL     1       5.297   4.503  16.302  0.00  0.00    +0.000 OA
ATOM     21  N   UNL     1       5.728   5.169  18.531  0.00  0.00    +0.000 N 
ATOM     22  C   UNL     1       6.858   5.722  19.241  0.00  0.00    +0.000 C 
BRANCH  21  23
ATOM     23  C   UNL     1       4.580   4.683  19.219  0.00  0.00    +0.000 A 
ATOM     24  C   UNL     1       4.420   3.323  19.516  0.00  0.00    +0.000 A 
ATOM     25  C   UNL     1       3.313   2.865  20.236  0.00  0.00    +0.000 A 
ATOM     26  C   UNL     1       2.338   3.759  20.661  0.00  0.00    +0.000 A 
ATOM     27  C   UNL     1       2.470   5.108  20.353  0.00  0.00    +0.000 A 
ATOM     28 CL   UNL     1       1.263   6.225  20.862  0.00  0.00    +0.000 Cl
ATOM     29  C   UNL     1       3.577   5.569  19.640  0.00  0.00    +0.000 A 
ENDBRANCH  21  23
ENDBRANCH   2  17
TORSDOF 3
ENDMDL
