MODEL 1
REMARK VINA RESULT:      -8.7      0.000      0.000
REMARK  Name = 
REMARK  4 active torsions:
REMARK  status: ('A' for Active; 'I' for Inactive)
REMARK    1  A    between atoms: N_7  and  C_8
REMARK    2  A    between atoms: C_11  and  C_12
REMARK    3  A    between atoms: C_12  and  N_13
REMARK    4  A    between atoms: N_13  and  C_14
REMARK                            x       y       z     vdW  Elec       q    Type
REMARK                         _______ _______ _______ _____ _____    ______ ____
ROOT
ATOM      1  C   UNL     1       1.312   8.520  19.980  0.00  0.00    +0.000 C 
ENDROOT
BRANCH   1   5
ATOM      2  C   UNL     1       4.163   6.080  17.739  0.00  0.00    +0.000 A 
ATOM      3  C   UNL     1       3.655   5.640  18.962  0.00  0.00    +0.000 A 
ATOM      4  C   UNL     1       2.731   6.418  19.679  0.00  0.00    +0.000 A 
ATOM      5  C   UNL     1       2.289   7.654  19.180  0.00  0.00    +0.000 A 
ATOM      6  C   UNL     1       2.815   8.088  17.950  0.00  0.00    +0.000 A 
ATOM      7  C   UNL     1       3.739   7.305  17.229  0.00  0.00    +0.000 A 
BRANCH   2  14
ATOM      8  O   UNL     1       7.063   6.934  17.042  0.00  0.00    +0.000 OA
ATOM      9  S   UNL     1       6.765   5.524  17.151  0.00  0.00    +0.000 S 
ATOM     10  O   UNL     1       7.306   4.685  18.198  0.00  0.00    +0.000 OA
ATOM     11  C   UNL     1       7.058   4.718  15.588  0.00  0.00    +0.000 C 
ATOM     12  C   UNL     1       5.809   3.875  15.284  0.00  0.00    +0.000 C 
ATOM     13  C   UNL     1       4.815   3.972  16.457  0.00  0.00    +0.000 C 
ATOM     14  N   UNL     1       5.104   5.266  17.061  0.00  0.00    +0.000 N 
ENDBRANCH   2  14
ENDBRANCH   1   5
BRANCH   1  15
ATOM     15  N   UNL     1       1.030   9.713  19.200  0.00  0.00    +0.000 N 
ATOM     16  H   UNL     1       1.875  10.256  19.049  0.00  0.00    +0.000 HD
BRANCH  15  17
ATOM     17  C   UNL     1      -0.011  10.588  19.564  0.00  0.00    +0.000 A 
ATOM     18  N   UNL     1       0.045  11.292  20.704  0.00  0.00    +0.000 NA
ATOM     19  C   UNL     1      -1.004  12.104  20.957  0.00  0.00    +0.000 A 
ATOM     20  N   UNL     1      -2.096  12.262  20.203  0.00  0.00    +0.000 NA
ATOM     21  C   UNL     1      -2.165  11.540  19.087  0.00  0.00    +0.000 A 
ATOM     22  C   UNL     1      -3.300  11.624  18.285  0.00  0.00    +0.000 A 
ATOM     23  C   UNL     1      -3.418  10.861  17.124  0.00  0.00    +0.000 A 
ATOM     24  F   UNL     1      -4.536  10.940  16.393  0.00  0.00    +0.000 F 
ATOM     25  C   UNL     1      -2.393  10.018  16.738  0.00  0.00    +0.000 A 
ATOM     26  F   UNL     1      -2.499   9.278  15.624  0.00  0.00    +0.000 F 
ATOM     27  C   UNL     1      -1.247   9.921  17.513  0.00  0.00    +0.000 A 
ATOM     28  C   UNL     1      -1.125  10.675  18.702  0.00  0.00    +0.000 A 
ENDBRANCH  15  17
ENDBRANCH   1  15
TORSDOF 4
ENDMDL
MODEL 2
REMARK VINA RESULT:      -8.7      0.394      1.005
REMARK  Name = 
REMARK  4 active torsions:
REMARK  status: ('A' for Active; 'I' for Inactive)
REMARK    1  A    between atoms: N_7  and  C_8
REMARK    2  A    between atoms: C_11  and  C_12
REMARK    3  A    between atoms: C_12  and  N_13
REMARK    4  A    between atoms: N_13  and  C_14
REMARK                            x       y       z     vdW  Elec       q    Type
REMARK                         _______ _______ _______ _____ _____    ______ ____
ROOT
ATOM      1  C   UNL     1       1.122   8.698  20.029  0.00  0.00    +0.000 C 
ENDROOT
BRANCH   1   5
ATOM      2  C   UNL     1       4.014   6.120  18.005  0.00  0.00    +0.000 A 
ATOM      3  C   UNL     1       3.612   7.328  17.432  0.00  0.00    +0.000 A 
ATOM      4  C   UNL     1       2.691   8.162  18.086  0.00  0.00    +0.000 A 
ATOM      5  C   UNL     1       2.156   7.807  19.335  0.00  0.00    +0.000 A 
ATOM      6  C   UNL     1       2.564   6.584  19.896  0.00  0.00    +0.000 A 
ATOM      7  C   UNL     1       3.492   5.749  19.242  0.00  0.00    +0.000 A 
BRANCH   2  14
ATOM      8  O   UNL     1       7.021   6.778  17.623  0.00  0.00    +0.000 OA
ATOM      9  S   UNL     1       6.599   5.399  17.537  0.00  0.00    +0.000 S 
ATOM     10  O   UNL     1       6.982   4.397  18.508  0.00  0.00    +0.000 OA
ATOM     11  C   UNL     1       6.949   4.756  15.911  0.00  0.00    +0.000 C 
ATOM     12  C   UNL     1       5.663   4.073  15.419  0.00  0.00    +0.000 C 
ATOM     13  C   UNL     1       4.589   4.124  16.522  0.00  0.00    +0.000 C 
ATOM     14  N   UNL     1       4.935   5.307  17.300  0.00  0.00    +0.000 N 
ENDBRANCH   2  14
ENDBRANCH   1   5
BRANCH   1  15
ATOM     15  N   UNL     1       0.643   9.668  19.058  0.00  0.00    +0.000 N 
ATOM     16  H   UNL     1       1.416  10.196  18.662  0.00  0.00    +0.000 HD
BRANCH  15  17
ATOM     17  C   UNL     1      -0.397  10.559  19.377  0.00  0.00    +0.000 A 
ATOM     18  N   UNL     1      -0.380  11.261  20.520  0.00  0.00    +0.000 NA
ATOM     19  C   UNL     1      -1.426  12.090  20.729  0.00  0.00    +0.000 A 
ATOM     20  N   UNL     1      -2.480  12.269  19.927  0.00  0.00    +0.000 NA
ATOM     21  C   UNL     1      -2.511  11.550  18.807  0.00  0.00    +0.000 A 
ATOM     22  C   UNL     1      -3.607  11.655  17.954  0.00  0.00    +0.000 A 
ATOM     23  C   UNL     1      -3.686  10.896  16.788  0.00  0.00    +0.000 A 
ATOM     24  F   UNL     1      -4.769  10.996  16.007  0.00  0.00    +0.000 F 
ATOM     25  C   UNL     1      -2.659  10.036  16.446  0.00  0.00    +0.000 A 
ATOM     26  F   UNL     1      -2.727   9.301  15.326  0.00  0.00    +0.000 F 
ATOM     27  C   UNL     1      -1.551   9.918  17.271  0.00  0.00    +0.000 A 
ATOM     28  C   UNL     1      -1.470  10.668  18.466  0.00  0.00    +0.000 A 
ENDBRANCH  15  17
ENDBRANCH   1  15
TORSDOF 4
ENDMDL
MODEL 3
REMARK VINA RESULT:      -8.6      2.787      3.617
REMARK  Name = 
REMARK  4 active torsions:
REMARK  status: ('A' for Active; 'I' for Inactive)
REMARK    1  A    between atoms: N_7  and  C_8
REMARK    2  A    between atoms: C_11  and  C_12
REMARK    3  A    between atoms: C_12  and  N_13
REMARK    4  A    between atoms: N_13  and  C_14
REMARK                            x       y       z     vdW  Elec       q    Type
REMARK                         _______ _______ _______ _____ _____    ______ ____
ROOT
ATOM      1  C   UNL     1       1.738   5.754  20.471  0.00  0.00    +0.000 C 
ENDROOT
BRANCH   1   5
ATOM      2  C   UNL     1       4.597   4.745  17.323  0.00  0.00    +0.000 A 
ATOM      3  C   UNL     1       5.033   5.267  18.542  0.00  0.00    +0.000 A 
ATOM      4  C   UNL     1       4.117   5.582  19.558  0.00  0.00    +0.000 A 
ATOM      5  C   UNL     1       2.740   5.374  19.378  0.00  0.00    +0.000 A 
ATOM      6  C   UNL     1       2.315   4.854  18.142  0.00  0.00    +0.000 A 
ATOM      7  C   UNL     1       3.235   4.534  17.124  0.00  0.00    +0.000 A 
BRANCH   2  14
ATOM      8  O   UNL     1       6.909   6.641  16.495  0.00  0.00    +0.000 OA
ATOM      9  S   UNL     1       7.056   5.224  16.252  0.00  0.00    +0.000 S 
ATOM     10  O   UNL     1       8.028   4.404  16.942  0.00  0.00    +0.000 OA
ATOM     11  C   UNL     1       7.219   4.921  14.502  0.00  0.00    +0.000 C 
ATOM     12  C   UNL     1       6.227   3.800  14.153  0.00  0.00    +0.000 C 
ATOM     13  C   UNL     1       5.527   3.304  15.433  0.00  0.00    +0.000 C 
ATOM     14  N   UNL     1       5.560   4.456  16.324  0.00  0.00    +0.000 N 
ENDBRANCH   2  14
ENDBRANCH   1   5
BRANCH   1  15
ATOM     15  N   UNL     1       2.003   7.128  20.863  0.00  0.00    +0.000 N 
ATOM     16  H   UNL     1       1.697   7.299  21.816  0.00  0.00    +0.000 HD
BRANCH  15  17
ATOM     17  C   UNL     1       1.590   8.204  20.056  0.00  0.00    +0.000 A 
ATOM     18  N   UNL     1       2.006   8.315  18.786  0.00  0.00    +0.000 NA
ATOM     19  C   UNL     1       1.548   9.383  18.097  0.00  0.00    +0.000 A 
ATOM     20  N   UNL     1       0.742  10.346  18.555  0.00  0.00    +0.000 NA
ATOM     21  C   UNL     1       0.354  10.251  19.824  0.00  0.00    +0.000 A 
ATOM     22  C   UNL     1      -0.446  11.251  20.373  0.00  0.00    +0.000 A 
ATOM     23  C   UNL     1      -0.847  11.198  21.707  0.00  0.00    +0.000 A 
ATOM     24  F   UNL     1      -1.589  12.192  22.213  0.00  0.00    +0.000 F 
ATOM     25  C   UNL     1      -0.473  10.134  22.506  0.00  0.00    +0.000 A 
ATOM     26  F   UNL     1      -0.853  10.077  23.790  0.00  0.00    +0.000 F 
ATOM     27  C   UNL     1       0.316   9.120  21.983  0.00  0.00    +0.000 A 
ATOM     28  C   UNL     1       0.745   9.173  20.638  0.00  0.00    +0.000 A 
ENDBRANCH  15  17
ENDBRANCH   1  15
TORSDOF 4
ENDMDL
MODEL 4
REMARK VINA RESULT:      -8.6      2.224      2.558
REMARK  Name = 
REMARK  4 active torsions:
REMARK  status: ('A' for Active; 'I' for Inactive)
REMARK    1  A    between atoms: N_7  and  C_8
REMARK    2  A    between atoms: C_11  and  C_12
REMARK    3  A    between atoms: C_12  and  N_13
REMARK    4  A    between atoms: N_13  and  C_14
REMARK                            x       y       z     vdW  Elec       q    Type
REMARK                         _______ _______ _______ _____ _____    ______ ____
ROOT
ATOM      1  C   UNL     1       1.078   9.508  20.416  0.00  0.00    +0.000 C 
ENDROOT
BRANCH   1   5
ATOM      2  C   UNL     1       2.686   5.610  19.264  0.00  0.00    +0.000 A 
ATOM      3  C   UNL     1       2.031   5.779  20.485  0.00  0.00    +0.000 A 
ATOM      4  C   UNL     1       1.504   7.028  20.852  0.00  0.00    +0.000 A 
ATOM      5  C   UNL     1       1.617   8.137  19.999  0.00  0.00    +0.000 A 
ATOM      6  C   UNL     1       2.286   7.954  18.775  0.00  0.00    +0.000 A 
ATOM      7  C   UNL     1       2.811   6.700  18.406  0.00  0.00    +0.000 A 
BRANCH   2  14
ATOM      8  O   UNL     1       1.433   3.642  17.221  0.00  0.00    +0.000 OA
ATOM      9  S   UNL     1       2.843   3.528  17.515  0.00  0.00    +0.000 S 
ATOM     10  O   UNL     1       3.876   3.817  16.544  0.00  0.00    +0.000 OA
ATOM     11  C   UNL     1       3.187   1.931  18.229  0.00  0.00    +0.000 C 
ATOM     12  C   UNL     1       4.027   2.183  19.492  0.00  0.00    +0.000 C 
ATOM     13  C   UNL     1       4.325   3.688  19.630  0.00  0.00    +0.000 C 
ATOM     14  N   UNL     1       3.212   4.334  18.946  0.00  0.00    +0.000 N 
ENDBRANCH   2  14
ENDBRANCH   1   5
BRANCH   1  15
ATOM     15  N   UNL     1       0.352  10.066  19.287  0.00  0.00    +0.000 N 
ATOM     16  H   UNL     1       0.982  10.549  18.655  0.00  0.00    +0.000 HD
BRANCH  15  17
ATOM     17  C   UNL     1      -0.791  10.862  19.483  0.00  0.00    +0.000 A 
ATOM     18  N   UNL     1      -0.948  11.583  20.604  0.00  0.00    +0.000 NA
ATOM     19  C   UNL     1      -2.079  12.315  20.691  0.00  0.00    +0.000 A 
ATOM     20  N   UNL     1      -3.064  12.380  19.788  0.00  0.00    +0.000 NA
ATOM     21  C   UNL     1      -2.921  11.641  18.690  0.00  0.00    +0.000 A 
ATOM     22  C   UNL     1      -3.936  11.629  17.736  0.00  0.00    +0.000 A 
ATOM     23  C   UNL     1      -3.832  10.844  16.588  0.00  0.00    +0.000 A 
ATOM     24  F   UNL     1      -4.840  10.829  15.707  0.00  0.00    +0.000 F 
ATOM     25  C   UNL     1      -2.704  10.078  16.367  0.00  0.00    +0.000 A 
ATOM     26  F   UNL     1      -2.597   9.319  15.267  0.00  0.00    +0.000 F 
ATOM     27  C   UNL     1      -1.674  10.078  17.296  0.00  0.00    +0.000 A 
ATOM     28  C   UNL     1      -1.776  10.854  18.473  0.00  0.00    +0.000 A 
ENDBRANCH  15  17
ENDBRANCH   1  15
TORSDOF 4
ENDMDL
MODEL 5
REMARK VINA RESULT:      -8.5      4.715      8.910
REMARK  Name = 
REMARK  4 active torsions:
REMARK  status: ('A' for Active; 'I' for Inactive)
REMARK    1  A    between atoms: N_7  and  C_8
REMARK    2  A    between atoms: C_11  and  C_12
REMARK    3  A    between atoms: C_12  and  N_13
REMARK    4  A    between atoms: N_13  and  C_14
REMARK                            x       y       z     vdW  Elec       q    Type
REMARK                         _______ _______ _______ _____ _____    ______ ____
ROOT
ATOM      1  C   UNL     1       2.814   5.468  19.705  0.00  0.00    +0.000 C 
ENDROOT
BRANCH   1   5
ATOM      2  C   UNL     1       1.222   9.515  19.268  0.00  0.00    +0.000 A 
ATOM      3  C   UNL     1       1.179   8.861  20.500  0.00  0.00    +0.000 A 
ATOM      4  C   UNL     1       1.699   7.565  20.645  0.00  0.00    +0.000 A 
ATOM      5  C   UNL     1       2.283   6.896  19.557  0.00  0.00    +0.000 A 
ATOM      6  C   UNL     1       2.313   7.565  18.319  0.00  0.00    +0.000 A 
ATOM      7  C   UNL     1       1.794   8.867  18.176  0.00  0.00    +0.000 A 
BRANCH   2  14
ATOM      8  O   UNL     1      -1.663  10.147  18.320  0.00  0.00    +0.000 OA
ATOM      9  S   UNL     1      -0.987  11.107  19.163  0.00  0.00    +0.000 S 
ATOM     10  O   UNL     1      -1.408  11.401  20.515  0.00  0.00    +0.000 OA
ATOM     11  C   UNL     1      -0.796  12.652  18.294  0.00  0.00    +0.000 C 
ATOM     12  C   UNL     1       0.675  13.069  18.450  0.00  0.00    +0.000 C 
ATOM     13  C   UNL     1       1.412  12.059  19.350  0.00  0.00    +0.000 C 
ATOM     14  N   UNL     1       0.671  10.817  19.170  0.00  0.00    +0.000 N 
ENDBRANCH   2  14
ENDBRANCH   1   5
BRANCH   1  15
ATOM     15  N   UNL     1       3.517   5.123  18.480  0.00  0.00    +0.000 N 
ATOM     16  H   UNL     1       3.206   4.223  18.126  0.00  0.00    +0.000 HD
BRANCH  15  17
ATOM     17  C   UNL     1       4.921   5.177  18.411  0.00  0.00    +0.000 A 
ATOM     18  N   UNL     1       5.655   5.472  19.493  0.00  0.00    +0.000 NA
ATOM     19  C   UNL     1       6.995   5.495  19.319  0.00  0.00    +0.000 A 
ATOM     20  N   UNL     1       7.659   5.273  18.180  0.00  0.00    +0.000 NA
ATOM     21  C   UNL     1       6.927   5.009  17.100  0.00  0.00    +0.000 A 
ATOM     22  C   UNL     1       7.560   4.818  15.874  0.00  0.00    +0.000 A 
ATOM     23  C   UNL     1       6.823   4.568  14.717  0.00  0.00    +0.000 A 
ATOM     24  F   UNL     1       7.459   4.422  13.548  0.00  0.00    +0.000 F 
ATOM     25  C   UNL     1       5.444   4.485  14.773  0.00  0.00    +0.000 A 
ATOM     26  F   UNL     1       4.728   4.247  13.665  0.00  0.00    +0.000 F 
ATOM     27  C   UNL     1       4.789   4.662  15.983  0.00  0.00    +0.000 A 
ATOM     28  C   UNL     1       5.524   4.935  17.158  0.00  0.00    +0.000 A 
ENDBRANCH  15  17
ENDBRANCH   1  15
TORSDOF 4
ENDMDL
MODEL 6
REMARK VINA RESULT:      -8.4      2.021      2.466
REMARK  Name = 
REMARK  4 active torsions:
REMARK  status: ('A' for Active; 'I' for Inactive)
REMARK    1  A    between atoms: N_7  and  C_8
REMARK    2  A    between atoms: C_11  and  C_12
REMARK    3  A    between atoms: C_12  and  N_13
REMARK    4  A    between atoms: N_13  and  C_14
REMARK                            x       y       z     vdW  Elec       q    Type
REMARK                         _______ _______ _______ _____ _____    ______ ____
ROOT
ATOM      1  C   UNL     1       1.965   9.835  18.132  0.00  0.00    +0.000 C 
ENDROOT
BRANCH   1   5
ATOM      2  C   UNL     1       3.332   5.700  18.500  0.00  0.00    +0.000 A 
ATOM      3  C   UNL     1       2.456   6.247  19.438  0.00  0.00    +0.000 A 
ATOM      4  C   UNL     1       2.007   7.573  19.316  0.00  0.00    +0.000 A 
ATOM      5  C   UNL     1       2.423   8.378  18.243  0.00  0.00    +0.000 A 
ATOM      6  C   UNL     1       3.312   7.815  17.310  0.00  0.00    +0.000 A 
ATOM      7  C   UNL     1       3.758   6.484  17.431  0.00  0.00    +0.000 A 
BRANCH   2  14
ATOM      8  O   UNL     1       2.166   3.251  16.994  0.00  0.00    +0.000 OA
ATOM      9  S   UNL     1       3.508   3.162  17.523  0.00  0.00    +0.000 S 
ATOM     10  O   UNL     1       4.682   3.072  16.681  0.00  0.00    +0.000 OA
ATOM     11  C   UNL     1       3.598   1.861  18.739  0.00  0.00    +0.000 C 
ATOM     12  C   UNL     1       4.288   2.459  19.976  0.00  0.00    +0.000 C 
ATOM     13  C   UNL     1       4.712   3.911  19.688  0.00  0.00    +0.000 C 
ATOM     14  N   UNL     1       3.766   4.362  18.675  0.00  0.00    +0.000 N 
ENDBRANCH   2  14
ENDBRANCH   1   5
BRANCH   1  15
ATOM     15  N   UNL     1       0.541   9.836  17.840  0.00  0.00    +0.000 N 
ATOM     16  H   UNL     1       0.373  10.019  16.856  0.00  0.00    +0.000 HD
BRANCH  15  17
ATOM     17  C   UNL     1      -0.354  10.607  18.604  0.00  0.00    +0.000 A 
ATOM     18  N   UNL     1       0.003  11.098  19.800  0.00  0.00    +0.000 NA
ATOM     19  C   UNL     1      -0.930  11.828  20.449  0.00  0.00    +0.000 A 
ATOM     20  N   UNL     1      -2.172  12.093  20.034  0.00  0.00    +0.000 NA
ATOM     21  C   UNL     1      -2.536  11.580  18.861  0.00  0.00    +0.000 A 
ATOM     22  C   UNL     1      -3.834  11.780  18.398  0.00  0.00    +0.000 A 
ATOM     23  C   UNL     1      -4.257  11.233  17.187  0.00  0.00    +0.000 A 
ATOM     24  F   UNL     1      -5.521  11.416  16.786  0.00  0.00    +0.000 F 
ATOM     25  C   UNL     1      -3.382  10.496  16.412  0.00  0.00    +0.000 A 
ATOM     26  F   UNL     1      -3.781   9.965  15.248  0.00  0.00    +0.000 F 
ATOM     27  C   UNL     1      -2.080  10.288  16.844  0.00  0.00    +0.000 A 
ATOM     28  C   UNL     1      -1.646  10.821  18.079  0.00  0.00    +0.000 A 
ENDBRANCH  15  17
ENDBRANCH   1  15
TORSDOF 4
ENDMDL
MODEL 7
REMARK VINA RESULT:      -8.4      1.791      2.503
REMARK  Name = 
REMARK  4 active torsions:
REMARK  status: ('A' for Active; 'I' for Inactive)
REMARK    1  A    between atoms: N_7  and  C_8
REMARK    2  A    between atoms: C_11  and  C_12
REMARK    3  A    between atoms: C_12  and  N_13
REMARK    4  A    between atoms: N_13  and  C_14
REMARK                            x       y       z     vdW  Elec       q    Type
REMARK                         _______ _______ _______ _____ _____    ______ ____
ROOT
ATOM      1  C   UNL     1       1.784   6.778  20.550  0.00  0.00    +0.000 C 
ENDROOT
BRANCH   1   5
ATOM      2  C   UNL     1       4.623   5.293  17.577  0.00  0.00    +0.000 A 
ATOM      3  C   UNL     1       3.880   6.450  17.338  0.00  0.00    +0.000 A 
ATOM      4  C   UNL     1       2.975   6.934  18.296  0.00  0.00    +0.000 A 
ATOM      5  C   UNL     1       2.799   6.272  19.522  0.00  0.00    +0.000 A 
ATOM      6  C   UNL     1       3.549   5.103  19.745  0.00  0.00    +0.000 A 
ATOM      7  C   UNL     1       4.460   4.620  18.785  0.00  0.00    +0.000 A 
BRANCH   2  14
ATOM      8  O   UNL     1       7.188   6.787  16.676  0.00  0.00    +0.000 OA
ATOM      9  S   UNL     1       7.109   5.360  16.464  0.00  0.00    +0.000 S 
ATOM     10  O   UNL     1       7.952   4.413  17.160  0.00  0.00    +0.000 OA
ATOM     11  C   UNL     1       7.195   4.999  14.720  0.00  0.00    +0.000 C 
ATOM     12  C   UNL     1       6.034   4.039  14.409  0.00  0.00    +0.000 C 
ATOM     13  C   UNL     1       5.287   3.685  15.708  0.00  0.00    +0.000 C 
ATOM     14  N   UNL     1       5.513   4.836  16.572  0.00  0.00    +0.000 N 
ENDBRANCH   2  14
ENDBRANCH   1   5
BRANCH   1  15
ATOM     15  N   UNL     1       1.540   8.185  20.282  0.00  0.00    +0.000 N 
ATOM     16  H   UNL     1       2.390   8.649  19.977  0.00  0.00    +0.000 HD
BRANCH  15  17
ATOM     17  C   UNL     1       0.894   9.001  21.229  0.00  0.00    +0.000 A 
ATOM     18  N   UNL     1       1.057   8.796  22.544  0.00  0.00    +0.000 NA
ATOM     19  C   UNL     1       0.395   9.637  23.368  0.00  0.00    +0.000 A 
ATOM     20  N   UNL     1      -0.418  10.636  23.009  0.00  0.00    +0.000 NA
ATOM     21  C   UNL     1      -0.603  10.819  21.704  0.00  0.00    +0.000 A 
ATOM     22  C   UNL     1      -1.478  11.812  21.269  0.00  0.00    +0.000 A 
ATOM     23  C   UNL     1      -1.718  12.013  19.910  0.00  0.00    +0.000 A 
ATOM     24  F   UNL     1      -2.590  12.954  19.526  0.00  0.00    +0.000 F 
ATOM     25  C   UNL     1      -1.070  11.239  18.966  0.00  0.00    +0.000 A 
ATOM     26  F   UNL     1      -1.296  11.424  17.658  0.00  0.00    +0.000 F 
ATOM     27  C   UNL     1      -0.187  10.249  19.371  0.00  0.00    +0.000 A 
ATOM     28  C   UNL     1       0.048  10.023  20.746  0.00  0.00    +0.000 A 
ENDBRANCH  15  17
ENDBRANCH   1  15
TORSDOF 4
ENDMDL
MODEL 8
REMARK VINA RESULT:      -8.3      4.788      9.063
REMARK  Name = 
REMARK  4 active torsions:
REMARK  status: ('A' for Active; 'I' for Inactive)
REMARK    1  A    between atoms: N_7  and  C_8
REMARK    2  A    between atoms: C_11  and  C_12
REMARK    3  A    between atoms: C_12  and  N_13
REMARK    4  A    between atoms: N_13  and  C_14
REMARK                            x       y       z     vdW  Elec       q    Type
REMARK                         _______ _______ _______ _____ _____    ______ ____
ROOT
ATOM      1  C   UNL     1       1.918   8.651  17.703  0.00  0.00    +0.000 C 
ENDROOT
BRANCH   1   5
ATOM      2  C   UNL     1      -0.625  10.977  20.391  0.00  0.00    +0.000 A 
ATOM      3  C   UNL     1      -0.950  10.843  19.040  0.00  0.00    +0.000 A 
ATOM      4  C   UNL     1      -0.140  10.087  18.177  0.00  0.00    +0.000 A 
ATOM      5  C   UNL     1       1.013   9.442  18.652  0.00  0.00    +0.000 A 
ATOM      6  C   UNL     1       1.332   9.592  20.014  0.00  0.00    +0.000 A 
ATOM      7  C   UNL     1       0.516  10.347  20.880  0.00  0.00    +0.000 A 
BRANCH   2  14
ATOM      8  O   UNL     1      -0.989  10.562  23.444  0.00  0.00    +0.000 OA
ATOM      9  S   UNL     1      -1.265  11.866  22.886  0.00  0.00    +0.000 S 
ATOM     10  O   UNL     1      -0.463  13.033  23.180  0.00  0.00    +0.000 OA
ATOM     11  C   UNL     1      -2.977  12.290  23.149  0.00  0.00    +0.000 C 
ATOM     12  C   UNL     1      -3.528  12.765  21.795  0.00  0.00    +0.000 C 
ATOM     13  C   UNL     1      -2.401  12.776  20.746  0.00  0.00    +0.000 C 
ATOM     14  N   UNL     1      -1.468  11.761  21.218  0.00  0.00    +0.000 N 
ENDBRANCH   2  14
ENDBRANCH   1   5
BRANCH   1  15
ATOM     15  N   UNL     1       2.699   7.721  18.501  0.00  0.00    +0.000 N 
ATOM     16  H   UNL     1       3.344   8.217  19.108  0.00  0.00    +0.000 HD
BRANCH  15  17
ATOM     17  C   UNL     1       3.378   6.644  17.901  0.00  0.00    +0.000 A 
ATOM     18  N   UNL     1       4.361   6.856  17.014  0.00  0.00    +0.000 NA
ATOM     19  C   UNL     1       4.950   5.755  16.499  0.00  0.00    +0.000 A 
ATOM     20  N   UNL     1       4.642   4.481  16.767  0.00  0.00    +0.000 NA
ATOM     21  C   UNL     1       3.645   4.273  17.625  0.00  0.00    +0.000 A 
ATOM     22  C   UNL     1       3.245   2.969  17.906  0.00  0.00    +0.000 A 
ATOM     23  C   UNL     1       2.187   2.714  18.777  0.00  0.00    +0.000 A 
ATOM     24  F   UNL     1       1.806   1.450  19.001  0.00  0.00    +0.000 F 
ATOM     25  C   UNL     1       1.528   3.759  19.396  0.00  0.00    +0.000 A 
ATOM     26  F   UNL     1       0.508   3.523  20.234  0.00  0.00    +0.000 F 
ATOM     27  C   UNL     1       1.911   5.068  19.142  0.00  0.00    +0.000 A 
ATOM     28  C   UNL     1       2.969   5.338  18.245  0.00  0.00    +0.000 A 
ENDBRANCH  15  17
ENDBRANCH   1  15
TORSDOF 4
ENDMDL
MODEL 9
REMARK VINA RESULT:      -8.3      2.470      2.980
REMARK  Name = 
REMARK  4 active torsions:
REMARK  status: ('A' for Active; 'I' for Inactive)
REMARK    1  A    between atoms: N_7  and  C_8
REMARK    2  A    between atoms: C_11  and  C_12
REMARK    3  A    between atoms: C_12  and  N_13
REMARK    4  A    between atoms: N_13  and  C_14
REMARK                            x       y       z     vdW  Elec       q    Type
REMARK                         _______ _______ _______ _____ _____    ______ ____
ROOT
ATOM      1  C   UNL     1       1.934  10.017  18.191  0.00  0.00    +0.000 C 
ENDROOT
BRANCH   1   5
ATOM      2  C   UNL     1       2.940   5.807  18.795  0.00  0.00    +0.000 A 
ATOM      3  C   UNL     1       3.314   6.468  17.624  0.00  0.00    +0.000 A 
ATOM      4  C   UNL     1       3.000   7.824  17.433  0.00  0.00    +0.000 A 
ATOM      5  C   UNL     1       2.310   8.550  18.416  0.00  0.00    +0.000 A 
ATOM      6  C   UNL     1       1.933   7.869  19.588  0.00  0.00    +0.000 A 
ATOM      7  C   UNL     1       2.252   6.510  19.781  0.00  0.00    +0.000 A 
BRANCH   2  14
ATOM      8  O   UNL     1       0.894   3.554  19.398  0.00  0.00    +0.000 OA
ATOM      9  S   UNL     1       2.135   3.204  18.744  0.00  0.00    +0.000 S 
ATOM     10  O   UNL     1       2.198   2.728  17.379  0.00  0.00    +0.000 OA
ATOM     11  C   UNL     1       3.065   2.078  19.766  0.00  0.00    +0.000 C 
ATOM     12  C   UNL     1       4.496   2.634  19.848  0.00  0.00    +0.000 C 
ATOM     13  C   UNL     1       4.619   3.892  18.969  0.00  0.00    +0.000 C 
ATOM     14  N   UNL     1       3.267   4.435  18.935  0.00  0.00    +0.000 N 
ENDBRANCH   2  14
ENDBRANCH   1   5
BRANCH   1  15
ATOM     15  N   UNL     1       0.529  10.067  17.822  0.00  0.00    +0.000 N 
ATOM     16  H   UNL     1       0.419  10.335  16.849  0.00  0.00    +0.000 HD
BRANCH  15  17
ATOM     17  C   UNL     1      -0.398  10.788  18.598  0.00  0.00    +0.000 A 
ATOM     18  N   UNL     1      -0.061  11.276  19.800  0.00  0.00    +0.000 NA
ATOM     19  C   UNL     1      -1.024  11.955  20.461  0.00  0.00    +0.000 A 
ATOM     20  N   UNL     1      -2.278  12.173  20.050  0.00  0.00    +0.000 NA
ATOM     21  C   UNL     1      -2.620  11.662  18.870  0.00  0.00    +0.000 A 
ATOM     22  C   UNL     1      -3.926  11.812  18.410  0.00  0.00    +0.000 A 
ATOM     23  C   UNL     1      -4.326  11.265  17.192  0.00  0.00    +0.000 A 
ATOM     24  F   UNL     1      -5.598  11.399  16.795  0.00  0.00    +0.000 F 
ATOM     25  C   UNL     1      -3.421  10.578  16.406  0.00  0.00    +0.000 A 
ATOM     26  F   UNL     1      -3.798  10.047  15.234  0.00  0.00    +0.000 F 
ATOM     27  C   UNL     1      -2.111  10.421  16.834  0.00  0.00    +0.000 A 
ATOM     28  C   UNL     1      -1.699  10.954  18.077  0.00  0.00    +0.000 A 
ENDBRANCH  15  17
ENDBRANCH   1  15
TORSDOF 4
ENDMDL
