MODEL 1
REMARK VINA RESULT:      -8.5      0.000      0.000
REMARK  Name = 
REMARK  6 active torsions:
REMARK  status: ('A' for Active; 'I' for Inactive)
REMARK    1  A    between atoms: C_1  and  O_2
REMARK    2  A    between atoms: O_2  and  C_3
REMARK    3  A    between atoms: C_3  and  C_4
REMARK    4  A    between atoms: C_8  and  S_9
REMARK    5  A    between atoms: S_9  and  N_12
REMARK    6  A    between atoms: C_16  and  C_17
REMARK                            x       y       z     vdW  Elec       q    Type
REMARK                         _______ _______ _______ _____ _____    ______ ____
ROOT
ATOM      1  N   UNL     1       5.230   4.413  16.337  0.00  0.00    +0.000 N 
ATOM      2  C   UNL     1       4.711   4.982  17.536  0.00  0.00    +0.000 A 
ATOM      3  N   UNL     1       4.867   4.404  18.701  0.00  0.00    +0.000 NA
ATOM      4  N   UNL     1       4.130   5.143  19.606  0.00  0.00    +0.000 NA
ATOM      5  C   UNL     1       3.522   6.083  18.916  0.00  0.00    +0.000 A 
ATOM      6  O   UNL     1       3.835   6.032  17.576  0.00  0.00    +0.000 OA
ATOM      7  H   UNL     1       5.335   3.418  16.528  0.00  0.00    +0.000 HD
ENDROOT
BRANCH   5   8
ATOM      8  C   UNL     1       2.535   7.061  19.367  0.00  0.00    +0.000 A 
ATOM      9  C   UNL     1       1.916   6.962  20.627  0.00  0.00    +0.000 A 
ATOM     10  C   UNL     1       1.012   7.937  21.069  0.00  0.00    +0.000 A 
ATOM     11  C   UNL     1       0.752   9.022  20.247  0.00  0.00    +0.000 A 
ATOM     12  C   UNL     1       1.377   9.145  19.010  0.00  0.00    +0.000 A 
ATOM     13  C   UNL     1       2.243   8.163  18.548  0.00  0.00    +0.000 A 
ATOM     14  C   UNL     1       1.002  10.419  18.324  0.00  0.00    +0.000 C 
ATOM     15  C   UNL     1       0.178  11.153  19.393  0.00  0.00    +0.000 C 
ATOM     16  C   UNL     1      -0.205  10.144  20.486  0.00  0.00    +0.000 C 
ENDBRANCH   5   8
BRANCH   1  17
ATOM     17  S   UNL     1       6.812   5.025  16.076  0.00  0.00    +0.000 S 
ATOM     18  O   UNL     1       7.729   4.153  16.761  0.00  0.00    +0.000 OA
ATOM     19  O   UNL     1       6.819   6.461  16.273  0.00  0.00    +0.000 OA
BRANCH  17  24
ATOM     20  C   UNL     1       6.373   3.417  12.371  0.00  0.00    +0.000 A 
ATOM     21  C   UNL     1       7.126   4.286  11.572  0.00  0.00    +0.000 A 
ATOM     22  C   UNL     1       7.841   5.346  12.144  0.00  0.00    +0.000 A 
ATOM     23  C   UNL     1       7.792   5.568  13.522  0.00  0.00    +0.000 A 
ATOM     24  C   UNL     1       7.001   4.736  14.319  0.00  0.00    +0.000 A 
ATOM     25  C   UNL     1       6.326   3.640  13.754  0.00  0.00    +0.000 A 
BRANCH  20  26
ATOM     26  C   UNL     1       5.559   2.313  11.740  0.00  0.00    +0.000 C 
BRANCH  26  28
ATOM     27  C   UNL     1       6.056   0.072  11.222  0.00  0.00    +0.000 C 
ATOM     28  O   UNL     1       6.402   1.435  10.998  0.00  0.00    +0.000 OA
ENDBRANCH  26  28
ENDBRANCH  20  26
ENDBRANCH  17  24
ENDBRANCH   1  17
TORSDOF 5
ENDMDL
MODEL 2
REMARK VINA RESULT:      -8.4      1.090      1.774
REMARK  Name = 
REMARK  6 active torsions:
REMARK  status: ('A' for Active; 'I' for Inactive)
REMARK    1  A    between atoms: C_1  and  O_2
REMARK    2  A    between atoms: O_2  and  C_3
REMARK    3  A    between atoms: C_3  and  C_4
REMARK    4  A    between atoms: C_8  and  S_9
REMARK    5  A    between atoms: S_9  and  N_12
REMARK    6  A    between atoms: C_16  and  C_17
REMARK                            x       y       z     vdW  Elec       q    Type
REMARK                         _______ _______ _______ _____ _____    ______ ____
ROOT
ATOM      1  N   UNL     1       4.819   4.890  16.191  0.00  0.00    +0.000 N 
ATOM      2  C   UNL     1       4.268   5.503  17.353  0.00  0.00    +0.000 A 
ATOM      3  N   UNL     1       4.209   4.880  18.504  0.00  0.00    +0.000 NA
ATOM      4  N   UNL     1       3.501   5.702  19.358  0.00  0.00    +0.000 NA
ATOM      5  C   UNL     1       3.120   6.742  18.649  0.00  0.00    +0.000 A 
ATOM      6  O   UNL     1       3.564   6.676  17.347  0.00  0.00    +0.000 OA
ATOM      7  H   UNL     1       4.751   3.886  16.351  0.00  0.00    +0.000 HD
ENDROOT
BRANCH   5   8
ATOM      8  C   UNL     1       2.252   7.852  19.036  0.00  0.00    +0.000 A 
ATOM      9  C   UNL     1       1.744   8.760  18.089  0.00  0.00    +0.000 A 
ATOM     10  C   UNL     1       0.869   9.788  18.468  0.00  0.00    +0.000 A 
ATOM     11  C   UNL     1       0.492   9.881  19.798  0.00  0.00    +0.000 A 
ATOM     12  C   UNL     1       0.967   8.974  20.740  0.00  0.00    +0.000 A 
ATOM     13  C   UNL     1       1.866   7.978  20.381  0.00  0.00    +0.000 A 
ATOM     14  C   UNL     1       0.382   9.221  22.093  0.00  0.00    +0.000 C 
ATOM     15  C   UNL     1      -0.659  10.316  21.819  0.00  0.00    +0.000 C 
ATOM     16  C   UNL     1      -0.379  10.916  20.433  0.00  0.00    +0.000 C 
ENDBRANCH   5   8
BRANCH   1  17
ATOM     17  S   UNL     1       6.495   5.253  16.118  0.00  0.00    +0.000 S 
ATOM     18  O   UNL     1       7.181   4.284  16.930  0.00  0.00    +0.000 OA
ATOM     19  O   UNL     1       6.693   6.680  16.284  0.00  0.00    +0.000 OA
BRANCH  17  24
ATOM     20  C   UNL     1       6.212   3.658  12.392  0.00  0.00    +0.000 A 
ATOM     21  C   UNL     1       7.240   4.314  11.703  0.00  0.00    +0.000 A 
ATOM     22  C   UNL     1       8.089   5.209  12.365  0.00  0.00    +0.000 A 
ATOM     23  C   UNL     1       7.905   5.483  13.722  0.00  0.00    +0.000 A 
ATOM     24  C   UNL     1       6.849   4.871  14.404  0.00  0.00    +0.000 A 
ATOM     25  C   UNL     1       6.030   3.932  13.755  0.00  0.00    +0.000 A 
BRANCH  20  26
ATOM     26  C   UNL     1       5.266   2.740  11.657  0.00  0.00    +0.000 C 
BRANCH  26  28
ATOM     27  C   UNL     1       3.331   3.169  10.390  0.00  0.00    +0.000 C 
ATOM     28  O   UNL     1       3.944   3.272  11.670  0.00  0.00    +0.000 OA
ENDBRANCH  26  28
ENDBRANCH  20  26
ENDBRANCH  17  24
ENDBRANCH   1  17
TORSDOF 5
ENDMDL
MODEL 3
REMARK VINA RESULT:      -8.2      3.256      4.654
REMARK  Name = 
REMARK  6 active torsions:
REMARK  status: ('A' for Active; 'I' for Inactive)
REMARK    1  A    between atoms: C_1  and  O_2
REMARK    2  A    between atoms: O_2  and  C_3
REMARK    3  A    between atoms: C_3  and  C_4
REMARK    4  A    between atoms: C_8  and  S_9
REMARK    5  A    between atoms: S_9  and  N_12
REMARK    6  A    between atoms: C_16  and  C_17
REMARK                            x       y       z     vdW  Elec       q    Type
REMARK                         _______ _______ _______ _____ _____    ______ ____
ROOT
ATOM      1  N   UNL     1       2.390   2.959  19.043  0.00  0.00    +0.000 N 
ATOM      2  C   UNL     1       2.365   4.259  19.626  0.00  0.00    +0.000 A 
ATOM      3  N   UNL     1       2.255   4.438  20.919  0.00  0.00    +0.000 NA
ATOM      4  N   UNL     1       2.123   5.798  21.116  0.00  0.00    +0.000 NA
ATOM      5  C   UNL     1       2.096   6.350  19.922  0.00  0.00    +0.000 A 
ATOM      6  O   UNL     1       2.231   5.421  18.915  0.00  0.00    +0.000 OA
ATOM      7  H   UNL     1       1.936   2.347  19.719  0.00  0.00    +0.000 HD
ENDROOT
BRANCH   5   8
ATOM      8  C   UNL     1       1.859   7.745  19.560  0.00  0.00    +0.000 A 
ATOM      9  C   UNL     1       2.205   8.250  18.292  0.00  0.00    +0.000 A 
ATOM     10  C   UNL     1       1.923   9.577  17.939  0.00  0.00    +0.000 A 
ATOM     11  C   UNL     1       1.273  10.384  18.859  0.00  0.00    +0.000 A 
ATOM     12  C   UNL     1       0.903   9.890  20.105  0.00  0.00    +0.000 A 
ATOM     13  C   UNL     1       1.214   8.589  20.478  0.00  0.00    +0.000 A 
ATOM     14  C   UNL     1       0.158  10.909  20.906  0.00  0.00    +0.000 C 
ATOM     15  C   UNL     1      -0.028  12.060  19.907  0.00  0.00    +0.000 C 
ATOM     16  C   UNL     1       0.921  11.830  18.721  0.00  0.00    +0.000 C 
ENDBRANCH   5   8
BRANCH   1  17
ATOM     17  S   UNL     1       4.022   2.434  18.938  0.00  0.00    +0.000 S 
ATOM     18  O   UNL     1       4.026   1.184  18.224  0.00  0.00    +0.000 OA
ATOM     19  O   UNL     1       4.669   2.590  20.225  0.00  0.00    +0.000 OA
BRANCH  17  24
ATOM     20  C   UNL     1       6.279   5.517  17.557  0.00  0.00    +0.000 A 
ATOM     21  C   UNL     1       5.926   5.568  16.202  0.00  0.00    +0.000 A 
ATOM     22  C   UNL     1       4.946   4.712  15.685  0.00  0.00    +0.000 A 
ATOM     23  C   UNL     1       4.322   3.772  16.509  0.00  0.00    +0.000 A 
ATOM     24  C   UNL     1       4.707   3.681  17.850  0.00  0.00    +0.000 A 
ATOM     25  C   UNL     1       5.651   4.575  18.384  0.00  0.00    +0.000 A 
BRANCH  20  26
ATOM     26  C   UNL     1       7.377   6.404  18.093  0.00  0.00    +0.000 C 
BRANCH  26  28
ATOM     27  C   UNL     1       7.982   8.658  17.803  0.00  0.00    +0.000 C 
ATOM     28  O   UNL     1       7.696   7.425  17.152  0.00  0.00    +0.000 OA
ENDBRANCH  26  28
ENDBRANCH  20  26
ENDBRANCH  17  24
ENDBRANCH   1  17
TORSDOF 5
ENDMDL
MODEL 4
REMARK VINA RESULT:      -8.2      0.939      1.096
REMARK  Name = 
REMARK  6 active torsions:
REMARK  status: ('A' for Active; 'I' for Inactive)
REMARK    1  A    between atoms: C_1  and  O_2
REMARK    2  A    between atoms: O_2  and  C_3
REMARK    3  A    between atoms: C_3  and  C_4
REMARK    4  A    between atoms: C_8  and  S_9
REMARK    5  A    between atoms: S_9  and  N_12
REMARK    6  A    between atoms: C_16  and  C_17
REMARK                            x       y       z     vdW  Elec       q    Type
REMARK                         _______ _______ _______ _____ _____    ______ ____
ROOT
ATOM      1  N   UNL     1       4.860   4.693  16.485  0.00  0.00    +0.000 N 
ATOM      2  C   UNL     1       4.324   5.237  17.688  0.00  0.00    +0.000 A 
ATOM      3  N   UNL     1       4.380   4.592  18.827  0.00  0.00    +0.000 NA
ATOM      4  N   UNL     1       3.653   5.336  19.735  0.00  0.00    +0.000 NA
ATOM      5  C   UNL     1       3.149   6.352  19.070  0.00  0.00    +0.000 A 
ATOM      6  O   UNL     1       3.525   6.347  17.745  0.00  0.00    +0.000 OA
ATOM      7  H   UNL     1       4.884   3.685  16.627  0.00  0.00    +0.000 HD
ENDROOT
BRANCH   5   8
ATOM      8  C   UNL     1       2.214   7.377  19.527  0.00  0.00    +0.000 A 
ATOM      9  C   UNL     1       1.643   7.338  20.813  0.00  0.00    +0.000 A 
ATOM     10  C   UNL     1       0.789   8.357  21.259  0.00  0.00    +0.000 A 
ATOM     11  C   UNL     1       0.533   9.424  20.412  0.00  0.00    +0.000 A 
ATOM     12  C   UNL     1       1.111   9.488  19.149  0.00  0.00    +0.000 A 
ATOM     13  C   UNL     1       1.925   8.463  18.685  0.00  0.00    +0.000 A 
ATOM     14  C   UNL     1       0.751  10.751  18.437  0.00  0.00    +0.000 C 
ATOM     15  C   UNL     1      -0.005  11.546  19.513  0.00  0.00    +0.000 C 
ATOM     16  C   UNL     1      -0.377  10.585  20.652  0.00  0.00    +0.000 C 
ENDBRANCH   5   8
BRANCH   1  17
ATOM     17  S   UNL     1       6.493   5.198  16.332  0.00  0.00    +0.000 S 
ATOM     18  O   UNL     1       7.299   4.288  17.103  0.00  0.00    +0.000 OA
ATOM     19  O   UNL     1       6.577   6.636  16.499  0.00  0.00    +0.000 OA
BRANCH  17  24
ATOM     20  C   UNL     1       6.074   3.705  12.577  0.00  0.00    +0.000 A 
ATOM     21  C   UNL     1       7.097   4.356  11.876  0.00  0.00    +0.000 A 
ATOM     22  C   UNL     1       7.983   5.215  12.536  0.00  0.00    +0.000 A 
ATOM     23  C   UNL     1       7.843   5.458  13.905  0.00  0.00    +0.000 A 
ATOM     24  C   UNL     1       6.792   4.853  14.600  0.00  0.00    +0.000 A 
ATOM     25  C   UNL     1       5.935   3.949  13.950  0.00  0.00    +0.000 A 
BRANCH  20  26
ATOM     26  C   UNL     1       5.087   2.827  11.846  0.00  0.00    +0.000 C 
BRANCH  26  28
ATOM     27  C   UNL     1       3.074   2.951  10.635  0.00  0.00    +0.000 C 
ATOM     28  O   UNL     1       4.300   3.603  10.946  0.00  0.00    +0.000 OA
ENDBRANCH  26  28
ENDBRANCH  20  26
ENDBRANCH  17  24
ENDBRANCH   1  17
TORSDOF 5
ENDMDL
MODEL 5
REMARK VINA RESULT:      -7.9      2.446      4.086
REMARK  Name = 
REMARK  6 active torsions:
REMARK  status: ('A' for Active; 'I' for Inactive)
REMARK    1  A    between atoms: C_1  and  O_2
REMARK    2  A    between atoms: O_2  and  C_3
REMARK    3  A    between atoms: C_3  and  C_4
REMARK    4  A    between atoms: C_8  and  S_9
REMARK    5  A    between atoms: S_9  and  N_12
REMARK    6  A    between atoms: C_16  and  C_17
REMARK                            x       y       z     vdW  Elec       q    Type
REMARK                         _______ _______ _______ _____ _____    ______ ____
ROOT
ATOM      1  N   UNL     1       2.233   2.952  18.901  0.00  0.00    +0.000 N 
ATOM      2  C   UNL     1       2.188   4.238  19.514  0.00  0.00    +0.000 A 
ATOM      3  N   UNL     1       1.932   4.391  20.789  0.00  0.00    +0.000 NA
ATOM      4  N   UNL     1       1.830   5.750  21.008  0.00  0.00    +0.000 NA
ATOM      5  C   UNL     1       1.965   6.331  19.836  0.00  0.00    +0.000 A 
ATOM      6  O   UNL     1       2.183   5.421  18.826  0.00  0.00    +0.000 OA
ATOM      7  H   UNL     1       1.678   2.344  19.501  0.00  0.00    +0.000 HD
ENDROOT
BRANCH   5   8
ATOM      8  C   UNL     1       1.826   7.743  19.488  0.00  0.00    +0.000 A 
ATOM      9  C   UNL     1       2.198   8.234  18.222  0.00  0.00    +0.000 A 
ATOM     10  C   UNL     1       2.009   9.581  17.883  0.00  0.00    +0.000 A 
ATOM     11  C   UNL     1       1.425  10.423  18.816  0.00  0.00    +0.000 A 
ATOM     12  C   UNL     1       1.030   9.946  20.061  0.00  0.00    +0.000 A 
ATOM     13  C   UNL     1       1.250   8.622  20.419  0.00  0.00    +0.000 A 
ATOM     14  C   UNL     1       0.366  11.007  20.877  0.00  0.00    +0.000 C 
ATOM     15  C   UNL     1       0.255  12.178  19.890  0.00  0.00    +0.000 C 
ATOM     16  C   UNL     1       1.177  11.892  18.694  0.00  0.00    +0.000 C 
ENDBRANCH   5   8
BRANCH   1  17
ATOM     17  S   UNL     1       3.844   2.364  18.973  0.00  0.00    +0.000 S 
ATOM     18  O   UNL     1       3.973   1.343  17.968  0.00  0.00    +0.000 OA
ATOM     19  O   UNL     1       4.220   2.140  20.355  0.00  0.00    +0.000 OA
BRANCH  17  24
ATOM     20  C   UNL     1       5.417   5.210  16.538  0.00  0.00    +0.000 A 
ATOM     21  C   UNL     1       6.028   6.082  17.448  0.00  0.00    +0.000 A 
ATOM     22  C   UNL     1       6.037   5.798  18.818  0.00  0.00    +0.000 A 
ATOM     23  C   UNL     1       5.410   4.648  19.304  0.00  0.00    +0.000 A 
ATOM     24  C   UNL     1       4.753   3.800  18.408  0.00  0.00    +0.000 A 
ATOM     25  C   UNL     1       4.789   4.056  17.027  0.00  0.00    +0.000 A 
BRANCH  20  26
ATOM     26  C   UNL     1       5.362   5.555  15.069  0.00  0.00    +0.000 C 
BRANCH  26  28
ATOM     27  C   UNL     1       6.451   4.034  13.644  0.00  0.00    +0.000 C 
ATOM     28  O   UNL     1       6.589   5.212  14.431  0.00  0.00    +0.000 OA
ENDBRANCH  26  28
ENDBRANCH  20  26
ENDBRANCH  17  24
ENDBRANCH   1  17
TORSDOF 5
ENDMDL
MODEL 6
REMARK VINA RESULT:      -7.9      2.004      3.130
REMARK  Name = 
REMARK  6 active torsions:
REMARK  status: ('A' for Active; 'I' for Inactive)
REMARK    1  A    between atoms: C_1  and  O_2
REMARK    2  A    between atoms: O_2  and  C_3
REMARK    3  A    between atoms: C_3  and  C_4
REMARK    4  A    between atoms: C_8  and  S_9
REMARK    5  A    between atoms: S_9  and  N_12
REMARK    6  A    between atoms: C_16  and  C_17
REMARK                            x       y       z     vdW  Elec       q    Type
REMARK                         _______ _______ _______ _____ _____    ______ ____
ROOT
ATOM      1  N   UNL     1       3.367   4.660  18.314  0.00  0.00    +0.000 N 
ATOM      2  C   UNL     1       2.701   5.418  19.321  0.00  0.00    +0.000 A 
ATOM      3  N   UNL     1       2.050   4.846  20.303  0.00  0.00    +0.000 NA
ATOM      4  N   UNL     1       1.420   5.859  20.998  0.00  0.00    +0.000 NA
ATOM      5  C   UNL     1       1.678   6.975  20.352  0.00  0.00    +0.000 A 
ATOM      6  O   UNL     1       2.483   6.767  19.254  0.00  0.00    +0.000 OA
ATOM      7  H   UNL     1       2.911   3.749  18.311  0.00  0.00    +0.000 HD
ENDROOT
BRANCH   5   8
ATOM      8  C   UNL     1       1.163   8.320  20.597  0.00  0.00    +0.000 A 
ATOM      9  C   UNL     1       1.222   9.326  19.614  0.00  0.00    +0.000 A 
ATOM     10  C   UNL     1       0.675  10.596  19.844  0.00  0.00    +0.000 A 
ATOM     11  C   UNL     1       0.050  10.839  21.057  0.00  0.00    +0.000 A 
ATOM     12  C   UNL     1      -0.038   9.845  22.026  0.00  0.00    +0.000 A 
ATOM     13  C   UNL     1       0.536   8.597  21.823  0.00  0.00    +0.000 A 
ATOM     14  C   UNL     1      -0.808  10.304  23.223  0.00  0.00    +0.000 C 
ATOM     15  C   UNL     1      -1.332  11.680  22.785  0.00  0.00    +0.000 C 
ATOM     16  C   UNL     1      -0.551  12.120  21.536  0.00  0.00    +0.000 C 
ENDBRANCH   5   8
BRANCH   1  17
ATOM     17  S   UNL     1       4.987   4.387  18.812  0.00  0.00    +0.000 S 
ATOM     18  O   UNL     1       5.073   3.025  19.267  0.00  0.00    +0.000 OA
ATOM     19  O   UNL     1       5.444   5.502  19.618  0.00  0.00    +0.000 OA
BRANCH  17  24
ATOM     20  C   UNL     1       5.774   4.143  14.833  0.00  0.00    +0.000 A 
ATOM     21  C   UNL     1       7.042   4.730  14.739  0.00  0.00    +0.000 A 
ATOM     22  C   UNL     1       7.721   5.156  15.886  0.00  0.00    +0.000 A 
ATOM     23  C   UNL     1       7.130   5.027  17.146  0.00  0.00    +0.000 A 
ATOM     24  C   UNL     1       5.843   4.490  17.242  0.00  0.00    +0.000 A 
ATOM     25  C   UNL     1       5.183   4.012  16.098  0.00  0.00    +0.000 A 
BRANCH  20  26
ATOM     26  C   UNL     1       5.025   3.740  13.586  0.00  0.00    +0.000 C 
BRANCH  26  28
ATOM     27  C   UNL     1       5.715   2.409  11.773  0.00  0.00    +0.000 C 
ATOM     28  O   UNL     1       5.920   3.626  12.483  0.00  0.00    +0.000 OA
ENDBRANCH  26  28
ENDBRANCH  20  26
ENDBRANCH  17  24
ENDBRANCH   1  17
TORSDOF 5
ENDMDL
MODEL 7
REMARK VINA RESULT:      -7.9      2.619      4.204
REMARK  Name = 
REMARK  6 active torsions:
REMARK  status: ('A' for Active; 'I' for Inactive)
REMARK    1  A    between atoms: C_1  and  O_2
REMARK    2  A    between atoms: O_2  and  C_3
REMARK    3  A    between atoms: C_3  and  C_4
REMARK    4  A    between atoms: C_8  and  S_9
REMARK    5  A    between atoms: S_9  and  N_12
REMARK    6  A    between atoms: C_16  and  C_17
REMARK                            x       y       z     vdW  Elec       q    Type
REMARK                         _______ _______ _______ _____ _____    ______ ____
ROOT
ATOM      1  N   UNL     1       3.638   6.371  19.566  0.00  0.00    +0.000 N 
ATOM      2  C   UNL     1       2.849   7.336  18.876  0.00  0.00    +0.000 A 
ATOM      3  N   UNL     1       3.304   7.989  17.835  0.00  0.00    +0.000 NA
ATOM      4  N   UNL     1       2.344   8.926  17.510  0.00  0.00    +0.000 NA
ATOM      5  C   UNL     1       1.396   8.823  18.416  0.00  0.00    +0.000 A 
ATOM      6  O   UNL     1       1.659   7.832  19.335  0.00  0.00    +0.000 OA
ATOM      7  H   UNL     1       4.606   6.609  19.357  0.00  0.00    +0.000 HD
ENDROOT
BRANCH   5   8
ATOM      8  C   UNL     1       0.209   9.654  18.603  0.00  0.00    +0.000 A 
ATOM      9  C   UNL     1       0.146  10.642  19.604  0.00  0.00    +0.000 A 
ATOM     10  C   UNL     1      -0.978  11.468  19.738  0.00  0.00    +0.000 A 
ATOM     11  C   UNL     1      -2.027  11.309  18.846  0.00  0.00    +0.000 A 
ATOM     12  C   UNL     1      -1.967  10.354  17.837  0.00  0.00    +0.000 A 
ATOM     13  C   UNL     1      -0.874   9.505  17.722  0.00  0.00    +0.000 A 
ATOM     14  C   UNL     1      -3.173  10.402  16.955  0.00  0.00    +0.000 C 
ATOM     15  C   UNL     1      -3.919  11.644  17.465  0.00  0.00    +0.000 C 
ATOM     16  C   UNL     1      -3.333  12.034  18.831  0.00  0.00    +0.000 C 
ENDBRANCH   5   8
BRANCH   1  17
ATOM     17  S   UNL     1       3.358   4.828  18.868  0.00  0.00    +0.000 S 
ATOM     18  O   UNL     1       2.230   4.955  17.983  0.00  0.00    +0.000 OA
ATOM     19  O   UNL     1       3.423   3.808  19.896  0.00  0.00    +0.000 OA
BRANCH  17  24
ATOM     20  C   UNL     1       5.761   4.308  15.633  0.00  0.00    +0.000 A 
ATOM     21  C   UNL     1       7.040   4.479  16.176  0.00  0.00    +0.000 A 
ATOM     22  C   UNL     1       7.214   4.691  17.549  0.00  0.00    +0.000 A 
ATOM     23  C   UNL     1       6.106   4.763  18.398  0.00  0.00    +0.000 A 
ATOM     24  C   UNL     1       4.823   4.646  17.855  0.00  0.00    +0.000 A 
ATOM     25  C   UNL     1       4.650   4.379  16.486  0.00  0.00    +0.000 A 
BRANCH  20  26
ATOM     26  C   UNL     1       5.580   4.138  14.144  0.00  0.00    +0.000 C 
BRANCH  26  28
ATOM     27  C   UNL     1       6.918   3.774  12.244  0.00  0.00    +0.000 C 
ATOM     28  O   UNL     1       6.770   4.510  13.453  0.00  0.00    +0.000 OA
ENDBRANCH  26  28
ENDBRANCH  20  26
ENDBRANCH  17  24
ENDBRANCH   1  17
TORSDOF 5
ENDMDL
MODEL 8
REMARK VINA RESULT:      -7.8      4.832      6.402
REMARK  Name = 
REMARK  6 active torsions:
REMARK  status: ('A' for Active; 'I' for Inactive)
REMARK    1  A    between atoms: C_1  and  O_2
REMARK    2  A    between atoms: O_2  and  C_3
REMARK    3  A    between atoms: C_3  and  C_4
REMARK    4  A    between atoms: C_8  and  S_9
REMARK    5  A    between atoms: S_9  and  N_12
REMARK    6  A    between atoms: C_16  and  C_17
REMARK                            x       y       z     vdW  Elec       q    Type
REMARK                         _______ _______ _______ _____ _____    ______ ____
ROOT
ATOM      1  N   UNL     1       3.571   6.526  18.788  0.00  0.00    +0.000 N 
ATOM      2  C   UNL     1       2.595   7.562  18.870  0.00  0.00    +0.000 A 
ATOM      3  N   UNL     1       2.458   8.462  17.928  0.00  0.00    +0.000 NA
ATOM      4  N   UNL     1       1.534   9.377  18.393  0.00  0.00    +0.000 NA
ATOM      5  C   UNL     1       1.221   9.007  19.615  0.00  0.00    +0.000 A 
ATOM      6  O   UNL     1       1.875   7.857  19.996  0.00  0.00    +0.000 OA
ATOM      7  H   UNL     1       4.286   6.873  18.151  0.00  0.00    +0.000 HD
ENDROOT
BRANCH   5   8
ATOM      8  C   UNL     1       0.376   9.687  20.594  0.00  0.00    +0.000 A 
ATOM      9  C   UNL     1       0.319   9.274  21.938  0.00  0.00    +0.000 A 
ATOM     10  C   UNL     1      -0.454   9.969  22.878  0.00  0.00    +0.000 A 
ATOM     11  C   UNL     1      -1.149  11.094  22.463  0.00  0.00    +0.000 A 
ATOM     12  C   UNL     1      -1.082  11.528  21.143  0.00  0.00    +0.000 A 
ATOM     13  C   UNL     1      -0.351  10.822  20.197  0.00  0.00    +0.000 A 
ATOM     14  C   UNL     1      -1.853  12.791  20.934  0.00  0.00    +0.000 C 
ATOM     15  C   UNL     1      -2.276  13.172  22.361  0.00  0.00    +0.000 C 
ATOM     16  C   UNL     1      -2.069  11.951  23.270  0.00  0.00    +0.000 C 
ENDBRANCH   5   8
BRANCH   1  17
ATOM     17  S   UNL     1       2.863   5.162  18.022  0.00  0.00    +0.000 S 
ATOM     18  O   UNL     1       3.797   4.692  17.034  0.00  0.00    +0.000 OA
ATOM     19  O   UNL     1       1.477   5.446  17.703  0.00  0.00    +0.000 OA
BRANCH  17  24
ATOM     20  C   UNL     1       3.970   2.122  20.479  0.00  0.00    +0.000 A 
ATOM     21  C   UNL     1       3.013   2.194  21.499  0.00  0.00    +0.000 A 
ATOM     22  C   UNL     1       1.968   3.122  21.437  0.00  0.00    +0.000 A 
ATOM     23  C   UNL     1       1.878   4.014  20.365  0.00  0.00    +0.000 A 
ATOM     24  C   UNL     1       2.860   3.983  19.370  0.00  0.00    +0.000 A 
ATOM     25  C   UNL     1       3.879   3.016  19.403  0.00  0.00    +0.000 A 
BRANCH  20  26
ATOM     26  C   UNL     1       5.127   1.157  20.584  0.00  0.00    +0.000 C 
BRANCH  26  28
ATOM     27  C   UNL     1       6.261  -0.036  22.264  0.00  0.00    +0.000 C 
ATOM     28  O   UNL     1       5.712   1.220  21.882  0.00  0.00    +0.000 OA
ENDBRANCH  26  28
ENDBRANCH  20  26
ENDBRANCH  17  24
ENDBRANCH   1  17
TORSDOF 5
ENDMDL
MODEL 9
REMARK VINA RESULT:      -7.8      4.940     11.136
REMARK  Name = 
REMARK  6 active torsions:
REMARK  status: ('A' for Active; 'I' for Inactive)
REMARK    1  A    between atoms: C_1  and  O_2
REMARK    2  A    between atoms: O_2  and  C_3
REMARK    3  A    between atoms: C_3  and  C_4
REMARK    4  A    between atoms: C_8  and  S_9
REMARK    5  A    between atoms: S_9  and  N_12
REMARK    6  A    between atoms: C_16  and  C_17
REMARK                            x       y       z     vdW  Elec       q    Type
REMARK                         _______ _______ _______ _____ _____    ______ ____
ROOT
ATOM      1  N   UNL     1       0.755  11.249  19.444  0.00  0.00    +0.000 N 
ATOM      2  C   UNL     1       1.089   9.871  19.581  0.00  0.00    +0.000 A 
ATOM      3  N   UNL     1       1.024   9.253  20.734  0.00  0.00    +0.000 NA
ATOM      4  N   UNL     1       1.544   7.990  20.531  0.00  0.00    +0.000 NA
ATOM      5  C   UNL     1       1.951   7.948  19.282  0.00  0.00    +0.000 A 
ATOM      6  O   UNL     1       1.706   9.126  18.613  0.00  0.00    +0.000 OA
ATOM      7  H   UNL     1       0.867  11.653  20.373  0.00  0.00    +0.000 HD
ENDROOT
BRANCH   5   8
ATOM      8  C   UNL     1       2.677   6.887  18.586  0.00  0.00    +0.000 A 
ATOM      9  C   UNL     1       2.317   5.533  18.720  0.00  0.00    +0.000 A 
ATOM     10  C   UNL     1       2.988   4.531  18.005  0.00  0.00    +0.000 A 
ATOM     11  C   UNL     1       4.005   4.902  17.140  0.00  0.00    +0.000 A 
ATOM     12  C   UNL     1       4.354   6.239  16.980  0.00  0.00    +0.000 A 
ATOM     13  C   UNL     1       3.722   7.233  17.714  0.00  0.00    +0.000 A 
ATOM     14  C   UNL     1       5.426   6.413  15.954  0.00  0.00    +0.000 C 
ATOM     15  C   UNL     1       5.579   4.998  15.375  0.00  0.00    +0.000 C 
ATOM     16  C   UNL     1       4.883   4.010  16.324  0.00  0.00    +0.000 C 
ENDBRANCH   5   8
BRANCH   1  17
ATOM     17  S   UNL     1      -0.915  11.376  19.062  0.00  0.00    +0.000 S 
ATOM     18  O   UNL     1      -1.414  10.040  18.871  0.00  0.00    +0.000 OA
ATOM     19  O   UNL     1      -1.112  12.423  18.080  0.00  0.00    +0.000 OA
BRANCH  17  24
ATOM     20  C   UNL     1      -3.485  12.851  21.841  0.00  0.00    +0.000 A 
ATOM     21  C   UNL     1      -2.717  12.818  23.012  0.00  0.00    +0.000 A 
ATOM     22  C   UNL     1      -1.379  12.409  22.979  0.00  0.00    +0.000 A 
ATOM     23  C   UNL     1      -0.794  12.001  21.778  0.00  0.00    +0.000 A 
ATOM     24  C   UNL     1      -1.570  11.982  20.615  0.00  0.00    +0.000 A 
ATOM     25  C   UNL     1      -2.897  12.443  20.636  0.00  0.00    +0.000 A 
BRANCH  20  26
ATOM     26  C   UNL     1      -4.944  13.238  21.896  0.00  0.00    +0.000 C 
BRANCH  26  28
ATOM     27  C   UNL     1      -6.975  12.287  21.187  0.00  0.00    +0.000 C 
ATOM     28  O   UNL     1      -5.767  12.075  21.909  0.00  0.00    +0.000 OA
ENDBRANCH  26  28
ENDBRANCH  20  26
ENDBRANCH  17  24
ENDBRANCH   1  17
TORSDOF 5
ENDMDL
