MODEL 1
REMARK VINA RESULT:      -8.5      0.000      0.000
REMARK  Name = 
REMARK  4 active torsions:
REMARK  status: ('A' for Active; 'I' for Inactive)
REMARK    1  A    between atoms: C_2  and  C_17
REMARK    2  A    between atoms: N_3  and  C_4
REMARK    3  A    between atoms: C_7  and  O_8
REMARK    4  A    between atoms: O_8  and  C_9
REMARK                            x       y       z     vdW  Elec       q    Type
REMARK                         _______ _______ _______ _____ _____    ______ ____
ROOT
ATOM      1  O   UNL     1       2.210   8.959  17.170  0.00  0.00    +0.000 OA
ATOM      2  C   UNL     1       2.071   8.527  18.314  0.00  0.00    +0.000 C 
ATOM      3  N   UNL     1       2.614   7.351  18.794  0.00  0.00    +0.000 N 
ATOM      4  H   UNL     1       2.351   7.058  19.736  0.00  0.00    +0.000 HD
ENDROOT
BRANCH   2   5
ATOM      5  C   UNL     1       1.220   9.287  19.269  0.00  0.00    +0.000 A 
ATOM      6  C   UNL     1       0.688  10.448  18.843  0.00  0.00    +0.000 A 
ATOM      7  N   UNL     1      -0.107  11.292  19.579  0.00  0.00    +0.000 NA
ATOM      8  C   UNL     1      -0.331  10.912  20.786  0.00  0.00    +0.000 A 
ATOM      9  S   UNL     1      -1.298  11.800  21.950  0.00  0.00    +0.000 S 
ATOM     10  C   UNL     1      -1.003  10.583  23.160  0.00  0.00    +0.000 A 
ATOM     11  C   UNL     1      -0.238   9.593  22.688  0.00  0.00    +0.000 A 
ATOM     12  N   UNL     1       0.142   9.758  21.372  0.00  0.00    +0.000 N 
ATOM     13  C   UNL     1       0.914   8.866  20.658  0.00  0.00    +0.000 A 
ATOM     14  O   UNL     1       1.321   7.790  21.096  0.00  0.00    +0.000 OA
ENDBRANCH   2   5
BRANCH   3  15
ATOM     15  C   UNL     1       3.416   6.455  18.055  0.00  0.00    +0.000 A 
ATOM     16  C   UNL     1       4.605   6.843  17.435  0.00  0.00    +0.000 A 
ATOM     17  C   UNL     1       5.329   5.949  16.646  0.00  0.00    +0.000 A 
ATOM     18  C   UNL     1       4.914   4.625  16.528  0.00  0.00    +0.000 A 
ATOM     19  C   UNL     1       3.728   4.223  17.147  0.00  0.00    +0.000 A 
ATOM     20  C   UNL     1       2.988   5.130  17.918  0.00  0.00    +0.000 A 
BRANCH  18  21
ATOM     21  O   UNL     1       5.572   3.674  15.781  0.00  0.00    +0.000 OA
BRANCH  21  22
ATOM     22  C   UNL     1       6.152   4.025  14.581  0.00  0.00    +0.000 A 
ATOM     23  C   UNL     1       7.261   4.868  14.458  0.00  0.00    +0.000 A 
ATOM     24  C   UNL     1       7.773   5.176  13.197  0.00  0.00    +0.000 A 
ATOM     25  C   UNL     1       7.218   4.596  12.058  0.00  0.00    +0.000 A 
ATOM     26  C   UNL     1       6.148   3.710  12.181  0.00  0.00    +0.000 A 
ATOM     27  C   UNL     1       5.614   3.427  13.440  0.00  0.00    +0.000 A 
ENDBRANCH  21  22
ENDBRANCH  18  21
ENDBRANCH   3  15
TORSDOF 4
ENDMDL
MODEL 2
REMARK VINA RESULT:      -8.0      0.926      2.259
REMARK  Name = 
REMARK  4 active torsions:
REMARK  status: ('A' for Active; 'I' for Inactive)
REMARK    1  A    between atoms: C_2  and  C_17
REMARK    2  A    between atoms: N_3  and  C_4
REMARK    3  A    between atoms: C_7  and  O_8
REMARK    4  A    between atoms: O_8  and  C_9
REMARK                            x       y       z     vdW  Elec       q    Type
REMARK                         _______ _______ _______ _____ _____    ______ ____
ROOT
ATOM      1  O   UNL     1       2.095   6.323  20.398  0.00  0.00    +0.000 OA
ATOM      2  C   UNL     1       2.090   7.360  19.734  0.00  0.00    +0.000 C 
ATOM      3  N   UNL     1       2.721   7.529  18.517  0.00  0.00    +0.000 N 
ATOM      4  H   UNL     1       2.717   8.465  18.108  0.00  0.00    +0.000 HD
ENDROOT
BRANCH   2   5
ATOM      5  C   UNL     1       1.393   8.556  20.277  0.00  0.00    +0.000 A 
ATOM      6  C   UNL     1       1.325   8.685  21.615  0.00  0.00    +0.000 A 
ATOM      7  N   UNL     1       0.715   9.707  22.301  0.00  0.00    +0.000 NA
ATOM      8  C   UNL     1       0.155  10.597  21.562  0.00  0.00    +0.000 A 
ATOM      9  S   UNL     1      -0.707  12.001  22.167  0.00  0.00    +0.000 S 
ATOM     10  C   UNL     1      -1.061  12.514  20.541  0.00  0.00    +0.000 A 
ATOM     11  C   UNL     1      -0.548  11.675  19.636  0.00  0.00    +0.000 A 
ATOM     12  N   UNL     1       0.131  10.607  20.184  0.00  0.00    +0.000 N 
ATOM     13  C   UNL     1       0.763   9.620  19.458  0.00  0.00    +0.000 A 
ATOM     14  O   UNL     1       0.834   9.595  18.229  0.00  0.00    +0.000 OA
ENDBRANCH   2   5
BRANCH   3  15
ATOM     15  C   UNL     1       3.472   6.546  17.837  0.00  0.00    +0.000 A 
ATOM     16  C   UNL     1       3.074   5.210  17.763  0.00  0.00    +0.000 A 
ATOM     17  C   UNL     1       3.882   4.253  17.151  0.00  0.00    +0.000 A 
ATOM     18  C   UNL     1       5.071   4.632  16.532  0.00  0.00    +0.000 A 
ATOM     19  C   UNL     1       5.478   5.966  16.595  0.00  0.00    +0.000 A 
ATOM     20  C   UNL     1       4.677   6.923  17.234  0.00  0.00    +0.000 A 
BRANCH  18  21
ATOM     21  O   UNL     1       5.923   3.757  15.897  0.00  0.00    +0.000 OA
BRANCH  21  22
ATOM     22  C   UNL     1       6.274   3.972  14.582  0.00  0.00    +0.000 A 
ATOM     23  C   UNL     1       5.577   3.454  13.485  0.00  0.00    +0.000 A 
ATOM     24  C   UNL     1       6.016   3.717  12.187  0.00  0.00    +0.000 A 
ATOM     25  C   UNL     1       7.115   4.548  11.977  0.00  0.00    +0.000 A 
ATOM     26  C   UNL     1       7.777   5.114  13.066  0.00  0.00    +0.000 A 
ATOM     27  C   UNL     1       7.359   4.824  14.366  0.00  0.00    +0.000 A 
ENDBRANCH  21  22
ENDBRANCH  18  21
ENDBRANCH   3  15
TORSDOF 4
ENDMDL
MODEL 3
REMARK VINA RESULT:      -7.9      3.878      5.084
REMARK  Name = 
REMARK  4 active torsions:
REMARK  status: ('A' for Active; 'I' for Inactive)
REMARK    1  A    between atoms: C_2  and  C_17
REMARK    2  A    between atoms: N_3  and  C_4
REMARK    3  A    between atoms: C_7  and  O_8
REMARK    4  A    between atoms: O_8  and  C_9
REMARK                            x       y       z     vdW  Elec       q    Type
REMARK                         _______ _______ _______ _____ _____    ______ ____
ROOT
ATOM      1  O   UNL     1      -1.455  10.131  19.034  0.00  0.00    +0.000 OA
ATOM      2  C   UNL     1      -0.748  10.709  19.860  0.00  0.00    +0.000 C 
ATOM      3  N   UNL     1       0.545  10.355  20.190  0.00  0.00    +0.000 N 
ATOM      4  H   UNL     1       0.994  10.859  20.955  0.00  0.00    +0.000 HD
ENDROOT
BRANCH   2   5
ATOM      5  C   UNL     1      -1.318  11.860  20.611  0.00  0.00    +0.000 A 
ATOM      6  C   UNL     1      -2.235  12.621  19.985  0.00  0.00    +0.000 A 
ATOM      7  N   UNL     1      -2.861  13.727  20.505  0.00  0.00    +0.000 NA
ATOM      8  C   UNL     1      -2.502  14.043  21.698  0.00  0.00    +0.000 A 
ATOM      9  S   UNL     1      -3.125  15.413  22.600  0.00  0.00    +0.000 S 
ATOM     10  C   UNL     1      -2.103  15.018  23.953  0.00  0.00    +0.000 A 
ATOM     11  C   UNL     1      -1.367  13.927  23.714  0.00  0.00    +0.000 A 
ATOM     12  N   UNL     1      -1.577  13.372  22.468  0.00  0.00    +0.000 N 
ATOM     13  C   UNL     1      -0.953  12.236  21.998  0.00  0.00    +0.000 A 
ATOM     14  O   UNL     1      -0.163  11.554  22.650  0.00  0.00    +0.000 OA
ENDBRANCH   2   5
BRANCH   3  15
ATOM     15  C   UNL     1       1.268   9.276  19.635  0.00  0.00    +0.000 A 
ATOM     16  C   UNL     1       1.701   9.260  18.308  0.00  0.00    +0.000 A 
ATOM     17  C   UNL     1       2.342   8.142  17.775  0.00  0.00    +0.000 A 
ATOM     18  C   UNL     1       2.630   7.047  18.586  0.00  0.00    +0.000 A 
ATOM     19  C   UNL     1       2.207   7.052  19.917  0.00  0.00    +0.000 A 
ATOM     20  C   UNL     1       1.539   8.166  20.444  0.00  0.00    +0.000 A 
BRANCH  18  21
ATOM     21  O   UNL     1       3.268   5.909  18.146  0.00  0.00    +0.000 OA
BRANCH  21  22
ATOM     22  C   UNL     1       2.773   4.669  18.488  0.00  0.00    +0.000 A 
ATOM     23  C   UNL     1       1.548   4.159  18.044  0.00  0.00    +0.000 A 
ATOM     24  C   UNL     1       1.124   2.895  18.454  0.00  0.00    +0.000 A 
ATOM     25  C   UNL     1       1.948   2.110  19.258  0.00  0.00    +0.000 A 
ATOM     26  C   UNL     1       3.195   2.591  19.655  0.00  0.00    +0.000 A 
ATOM     27  C   UNL     1       3.605   3.870  19.273  0.00  0.00    +0.000 A 
ENDBRANCH  21  22
ENDBRANCH  18  21
ENDBRANCH   3  15
TORSDOF 4
ENDMDL
MODEL 4
REMARK VINA RESULT:      -7.9      2.339      3.858
REMARK  Name = 
REMARK  4 active torsions:
REMARK  status: ('A' for Active; 'I' for Inactive)
REMARK    1  A    between atoms: C_2  and  C_17
REMARK    2  A    between atoms: N_3  and  C_4
REMARK    3  A    between atoms: C_7  and  O_8
REMARK    4  A    between atoms: O_8  and  C_9
REMARK                            x       y       z     vdW  Elec       q    Type
REMARK                         _______ _______ _______ _____ _____    ______ ____
ROOT
ATOM      1  O   UNL     1       1.801   9.267  22.421  0.00  0.00    +0.000 OA
ATOM      2  C   UNL     1       0.869   9.344  21.621  0.00  0.00    +0.000 C 
ATOM      3  N   UNL     1       0.699   8.535  20.515  0.00  0.00    +0.000 N 
ATOM      4  H   UNL     1      -0.068   8.758  19.878  0.00  0.00    +0.000 HD
ENDROOT
BRANCH   2   5
ATOM      5  C   UNL     1      -0.151  10.411  21.808  0.00  0.00    +0.000 A 
ATOM      6  C   UNL     1      -0.788  10.464  22.993  0.00  0.00    +0.000 A 
ATOM      7  N   UNL     1      -1.764  11.362  23.349  0.00  0.00    +0.000 NA
ATOM      8  C   UNL     1      -2.083  12.207  22.434  0.00  0.00    +0.000 A 
ATOM      9  S   UNL     1      -3.306  13.453  22.607  0.00  0.00    +0.000 S 
ATOM     10  C   UNL     1      -3.018  13.995  20.978  0.00  0.00    +0.000 A 
ATOM     11  C   UNL     1      -2.063  13.276  20.380  0.00  0.00    +0.000 A 
ATOM     12  N   UNL     1      -1.532  12.280  21.173  0.00  0.00    +0.000 N 
ATOM     13  C   UNL     1      -0.524  11.422  20.789  0.00  0.00    +0.000 A 
ATOM     14  O   UNL     1       0.055  11.467  19.704  0.00  0.00    +0.000 OA
ENDBRANCH   2   5
BRANCH   3  15
ATOM     15  C   UNL     1       1.562   7.490  20.121  0.00  0.00    +0.000 A 
ATOM     16  C   UNL     1       2.405   7.585  19.013  0.00  0.00    +0.000 A 
ATOM     17  C   UNL     1       3.185   6.501  18.608  0.00  0.00    +0.000 A 
ATOM     18  C   UNL     1       3.192   5.326  19.356  0.00  0.00    +0.000 A 
ATOM     19  C   UNL     1       2.356   5.220  20.470  0.00  0.00    +0.000 A 
ATOM     20  C   UNL     1       1.554   6.301  20.859  0.00  0.00    +0.000 A 
BRANCH  18  21
ATOM     21  O   UNL     1       3.937   4.214  19.037  0.00  0.00    +0.000 OA
BRANCH  21  22
ATOM     22  C   UNL     1       4.999   4.326  18.166  0.00  0.00    +0.000 A 
ATOM     23  C   UNL     1       4.942   4.003  16.807  0.00  0.00    +0.000 A 
ATOM     24  C   UNL     1       6.076   4.138  16.004  0.00  0.00    +0.000 A 
ATOM     25  C   UNL     1       7.253   4.654  16.542  0.00  0.00    +0.000 A 
ATOM     26  C   UNL     1       7.298   5.032  17.884  0.00  0.00    +0.000 A 
ATOM     27  C   UNL     1       6.174   4.865  18.695  0.00  0.00    +0.000 A 
ENDBRANCH  21  22
ENDBRANCH  18  21
ENDBRANCH   3  15
TORSDOF 4
ENDMDL
MODEL 5
REMARK VINA RESULT:      -7.9      3.913     10.556
REMARK  Name = 
REMARK  4 active torsions:
REMARK  status: ('A' for Active; 'I' for Inactive)
REMARK    1  A    between atoms: C_2  and  C_17
REMARK    2  A    between atoms: N_3  and  C_4
REMARK    3  A    between atoms: C_7  and  O_8
REMARK    4  A    between atoms: O_8  and  C_9
REMARK                            x       y       z     vdW  Elec       q    Type
REMARK                         _______ _______ _______ _____ _____    ______ ____
ROOT
ATOM      1  O   UNL     1       0.790   9.409  18.541  0.00  0.00    +0.000 OA
ATOM      2  C   UNL     1       1.378   8.754  19.401  0.00  0.00    +0.000 C 
ATOM      3  N   UNL     1       1.278   8.954  20.763  0.00  0.00    +0.000 N 
ATOM      4  H   UNL     1       1.886   8.402  21.369  0.00  0.00    +0.000 HD
ENDROOT
BRANCH   2   5
ATOM      5  C   UNL     1       2.311   7.678  18.969  0.00  0.00    +0.000 A 
ATOM      6  C   UNL     1       3.077   7.914  17.887  0.00  0.00    +0.000 A 
ATOM      7  N   UNL     1       3.983   7.044  17.331  0.00  0.00    +0.000 NA
ATOM      8  C   UNL     1       4.070   5.903  17.917  0.00  0.00    +0.000 A 
ATOM      9  S   UNL     1       5.131   4.599  17.415  0.00  0.00    +0.000 S 
ATOM     10  C   UNL     1       4.548   3.593  18.711  0.00  0.00    +0.000 A 
ATOM     11  C   UNL     1       3.631   4.224  19.452  0.00  0.00    +0.000 A 
ATOM     12  N   UNL     1       3.355   5.507  19.027  0.00  0.00    +0.000 N 
ATOM     13  C   UNL     1       2.462   6.363  19.637  0.00  0.00    +0.000 A 
ATOM     14  O   UNL     1       1.834   6.100  20.663  0.00  0.00    +0.000 OA
ENDBRANCH   2   5
BRANCH   3  15
ATOM     15  C   UNL     1       0.488   9.941  21.392  0.00  0.00    +0.000 A 
ATOM     16  C   UNL     1       0.533  11.288  21.030  0.00  0.00    +0.000 A 
ATOM     17  C   UNL     1      -0.203  12.245  21.729  0.00  0.00    +0.000 A 
ATOM     18  C   UNL     1      -1.060  11.856  22.755  0.00  0.00    +0.000 A 
ATOM     19  C   UNL     1      -1.118  10.511  23.124  0.00  0.00    +0.000 A 
ATOM     20  C   UNL     1      -0.357   9.554  22.438  0.00  0.00    +0.000 A 
BRANCH  18  21
ATOM     21  O   UNL     1      -1.830  12.731  23.488  0.00  0.00    +0.000 OA
BRANCH  21  22
ATOM     22  C   UNL     1      -3.190  12.791  23.277  0.00  0.00    +0.000 A 
ATOM     23  C   UNL     1      -3.789  12.912  22.019  0.00  0.00    +0.000 A 
ATOM     24  C   UNL     1      -5.178  12.978  21.905  0.00  0.00    +0.000 A 
ATOM     25  C   UNL     1      -5.977  12.861  23.040  0.00  0.00    +0.000 A 
ATOM     26  C   UNL     1      -5.386  12.682  24.291  0.00  0.00    +0.000 A 
ATOM     27  C   UNL     1      -3.995  12.650  24.409  0.00  0.00    +0.000 A 
ENDBRANCH  21  22
ENDBRANCH  18  21
ENDBRANCH   3  15
TORSDOF 4
ENDMDL
MODEL 6
REMARK VINA RESULT:      -7.9      3.674      5.259
REMARK  Name = 
REMARK  4 active torsions:
REMARK  status: ('A' for Active; 'I' for Inactive)
REMARK    1  A    between atoms: C_2  and  C_17
REMARK    2  A    between atoms: N_3  and  C_4
REMARK    3  A    between atoms: C_7  and  O_8
REMARK    4  A    between atoms: O_8  and  C_9
REMARK                            x       y       z     vdW  Elec       q    Type
REMARK                         _______ _______ _______ _____ _____    ______ ____
ROOT
ATOM      1  O   UNL     1       1.288  11.765  21.239  0.00  0.00    +0.000 OA
ATOM      2  C   UNL     1       0.152  11.347  21.013  0.00  0.00    +0.000 C 
ATOM      3  N   UNL     1      -0.149  10.204  20.299  0.00  0.00    +0.000 N 
ATOM      4  H   UNL     1      -1.133  10.012  20.105  0.00  0.00    +0.000 HD
ENDROOT
BRANCH   2   5
ATOM      5  C   UNL     1      -1.012  12.134  21.501  0.00  0.00    +0.000 A 
ATOM      6  C   UNL     1      -0.995  12.544  22.783  0.00  0.00    +0.000 A 
ATOM      7  N   UNL     1      -1.978  13.265  23.416  0.00  0.00    +0.000 NA
ATOM      8  C   UNL     1      -3.000  13.543  22.689  0.00  0.00    +0.000 A 
ATOM      9  S   UNL     1      -4.406  14.437  23.240  0.00  0.00    +0.000 S 
ATOM     10  C   UNL     1      -5.150  14.280  21.673  0.00  0.00    +0.000 A 
ATOM     11  C   UNL     1      -4.369  13.608  20.821  0.00  0.00    +0.000 A 
ATOM     12  N   UNL     1      -3.172  13.193  21.367  0.00  0.00    +0.000 N 
ATOM     13  C   UNL     1      -2.194  12.501  20.684  0.00  0.00    +0.000 A 
ATOM     14  O   UNL     1      -2.252  12.207  19.490  0.00  0.00    +0.000 OA
ENDBRANCH   2   5
BRANCH   3  15
ATOM     15  C   UNL     1       0.792   9.331  19.711  0.00  0.00    +0.000 A 
ATOM     16  C   UNL     1       1.209   9.453  18.384  0.00  0.00    +0.000 A 
ATOM     17  C   UNL     1       2.079   8.522  17.817  0.00  0.00    +0.000 A 
ATOM     18  C   UNL     1       2.610   7.495  18.593  0.00  0.00    +0.000 A 
ATOM     19  C   UNL     1       2.205   7.365  19.923  0.00  0.00    +0.000 A 
ATOM     20  C   UNL     1       1.309   8.286  20.485  0.00  0.00    +0.000 A 
BRANCH  18  21
ATOM     21  O   UNL     1       3.482   6.542  18.118  0.00  0.00    +0.000 OA
BRANCH  21  22
ATOM     22  C   UNL     1       3.180   5.205  18.257  0.00  0.00    +0.000 A 
ATOM     23  C   UNL     1       2.017   4.603  17.763  0.00  0.00    +0.000 A 
ATOM     24  C   UNL     1       1.791   3.241  17.963  0.00  0.00    +0.000 A 
ATOM     25  C   UNL     1       2.753   2.462  18.603  0.00  0.00    +0.000 A 
ATOM     26  C   UNL     1       3.939   3.046  19.046  0.00  0.00    +0.000 A 
ATOM     27  C   UNL     1       4.151   4.415  18.876  0.00  0.00    +0.000 A 
ENDBRANCH  21  22
ENDBRANCH  18  21
ENDBRANCH   3  15
TORSDOF 4
ENDMDL
MODEL 7
REMARK VINA RESULT:      -7.9      3.781      5.004
REMARK  Name = 
REMARK  4 active torsions:
REMARK  status: ('A' for Active; 'I' for Inactive)
REMARK    1  A    between atoms: C_2  and  C_17
REMARK    2  A    between atoms: N_3  and  C_4
REMARK    3  A    between atoms: C_7  and  O_8
REMARK    4  A    between atoms: O_8  and  C_9
REMARK                            x       y       z     vdW  Elec       q    Type
REMARK                         _______ _______ _______ _____ _____    ______ ____
ROOT
ATOM      1  O   UNL     1      -1.426  10.230  19.258  0.00  0.00    +0.000 OA
ATOM      2  C   UNL     1      -0.611  10.832  19.957  0.00  0.00    +0.000 C 
ATOM      3  N   UNL     1       0.688  10.430  20.192  0.00  0.00    +0.000 N 
ATOM      4  H   UNL     1       1.237  10.969  20.863  0.00  0.00    +0.000 HD
ENDROOT
BRANCH   2   5
ATOM      5  C   UNL     1      -1.043  12.075  20.652  0.00  0.00    +0.000 A 
ATOM      6  C   UNL     1      -1.612  13.041  19.908  0.00  0.00    +0.000 A 
ATOM      7  N   UNL     1      -2.060  14.256  20.363  0.00  0.00    +0.000 NA
ATOM      8  C   UNL     1      -1.890  14.461  21.620  0.00  0.00    +0.000 A 
ATOM      9  S   UNL     1      -2.352  15.927  22.466  0.00  0.00    +0.000 S 
ATOM     10  C   UNL     1      -1.746  15.282  23.966  0.00  0.00    +0.000 A 
ATOM     11  C   UNL     1      -1.247  14.051  23.808  0.00  0.00    +0.000 A 
ATOM     12  N   UNL     1      -1.320  13.579  22.513  0.00  0.00    +0.000 N 
ATOM     13  C   UNL     1      -0.891  12.335  22.105  0.00  0.00    +0.000 A 
ATOM     14  O   UNL     1      -0.429  11.475  22.854  0.00  0.00    +0.000 OA
ENDBRANCH   2   5
BRANCH   3  15
ATOM     15  C   UNL     1       1.295   9.266  19.671  0.00  0.00    +0.000 A 
ATOM     16  C   UNL     1       1.541   8.132  20.446  0.00  0.00    +0.000 A 
ATOM     17  C   UNL     1       2.215   7.031  19.916  0.00  0.00    +0.000 A 
ATOM     18  C   UNL     1       2.586   7.018  18.574  0.00  0.00    +0.000 A 
ATOM     19  C   UNL     1       2.341   8.145  17.786  0.00  0.00    +0.000 A 
ATOM     20  C   UNL     1       1.687   9.260  18.328  0.00  0.00    +0.000 A 
BRANCH  18  21
ATOM     21  O   UNL     1       3.243   5.972  17.966  0.00  0.00    +0.000 OA
BRANCH  21  22
ATOM     22  C   UNL     1       2.977   4.677  18.353  0.00  0.00    +0.000 A 
ATOM     23  C   UNL     1       3.827   3.901  19.148  0.00  0.00    +0.000 A 
ATOM     24  C   UNL     1       3.477   2.591  19.479  0.00  0.00    +0.000 A 
ATOM     25  C   UNL     1       2.251   2.072  19.069  0.00  0.00    +0.000 A 
ATOM     26  C   UNL     1       1.375   2.862  18.325  0.00  0.00    +0.000 A 
ATOM     27  C   UNL     1       1.739   4.161  17.965  0.00  0.00    +0.000 A 
ENDBRANCH  21  22
ENDBRANCH  18  21
ENDBRANCH   3  15
TORSDOF 4
ENDMDL
MODEL 8
REMARK VINA RESULT:      -7.8      3.105      4.550
REMARK  Name = 
REMARK  4 active torsions:
REMARK  status: ('A' for Active; 'I' for Inactive)
REMARK    1  A    between atoms: C_2  and  C_17
REMARK    2  A    between atoms: N_3  and  C_4
REMARK    3  A    between atoms: C_7  and  O_8
REMARK    4  A    between atoms: O_8  and  C_9
REMARK                            x       y       z     vdW  Elec       q    Type
REMARK                         _______ _______ _______ _____ _____    ______ ____
ROOT
ATOM      1  O   UNL     1       1.565  11.082  21.205  0.00  0.00    +0.000 OA
ATOM      2  C   UNL     1       0.443  10.675  20.905  0.00  0.00    +0.000 C 
ATOM      3  N   UNL     1       0.179   9.593  20.089  0.00  0.00    +0.000 N 
ATOM      4  H   UNL     1      -0.795   9.409  19.845  0.00  0.00    +0.000 HD
ENDROOT
BRANCH   2   5
ATOM      5  C   UNL     1      -0.747  11.410  21.414  0.00  0.00    +0.000 A 
ATOM      6  C   UNL     1      -0.940  11.438  22.746  0.00  0.00    +0.000 A 
ATOM      7  N   UNL     1      -1.982  12.049  23.400  0.00  0.00    +0.000 NA
ATOM      8  C   UNL     1      -2.838  12.626  22.636  0.00  0.00    +0.000 A 
ATOM      9  S   UNL     1      -4.271  13.470  23.197  0.00  0.00    +0.000 S 
ATOM     10  C   UNL     1      -4.726  13.840  21.558  0.00  0.00    +0.000 A 
ATOM     11  C   UNL     1      -3.841  13.357  20.679  0.00  0.00    +0.000 A 
ATOM     12  N   UNL     1      -2.786  12.683  21.259  0.00  0.00    +0.000 N 
ATOM     13  C   UNL     1      -1.740  12.113  20.566  0.00  0.00    +0.000 A 
ATOM     14  O   UNL     1      -1.596  12.175  19.345  0.00  0.00    +0.000 OA
ENDBRANCH   2   5
BRANCH   3  15
ATOM     15  C   UNL     1       1.150   8.778  19.466  0.00  0.00    +0.000 A 
ATOM     16  C   UNL     1       1.662   9.051  18.196  0.00  0.00    +0.000 A 
ATOM     17  C   UNL     1       2.560   8.179  17.581  0.00  0.00    +0.000 A 
ATOM     18  C   UNL     1       3.023   7.056  18.261  0.00  0.00    +0.000 A 
ATOM     19  C   UNL     1       2.522   6.774  19.534  0.00  0.00    +0.000 A 
ATOM     20  C   UNL     1       1.599   7.637  20.140  0.00  0.00    +0.000 A 
BRANCH  18  21
ATOM     21  O   UNL     1       3.915   6.150  17.735  0.00  0.00    +0.000 OA
BRANCH  21  22
ATOM     22  C   UNL     1       5.248   6.220  18.079  0.00  0.00    +0.000 A 
ATOM     23  C   UNL     1       5.840   5.468  19.099  0.00  0.00    +0.000 A 
ATOM     24  C   UNL     1       7.198   5.616  19.383  0.00  0.00    +0.000 A 
ATOM     25  C   UNL     1       7.983   6.470  18.610  0.00  0.00    +0.000 A 
ATOM     26  C   UNL     1       7.409   7.178  17.555  0.00  0.00    +0.000 A 
ATOM     27  C   UNL     1       6.043   7.055  17.292  0.00  0.00    +0.000 A 
ENDBRANCH  21  22
ENDBRANCH  18  21
ENDBRANCH   3  15
TORSDOF 4
ENDMDL
MODEL 9
REMARK VINA RESULT:      -7.8      3.076      4.460
REMARK  Name = 
REMARK  4 active torsions:
REMARK  status: ('A' for Active; 'I' for Inactive)
REMARK    1  A    between atoms: C_2  and  C_17
REMARK    2  A    between atoms: N_3  and  C_4
REMARK    3  A    between atoms: C_7  and  O_8
REMARK    4  A    between atoms: O_8  and  C_9
REMARK                            x       y       z     vdW  Elec       q    Type
REMARK                         _______ _______ _______ _____ _____    ______ ____
ROOT
ATOM      1  O   UNL     1      -1.442  10.234  18.951  0.00  0.00    +0.000 OA
ATOM      2  C   UNL     1      -0.771  10.777  19.829  0.00  0.00    +0.000 C 
ATOM      3  N   UNL     1       0.517  10.424  20.180  0.00  0.00    +0.000 N 
ATOM      4  H   UNL     1       0.934  10.893  20.985  0.00  0.00    +0.000 HD
ENDROOT
BRANCH   2   5
ATOM      5  C   UNL     1      -1.382  11.879  20.621  0.00  0.00    +0.000 A 
ATOM      6  C   UNL     1      -2.360  12.597  20.039  0.00  0.00    +0.000 A 
ATOM      7  N   UNL     1      -3.031  13.655  20.601  0.00  0.00    +0.000 NA
ATOM      8  C   UNL     1      -2.653  13.968  21.789  0.00  0.00    +0.000 A 
ATOM      9  S   UNL     1      -3.324  15.283  22.738  0.00  0.00    +0.000 S 
ATOM     10  C   UNL     1      -2.238  14.922  24.050  0.00  0.00    +0.000 A 
ATOM     11  C   UNL     1      -1.449  13.881  23.766  0.00  0.00    +0.000 A 
ATOM     12  N   UNL     1      -1.667  13.338  22.516  0.00  0.00    +0.000 N 
ATOM     13  C   UNL     1      -0.994  12.250  22.003  0.00  0.00    +0.000 A 
ATOM     14  O   UNL     1      -0.145  11.602  22.616  0.00  0.00    +0.000 OA
ENDBRANCH   2   5
BRANCH   3  15
ATOM     15  C   UNL     1       1.273   9.386  19.593  0.00  0.00    +0.000 A 
ATOM     16  C   UNL     1       1.748   9.447  18.282  0.00  0.00    +0.000 A 
ATOM     17  C   UNL     1       2.422   8.367  17.711  0.00  0.00    +0.000 A 
ATOM     18  C   UNL     1       2.701   7.235  18.472  0.00  0.00    +0.000 A 
ATOM     19  C   UNL     1       2.235   7.163  19.786  0.00  0.00    +0.000 A 
ATOM     20  C   UNL     1       1.535   8.238  20.350  0.00  0.00    +0.000 A 
BRANCH  18  21
ATOM     21  O   UNL     1       3.369   6.131  17.993  0.00  0.00    +0.000 OA
BRANCH  21  22
ATOM     22  C   UNL     1       4.745   6.088  18.036  0.00  0.00    +0.000 A 
ATOM     23  C   UNL     1       5.583   6.740  17.125  0.00  0.00    +0.000 A 
ATOM     24  C   UNL     1       6.969   6.630  17.241  0.00  0.00    +0.000 A 
ATOM     25  C   UNL     1       7.525   5.919  18.303  0.00  0.00    +0.000 A 
ATOM     26  C   UNL     1       6.694   5.316  19.247  0.00  0.00    +0.000 A 
ATOM     27  C   UNL     1       5.307   5.398  19.112  0.00  0.00    +0.000 A 
ENDBRANCH  21  22
ENDBRANCH  18  21
ENDBRANCH   3  15
TORSDOF 4
ENDMDL
