MODEL 1
REMARK VINA RESULT:      -9.7      0.000      0.000
REMARK  Name = 
REMARK  5 active torsions:
REMARK  status: ('A' for Active; 'I' for Inactive)
REMARK    1  A    between atoms: C_2  and  C_4
REMARK    2  A    between atoms: C_8  and  C_9
REMARK    3  A    between atoms: C_9  and  C_10
REMARK    4  A    between atoms: C_10  and  N_11
REMARK    5  A    between atoms: C_15  and  C_16
REMARK                            x       y       z     vdW  Elec       q    Type
REMARK                         _______ _______ _______ _____ _____    ______ ____
ROOT
ATOM      1  N   UNL     1       8.913   8.127  18.749  0.00  0.00    +0.000 N 
ATOM      2  C   UNL     1       7.905   7.198  18.406  0.00  0.00    +0.000 A 
ATOM      3  C   UNL     1       7.826   5.972  19.074  0.00  0.00    +0.000 A 
ATOM      4  C   UNL     1       6.793   5.071  18.768  0.00  0.00    +0.000 A 
ATOM      5  C   UNL     1       5.893   5.398  17.757  0.00  0.00    +0.000 A 
ATOM      6  C   UNL     1       6.103   6.590  17.081  0.00  0.00    +0.000 A 
ATOM      7  N   UNL     1       7.065   7.486  17.396  0.00  0.00    +0.000 NA
ATOM      8  H   UNL     1       9.063   8.097  19.753  0.00  0.00    +0.000 HD
ENDROOT
BRANCH   5   9
ATOM      9  C   UNL     1       4.823   4.514  17.245  0.00  0.00    +0.000 C 
ATOM     10  O   UNL     1       4.614   4.521  16.030  0.00  0.00    +0.000 OA
ATOM     11  N   UNL     1       4.186   3.612  18.083  0.00  0.00    +0.000 N 
ATOM     12  C   UNL     1       3.500   2.468  17.438  0.00  0.00    +0.000 C 
ATOM     13  C   UNL     1       2.911   1.682  18.595  0.00  0.00    +0.000 C 
ATOM     14  C   UNL     1       2.452   2.870  19.384  0.00  0.00    +0.000 A 
ATOM     15  C   UNL     1       1.250   3.028  20.048  0.00  0.00    +0.000 A 
ATOM     16  C   UNL     1       0.958   4.290  20.556  0.00  0.00    +0.000 A 
ATOM     17  C   UNL     1       1.897   5.335  20.469  0.00  0.00    +0.000 A 
ATOM     18  C   UNL     1       3.106   5.171  19.776  0.00  0.00    +0.000 A 
ATOM     19  C   UNL     1       3.331   3.950  19.171  0.00  0.00    +0.000 A 
ENDBRANCH   5   9
BRANCH   1  20
ATOM     20  C   UNL     1       8.557   9.491  18.304  0.00  0.00    +0.000 C 
BRANCH  20  21
ATOM     21  C   UNL     1       9.083  10.553  19.277  0.00  0.00    +0.000 C 
BRANCH  21  26
ATOM     22  C   UNL     1       9.792  14.128  18.088  0.00  0.00    +0.000 A 
ATOM     23  C   UNL     1      10.925  13.940  17.302  0.00  0.00    +0.000 A 
ATOM     24  C   UNL     1      11.439  12.653  17.124  0.00  0.00    +0.000 A 
ATOM     25  C   UNL     1      10.833  11.562  17.751  0.00  0.00    +0.000 A 
ATOM     26  C   UNL     1       9.714  11.736  18.574  0.00  0.00    +0.000 A 
ATOM     27  C   UNL     1       9.189  13.030  18.729  0.00  0.00    +0.000 A 
BRANCH  22  29
ATOM     28  N   UNL     1       8.220  15.858  17.416  0.00  0.00    +0.000 N 
ATOM     29  C   UNL     1       9.192  15.479  18.297  0.00  0.00    +0.000 C 
ATOM     30  O   UNL     1       9.519  16.208  19.224  0.00  0.00    +0.000 OA
ATOM     31  H   UNL     1       7.746  16.733  17.602  0.00  0.00    +0.000 HD
ATOM     32  H   UNL     1       7.776  15.198  16.791  0.00  0.00    +0.000 HD
ENDBRANCH  22  29
ENDBRANCH  21  26
ENDBRANCH  20  21
ENDBRANCH   1  20
TORSDOF 5
ENDMDL
MODEL 2
REMARK VINA RESULT:      -9.6      2.119      2.637
REMARK  Name = 
REMARK  5 active torsions:
REMARK  status: ('A' for Active; 'I' for Inactive)
REMARK    1  A    between atoms: C_2  and  C_4
REMARK    2  A    between atoms: C_8  and  C_9
REMARK    3  A    between atoms: C_9  and  C_10
REMARK    4  A    between atoms: C_10  and  N_11
REMARK    5  A    between atoms: C_15  and  C_16
REMARK                            x       y       z     vdW  Elec       q    Type
REMARK                         _______ _______ _______ _____ _____    ______ ____
ROOT
ATOM      1  N   UNL     1       8.895   8.370  18.720  0.00  0.00    +0.000 N 
ATOM      2  C   UNL     1       7.921   7.403  18.384  0.00  0.00    +0.000 A 
ATOM      3  C   UNL     1       7.888   6.178  19.058  0.00  0.00    +0.000 A 
ATOM      4  C   UNL     1       6.887   5.239  18.759  0.00  0.00    +0.000 A 
ATOM      5  C   UNL     1       5.973   5.528  17.749  0.00  0.00    +0.000 A 
ATOM      6  C   UNL     1       6.138   6.724  17.068  0.00  0.00    +0.000 A 
ATOM      7  N   UNL     1       7.068   7.656  17.375  0.00  0.00    +0.000 NA
ATOM      8  H   UNL     1       9.049   8.350  19.723  0.00  0.00    +0.000 HD
ENDROOT
BRANCH   5   9
ATOM      9  C   UNL     1       4.934   4.604  17.245  0.00  0.00    +0.000 C 
ATOM     10  O   UNL     1       4.732   4.587  16.029  0.00  0.00    +0.000 OA
ATOM     11  N   UNL     1       4.321   3.695  18.092  0.00  0.00    +0.000 N 
ATOM     12  C   UNL     1       3.675   2.520  17.461  0.00  0.00    +0.000 C 
ATOM     13  C   UNL     1       3.104   1.734  18.626  0.00  0.00    +0.000 C 
ATOM     14  C   UNL     1       2.604   2.918  19.395  0.00  0.00    +0.000 A 
ATOM     15  C   UNL     1       1.394   3.047  20.051  0.00  0.00    +0.000 A 
ATOM     16  C   UNL     1       1.059   4.307  20.538  0.00  0.00    +0.000 A 
ATOM     17  C   UNL     1       1.965   5.380  20.441  0.00  0.00    +0.000 A 
ATOM     18  C   UNL     1       3.183   5.243  19.757  0.00  0.00    +0.000 A 
ATOM     19  C   UNL     1       3.449   4.022  19.171  0.00  0.00    +0.000 A 
ENDBRANCH   5   9
BRANCH   1  20
ATOM     20  C   UNL     1       8.489   9.717  18.269  0.00  0.00    +0.000 C 
BRANCH  20  21
ATOM     21  C   UNL     1       9.680  10.683  18.245  0.00  0.00    +0.000 C 
BRANCH  21  26
ATOM     22  C   UNL     1       8.996  12.210  21.694  0.00  0.00    +0.000 A 
ATOM     23  C   UNL     1       9.788  13.353  21.654  0.00  0.00    +0.000 A 
ATOM     24  C   UNL     1      10.516  13.652  20.499  0.00  0.00    +0.000 A 
ATOM     25  C   UNL     1      10.466  12.796  19.397  0.00  0.00    +0.000 A 
ATOM     26  C   UNL     1       9.702  11.623  19.432  0.00  0.00    +0.000 A 
ATOM     27  C   UNL     1       8.956  11.342  20.587  0.00  0.00    +0.000 A 
BRANCH  22  29
ATOM     28  N   UNL     1       8.881  11.543  24.030  0.00  0.00    +0.000 N 
ATOM     29  C   UNL     1       8.186  11.853  22.897  0.00  0.00    +0.000 C 
ATOM     30  O   UNL     1       6.962  11.862  22.892  0.00  0.00    +0.000 OA
ATOM     31  H   UNL     1       8.342  11.386  24.872  0.00  0.00    +0.000 HD
ATOM     32  H   UNL     1       9.867  11.745  24.126  0.00  0.00    +0.000 HD
ENDBRANCH  22  29
ENDBRANCH  21  26
ENDBRANCH  20  21
ENDBRANCH   1  20
TORSDOF 5
ENDMDL
MODEL 3
REMARK VINA RESULT:      -9.5      1.041      1.184
REMARK  Name = 
REMARK  5 active torsions:
REMARK  status: ('A' for Active; 'I' for Inactive)
REMARK    1  A    between atoms: C_2  and  C_4
REMARK    2  A    between atoms: C_8  and  C_9
REMARK    3  A    between atoms: C_9  and  C_10
REMARK    4  A    between atoms: C_10  and  N_11
REMARK    5  A    between atoms: C_15  and  C_16
REMARK                            x       y       z     vdW  Elec       q    Type
REMARK                         _______ _______ _______ _____ _____    ______ ____
ROOT
ATOM      1  N   UNL     1       8.907   8.427  18.786  0.00  0.00    +0.000 N 
ATOM      2  C   UNL     1       7.943   7.457  18.432  0.00  0.00    +0.000 A 
ATOM      3  C   UNL     1       7.931   6.214  19.074  0.00  0.00    +0.000 A 
ATOM      4  C   UNL     1       6.941   5.271  18.758  0.00  0.00    +0.000 A 
ATOM      5  C   UNL     1       6.015   5.574  17.762  0.00  0.00    +0.000 A 
ATOM      6  C   UNL     1       6.159   6.789  17.111  0.00  0.00    +0.000 A 
ATOM      7  N   UNL     1       7.079   7.725  17.436  0.00  0.00    +0.000 NA
ATOM      8  H   UNL     1       9.069   8.383  19.787  0.00  0.00    +0.000 HD
ENDROOT
BRANCH   5   9
ATOM      9  C   UNL     1       4.985   4.650  17.241  0.00  0.00    +0.000 C 
ATOM     10  O   UNL     1       4.791   4.644  16.023  0.00  0.00    +0.000 OA
ATOM     11  N   UNL     1       4.370   3.728  18.075  0.00  0.00    +0.000 N 
ATOM     12  C   UNL     1       3.735   2.557  17.427  0.00  0.00    +0.000 C 
ATOM     13  C   UNL     1       3.161   1.755  18.580  0.00  0.00    +0.000 C 
ATOM     14  C   UNL     1       2.649   2.928  19.358  0.00  0.00    +0.000 A 
ATOM     15  C   UNL     1       1.434   3.045  20.007  0.00  0.00    +0.000 A 
ATOM     16  C   UNL     1       1.089   4.297  20.506  0.00  0.00    +0.000 A 
ATOM     17  C   UNL     1       1.990   5.376  20.425  0.00  0.00    +0.000 A 
ATOM     18  C   UNL     1       3.214   5.253  19.748  0.00  0.00    +0.000 A 
ATOM     19  C   UNL     1       3.490   4.039  19.151  0.00  0.00    +0.000 A 
ENDBRANCH   5   9
BRANCH   1  20
ATOM     20  C   UNL     1       8.480   9.781  18.374  0.00  0.00    +0.000 C 
BRANCH  20  21
ATOM     21  C   UNL     1       9.585  10.505  17.596  0.00  0.00    +0.000 C 
BRANCH  21  26
ATOM     22  C   UNL     1      10.627  14.117  18.349  0.00  0.00    +0.000 A 
ATOM     23  C   UNL     1      11.036  14.017  19.675  0.00  0.00    +0.000 A 
ATOM     24  C   UNL     1      11.011  12.776  20.317  0.00  0.00    +0.000 A 
ATOM     25  C   UNL     1      10.557  11.643  19.638  0.00  0.00    +0.000 A 
ATOM     26  C   UNL     1      10.108  11.731  18.314  0.00  0.00    +0.000 A 
ATOM     27  C   UNL     1      10.158  12.977  17.669  0.00  0.00    +0.000 A 
BRANCH  22  29
ATOM     28  N   UNL     1      11.031  15.365  16.301  0.00  0.00    +0.000 N 
ATOM     29  C   UNL     1      10.648  15.415  17.611  0.00  0.00    +0.000 C 
ATOM     30  O   UNL     1      10.313  16.471  18.129  0.00  0.00    +0.000 OA
ATOM     31  H   UNL     1      10.964  16.224  15.770  0.00  0.00    +0.000 HD
ATOM     32  H   UNL     1      11.091  14.493  15.793  0.00  0.00    +0.000 HD
ENDBRANCH  22  29
ENDBRANCH  21  26
ENDBRANCH  20  21
ENDBRANCH   1  20
TORSDOF 5
ENDMDL
MODEL 4
REMARK VINA RESULT:      -9.3      1.458      1.683
REMARK  Name = 
REMARK  5 active torsions:
REMARK  status: ('A' for Active; 'I' for Inactive)
REMARK    1  A    between atoms: C_2  and  C_4
REMARK    2  A    between atoms: C_8  and  C_9
REMARK    3  A    between atoms: C_9  and  C_10
REMARK    4  A    between atoms: C_10  and  N_11
REMARK    5  A    between atoms: C_15  and  C_16
REMARK                            x       y       z     vdW  Elec       q    Type
REMARK                         _______ _______ _______ _____ _____    ______ ____
ROOT
ATOM      1  N   UNL     1       8.816   8.211  18.691  0.00  0.00    +0.000 N 
ATOM      2  C   UNL     1       7.833   7.254  18.354  0.00  0.00    +0.000 A 
ATOM      3  C   UNL     1       7.716   6.077  19.100  0.00  0.00    +0.000 A 
ATOM      4  C   UNL     1       6.704   5.151  18.796  0.00  0.00    +0.000 A 
ATOM      5  C   UNL     1       5.866   5.402  17.712  0.00  0.00    +0.000 A 
ATOM      6  C   UNL     1       6.114   6.546  16.969  0.00  0.00    +0.000 A 
ATOM      7  N   UNL     1       7.055   7.467  17.277  0.00  0.00    +0.000 NA
ATOM      8  H   UNL     1       8.906   8.251  19.701  0.00  0.00    +0.000 HD
ENDROOT
BRANCH   5   9
ATOM      9  C   UNL     1       4.830   4.479  17.200  0.00  0.00    +0.000 C 
ATOM     10  O   UNL     1       4.626   4.474  15.984  0.00  0.00    +0.000 OA
ATOM     11  N   UNL     1       4.222   3.558  18.039  0.00  0.00    +0.000 N 
ATOM     12  C   UNL     1       3.580   2.387  17.396  0.00  0.00    +0.000 C 
ATOM     13  C   UNL     1       3.015   1.586  18.554  0.00  0.00    +0.000 C 
ATOM     14  C   UNL     1       2.511   2.760  19.337  0.00  0.00    +0.000 A 
ATOM     15  C   UNL     1       1.302   2.877  19.996  0.00  0.00    +0.000 A 
ATOM     16  C   UNL     1       0.962   4.130  20.498  0.00  0.00    +0.000 A 
ATOM     17  C   UNL     1       1.864   5.208  20.409  0.00  0.00    +0.000 A 
ATOM     18  C   UNL     1       3.081   5.084  19.722  0.00  0.00    +0.000 A 
ATOM     19  C   UNL     1       3.351   3.870  19.122  0.00  0.00    +0.000 A 
ENDBRANCH   5   9
BRANCH   1  20
ATOM     20  C   UNL     1       8.486   9.538  18.131  0.00  0.00    +0.000 C 
BRANCH  20  21
ATOM     21  C   UNL     1       8.488  10.621  19.218  0.00  0.00    +0.000 C 
BRANCH  21  26
ATOM     22  C   UNL     1      11.266  12.993  18.055  0.00  0.00    +0.000 A 
ATOM     23  C   UNL     1      12.051  13.084  19.200  0.00  0.00    +0.000 A 
ATOM     24  C   UNL     1      11.705  12.350  20.337  0.00  0.00    +0.000 A 
ATOM     25  C   UNL     1      10.564  11.546  20.334  0.00  0.00    +0.000 A 
ATOM     26  C   UNL     1       9.742  11.469  19.203  0.00  0.00    +0.000 A 
ATOM     27  C   UNL     1      10.109  12.192  18.056  0.00  0.00    +0.000 A 
BRANCH  22  29
ATOM     28  N   UNL     1      12.333  14.885  16.959  0.00  0.00    +0.000 N 
ATOM     29  C   UNL     1      11.599  13.743  16.807  0.00  0.00    +0.000 C 
ATOM     30  O   UNL     1      11.267  13.353  15.696  0.00  0.00    +0.000 OA
ATOM     31  H   UNL     1      12.639  15.351  16.115  0.00  0.00    +0.000 HD
ATOM     32  H   UNL     1      12.809  15.105  17.824  0.00  0.00    +0.000 HD
ENDBRANCH  22  29
ENDBRANCH  21  26
ENDBRANCH  20  21
ENDBRANCH   1  20
TORSDOF 5
ENDMDL
MODEL 5
REMARK VINA RESULT:      -9.2      1.209      1.217
REMARK  Name = 
REMARK  5 active torsions:
REMARK  status: ('A' for Active; 'I' for Inactive)
REMARK    1  A    between atoms: C_2  and  C_4
REMARK    2  A    between atoms: C_8  and  C_9
REMARK    3  A    between atoms: C_9  and  C_10
REMARK    4  A    between atoms: C_10  and  N_11
REMARK    5  A    between atoms: C_15  and  C_16
REMARK                            x       y       z     vdW  Elec       q    Type
REMARK                         _______ _______ _______ _____ _____    ______ ____
ROOT
ATOM      1  N   UNL     1       8.907   8.299  18.721  0.00  0.00    +0.000 N 
ATOM      2  C   UNL     1       7.924   7.341  18.384  0.00  0.00    +0.000 A 
ATOM      3  C   UNL     1       7.865   6.126  19.074  0.00  0.00    +0.000 A 
ATOM      4  C   UNL     1       6.856   5.197  18.774  0.00  0.00    +0.000 A 
ATOM      5  C   UNL     1       5.960   5.484  17.747  0.00  0.00    +0.000 A 
ATOM      6  C   UNL     1       6.151   6.668  17.052  0.00  0.00    +0.000 A 
ATOM      7  N   UNL     1       7.089   7.592  17.360  0.00  0.00    +0.000 NA
ATOM      8  H   UNL     1       9.047   8.290  19.726  0.00  0.00    +0.000 HD
ENDROOT
BRANCH   5   9
ATOM      9  C   UNL     1       4.916   4.568  17.241  0.00  0.00    +0.000 C 
ATOM     10  O   UNL     1       4.716   4.552  16.024  0.00  0.00    +0.000 OA
ATOM     11  N   UNL     1       4.293   3.663  18.087  0.00  0.00    +0.000 N 
ATOM     12  C   UNL     1       3.641   2.493  17.454  0.00  0.00    +0.000 C 
ATOM     13  C   UNL     1       3.062   1.711  18.618  0.00  0.00    +0.000 C 
ATOM     14  C   UNL     1       2.568   2.899  19.386  0.00  0.00    +0.000 A 
ATOM     15  C   UNL     1       1.358   3.037  20.039  0.00  0.00    +0.000 A 
ATOM     16  C   UNL     1       1.030   4.299  20.525  0.00  0.00    +0.000 A 
ATOM     17  C   UNL     1       1.945   5.365  20.429  0.00  0.00    +0.000 A 
ATOM     18  C   UNL     1       3.163   5.220  19.749  0.00  0.00    +0.000 A 
ATOM     19  C   UNL     1       3.422   3.997  19.163  0.00  0.00    +0.000 A 
ENDBRANCH   5   9
BRANCH   1  20
ATOM     20  C   UNL     1       8.526   9.645  18.246  0.00  0.00    +0.000 C 
BRANCH  20  21
ATOM     21  C   UNL     1       8.792  10.712  19.315  0.00  0.00    +0.000 C 
BRANCH  21  26
ATOM     22  C   UNL     1      11.119  13.759  19.297  0.00  0.00    +0.000 A 
ATOM     23  C   UNL     1      11.909  13.498  18.182  0.00  0.00    +0.000 A 
ATOM     24  C   UNL     1      11.668  12.357  17.413  0.00  0.00    +0.000 A 
ATOM     25  C   UNL     1      10.652  11.469  17.773  0.00  0.00    +0.000 A 
ATOM     26  C   UNL     1       9.869  11.696  18.912  0.00  0.00    +0.000 A 
ATOM     27  C   UNL     1      10.103  12.858  19.666  0.00  0.00    +0.000 A 
BRANCH  22  29
ATOM     28  N   UNL     1      12.109  15.957  19.618  0.00  0.00    +0.000 N 
ATOM     29  C   UNL     1      11.323  14.972  20.143  0.00  0.00    +0.000 C 
ATOM     30  O   UNL     1      10.796  15.105  21.240  0.00  0.00    +0.000 OA
ATOM     31  H   UNL     1      12.181  16.818  20.145  0.00  0.00    +0.000 HD
ATOM     32  H   UNL     1      12.366  15.974  18.640  0.00  0.00    +0.000 HD
ENDBRANCH  22  29
ENDBRANCH  21  26
ENDBRANCH  20  21
ENDBRANCH   1  20
TORSDOF 5
ENDMDL
MODEL 6
REMARK VINA RESULT:      -8.9      1.528      1.819
REMARK  Name = 
REMARK  5 active torsions:
REMARK  status: ('A' for Active; 'I' for Inactive)
REMARK    1  A    between atoms: C_2  and  C_4
REMARK    2  A    between atoms: C_8  and  C_9
REMARK    3  A    between atoms: C_9  and  C_10
REMARK    4  A    between atoms: C_10  and  N_11
REMARK    5  A    between atoms: C_15  and  C_16
REMARK                            x       y       z     vdW  Elec       q    Type
REMARK                         _______ _______ _______ _____ _____    ______ ____
ROOT
ATOM      1  N   UNL     1       8.810   8.347  18.627  0.00  0.00    +0.000 N 
ATOM      2  C   UNL     1       7.849   7.358  18.317  0.00  0.00    +0.000 A 
ATOM      3  C   UNL     1       7.828   6.155  19.029  0.00  0.00    +0.000 A 
ATOM      4  C   UNL     1       6.840   5.195  18.755  0.00  0.00    +0.000 A 
ATOM      5  C   UNL     1       5.927   5.441  17.731  0.00  0.00    +0.000 A 
ATOM      6  C   UNL     1       6.082   6.617  17.014  0.00  0.00    +0.000 A 
ATOM      7  N   UNL     1       6.999   7.570  17.296  0.00  0.00    +0.000 NA
ATOM      8  H   UNL     1       8.959   8.360  19.631  0.00  0.00    +0.000 HD
ENDROOT
BRANCH   5   9
ATOM      9  C   UNL     1       4.903   4.489  17.251  0.00  0.00    +0.000 C 
ATOM     10  O   UNL     1       4.706   4.433  16.035  0.00  0.00    +0.000 OA
ATOM     11  N   UNL     1       4.297   3.598  18.123  0.00  0.00    +0.000 N 
ATOM     12  C   UNL     1       3.669   2.397  17.524  0.00  0.00    +0.000 C 
ATOM     13  C   UNL     1       3.103   1.638  18.711  0.00  0.00    +0.000 C 
ATOM     14  C   UNL     1       2.585   2.839  19.442  0.00  0.00    +0.000 A 
ATOM     15  C   UNL     1       1.370   2.972  20.089  0.00  0.00    +0.000 A 
ATOM     16  C   UNL     1       1.017   4.242  20.537  0.00  0.00    +0.000 A 
ATOM     17  C   UNL     1       1.910   5.322  20.410  0.00  0.00    +0.000 A 
ATOM     18  C   UNL     1       3.133   5.181  19.736  0.00  0.00    +0.000 A 
ATOM     19  C   UNL     1       3.417   3.946  19.188  0.00  0.00    +0.000 A 
ENDBRANCH   5   9
BRANCH   1  20
ATOM     20  C   UNL     1       8.390   9.675  18.132  0.00  0.00    +0.000 C 
BRANCH  20  21
ATOM     21  C   UNL     1       9.539  10.688  18.203  0.00  0.00    +0.000 C 
BRANCH  21  26
ATOM     22  C   UNL     1       8.892  13.888  20.213  0.00  0.00    +0.000 A 
ATOM     23  C   UNL     1       8.258  14.687  19.267  0.00  0.00    +0.000 A 
ATOM     24  C   UNL     1       8.003  14.180  17.990  0.00  0.00    +0.000 A 
ATOM     25  C   UNL     1       8.405  12.885  17.656  0.00  0.00    +0.000 A 
ATOM     26  C   UNL     1       9.077  12.079  18.583  0.00  0.00    +0.000 A 
ATOM     27  C   UNL     1       9.308  12.588  19.872  0.00  0.00    +0.000 A 
BRANCH  22  29
ATOM     28  N   UNL     1      10.371  15.002  21.791  0.00  0.00    +0.000 N 
ATOM     29  C   UNL     1       9.173  14.374  21.596  0.00  0.00    +0.000 C 
ATOM     30  O   UNL     1       8.371  14.253  22.512  0.00  0.00    +0.000 OA
ATOM     31  H   UNL     1      10.532  15.412  22.702  0.00  0.00    +0.000 HD
ATOM     32  H   UNL     1      10.944  15.314  21.018  0.00  0.00    +0.000 HD
ENDBRANCH  22  29
ENDBRANCH  21  26
ENDBRANCH  20  21
ENDBRANCH   1  20
TORSDOF 5
ENDMDL
MODEL 7
REMARK VINA RESULT:      -8.8      5.904      8.990
REMARK  Name = 
REMARK  5 active torsions:
REMARK  status: ('A' for Active; 'I' for Inactive)
REMARK    1  A    between atoms: C_2  and  C_4
REMARK    2  A    between atoms: C_8  and  C_9
REMARK    3  A    between atoms: C_9  and  C_10
REMARK    4  A    between atoms: C_10  and  N_11
REMARK    5  A    between atoms: C_15  and  C_16
REMARK                            x       y       z     vdW  Elec       q    Type
REMARK                         _______ _______ _______ _____ _____    ______ ____
ROOT
ATOM      1  N   UNL     1       1.021   9.544  20.635  0.00  0.00    +0.000 N 
ATOM      2  C   UNL     1       1.488   8.318  20.110  0.00  0.00    +0.000 A 
ATOM      3  C   UNL     1       1.469   7.165  20.902  0.00  0.00    +0.000 A 
ATOM      4  C   UNL     1       1.885   5.937  20.362  0.00  0.00    +0.000 A 
ATOM      5  C   UNL     1       2.364   5.904  19.055  0.00  0.00    +0.000 A 
ATOM      6  C   UNL     1       2.439   7.111  18.376  0.00  0.00    +0.000 A 
ATOM      7  N   UNL     1       2.000   8.292  18.867  0.00  0.00    +0.000 NA
ATOM      8  H   UNL     1       0.221   9.365  21.234  0.00  0.00    +0.000 HD
ENDROOT
BRANCH   5   9
ATOM      9  C   UNL     1       2.938   4.718  18.383  0.00  0.00    +0.000 C 
ATOM     10  O   UNL     1       2.346   3.645  18.525  0.00  0.00    +0.000 OA
ATOM     11  N   UNL     1       4.011   4.842  17.516  0.00  0.00    +0.000 N 
ATOM     12  C   UNL     1       4.217   3.743  16.542  0.00  0.00    +0.000 C 
ATOM     13  C   UNL     1       5.444   4.165  15.755  0.00  0.00    +0.000 C 
ATOM     14  C   UNL     1       6.219   4.689  16.925  0.00  0.00    +0.000 A 
ATOM     15  C   UNL     1       7.561   4.503  17.198  0.00  0.00    +0.000 A 
ATOM     16  C   UNL     1       8.028   4.920  18.441  0.00  0.00    +0.000 A 
ATOM     17  C   UNL     1       7.175   5.586  19.342  0.00  0.00    +0.000 A 
ATOM     18  C   UNL     1       5.810   5.753  19.064  0.00  0.00    +0.000 A 
ATOM     19  C   UNL     1       5.334   5.225  17.880  0.00  0.00    +0.000 A 
ENDBRANCH   5   9
BRANCH   1  20
ATOM     20  C   UNL     1       0.677  10.492  19.555  0.00  0.00    +0.000 C 
BRANCH  20  21
ATOM     21  C   UNL     1      -0.648  11.209  19.839  0.00  0.00    +0.000 C 
BRANCH  21  26
ATOM     22  C   UNL     1      -3.886  11.426  17.797  0.00  0.00    +0.000 A 
ATOM     23  C   UNL     1      -3.595  10.588  16.725  0.00  0.00    +0.000 A 
ATOM     24  C   UNL     1      -2.367   9.922  16.679  0.00  0.00    +0.000 A 
ATOM     25  C   UNL     1      -1.426  10.114  17.693  0.00  0.00    +0.000 A 
ATOM     26  C   UNL     1      -1.687  10.981  18.761  0.00  0.00    +0.000 A 
ATOM     27  C   UNL     1      -2.932  11.628  18.812  0.00  0.00    +0.000 A 
BRANCH  22  29
ATOM     28  N   UNL     1      -5.281  13.097  18.882  0.00  0.00    +0.000 N 
ATOM     29  C   UNL     1      -5.188  12.149  17.903  0.00  0.00    +0.000 C 
ATOM     30  O   UNL     1      -6.122  11.937  17.142  0.00  0.00    +0.000 OA
ATOM     31  H   UNL     1      -6.127  13.652  18.905  0.00  0.00    +0.000 HD
ATOM     32  H   UNL     1      -4.466  13.448  19.367  0.00  0.00    +0.000 HD
ENDBRANCH  22  29
ENDBRANCH  21  26
ENDBRANCH  20  21
ENDBRANCH   1  20
TORSDOF 5
ENDMDL
MODEL 8
REMARK VINA RESULT:      -8.4      6.610      9.288
REMARK  Name = 
REMARK  5 active torsions:
REMARK  status: ('A' for Active; 'I' for Inactive)
REMARK    1  A    between atoms: C_2  and  C_4
REMARK    2  A    between atoms: C_8  and  C_9
REMARK    3  A    between atoms: C_9  and  C_10
REMARK    4  A    between atoms: C_10  and  N_11
REMARK    5  A    between atoms: C_15  and  C_16
REMARK                            x       y       z     vdW  Elec       q    Type
REMARK                         _______ _______ _______ _____ _____    ______ ____
ROOT
ATOM      1  N   UNL     1       0.262  10.591  20.623  0.00  0.00    +0.000 N 
ATOM      2  C   UNL     1       1.031   9.560  20.037  0.00  0.00    +0.000 A 
ATOM      3  C   UNL     1       1.333   8.408  20.769  0.00  0.00    +0.000 A 
ATOM      4  C   UNL     1       2.052   7.362  20.168  0.00  0.00    +0.000 A 
ATOM      5  C   UNL     1       2.503   7.521  18.860  0.00  0.00    +0.000 A 
ATOM      6  C   UNL     1       2.242   8.734  18.242  0.00  0.00    +0.000 A 
ATOM      7  N   UNL     1       1.512   9.730  18.792  0.00  0.00    +0.000 NA
ATOM      8  H   UNL     1      -0.451  10.176  21.214  0.00  0.00    +0.000 HD
ENDROOT
BRANCH   5   9
ATOM      9  C   UNL     1       3.361   6.564  18.129  0.00  0.00    +0.000 C 
ATOM     10  O   UNL     1       3.847   6.939  17.059  0.00  0.00    +0.000 OA
ATOM     11  N   UNL     1       3.718   5.351  18.698  0.00  0.00    +0.000 N 
ATOM     12  C   UNL     1       4.920   4.681  18.149  0.00  0.00    +0.000 C 
ATOM     13  C   UNL     1       5.043   3.405  18.962  0.00  0.00    +0.000 C 
ATOM     14  C   UNL     1       3.580   3.082  18.984  0.00  0.00    +0.000 A 
ATOM     15  C   UNL     1       2.986   1.848  18.800  0.00  0.00    +0.000 A 
ATOM     16  C   UNL     1       1.601   1.813  18.671  0.00  0.00    +0.000 A 
ATOM     17  C   UNL     1       0.837   2.987  18.813  0.00  0.00    +0.000 A 
ATOM     18  C   UNL     1       1.450   4.239  18.981  0.00  0.00    +0.000 A 
ATOM     19  C   UNL     1       2.830   4.274  18.984  0.00  0.00    +0.000 A 
ENDBRANCH   5   9
BRANCH   1  20
ATOM     20  C   UNL     1      -0.339  11.462  19.591  0.00  0.00    +0.000 C 
BRANCH  20  21
ATOM     21  C   UNL     1      -1.831  11.698  19.858  0.00  0.00    +0.000 C 
BRANCH  21  26
ATOM     22  C   UNL     1      -4.797  11.793  17.431  0.00  0.00    +0.000 A 
ATOM     23  C   UNL     1      -4.265  11.151  16.317  0.00  0.00    +0.000 A 
ATOM     24  C   UNL     1      -2.960  10.655  16.360  0.00  0.00    +0.000 A 
ATOM     25  C   UNL     1      -2.184  10.820  17.509  0.00  0.00    +0.000 A 
ATOM     26  C   UNL     1      -2.690  11.494  18.628  0.00  0.00    +0.000 A 
ATOM     27  C   UNL     1      -4.010  11.970  18.584  0.00  0.00    +0.000 A 
BRANCH  22  29
ATOM     28  N   UNL     1      -6.360  13.602  16.982  0.00  0.00    +0.000 N 
ATOM     29  C   UNL     1      -6.191  12.328  17.444  0.00  0.00    +0.000 C 
ATOM     30  O   UNL     1      -7.148  11.662  17.815  0.00  0.00    +0.000 OA
ATOM     31  H   UNL     1      -7.310  13.941  16.904  0.00  0.00    +0.000 HD
ATOM     32  H   UNL     1      -5.637  14.084  16.464  0.00  0.00    +0.000 HD
ENDBRANCH  22  29
ENDBRANCH  21  26
ENDBRANCH  20  21
ENDBRANCH   1  20
TORSDOF 5
ENDMDL
MODEL 9
REMARK VINA RESULT:      -8.4      5.272      9.247
REMARK  Name = 
REMARK  5 active torsions:
REMARK  status: ('A' for Active; 'I' for Inactive)
REMARK    1  A    between atoms: C_2  and  C_4
REMARK    2  A    between atoms: C_8  and  C_9
REMARK    3  A    between atoms: C_9  and  C_10
REMARK    4  A    between atoms: C_10  and  N_11
REMARK    5  A    between atoms: C_15  and  C_16
REMARK                            x       y       z     vdW  Elec       q    Type
REMARK                         _______ _______ _______ _____ _____    ______ ____
ROOT
ATOM      1  N   UNL     1       3.148   6.414  18.436  0.00  0.00    +0.000 N 
ATOM      2  C   UNL     1       2.372   7.562  18.709  0.00  0.00    +0.000 A 
ATOM      3  C   UNL     1       2.128   8.500  17.700  0.00  0.00    +0.000 A 
ATOM      4  C   UNL     1       1.314   9.614  17.959  0.00  0.00    +0.000 A 
ATOM      5  C   UNL     1       0.806   9.792  19.244  0.00  0.00    +0.000 A 
ATOM      6  C   UNL     1       1.176   8.866  20.206  0.00  0.00    +0.000 A 
ATOM      7  N   UNL     1       1.922   7.765  19.960  0.00  0.00    +0.000 NA
ATOM      8  H   UNL     1       2.941   6.091  17.496  0.00  0.00    +0.000 HD
ENDROOT
BRANCH   5   9
ATOM      9  C   UNL     1       0.027  10.964  19.701  0.00  0.00    +0.000 C 
ATOM     10  O   UNL     1      -1.200  10.909  19.587  0.00  0.00    +0.000 OA
ATOM     11  N   UNL     1       0.646  12.014  20.361  0.00  0.00    +0.000 N 
ATOM     12  C   UNL     1      -0.219  12.887  21.189  0.00  0.00    +0.000 C 
ATOM     13  C   UNL     1       0.732  13.919  21.765  0.00  0.00    +0.000 C 
ATOM     14  C   UNL     1       1.536  14.119  20.517  0.00  0.00    +0.000 A 
ATOM     15  C   UNL     1       1.985  15.313  19.985  0.00  0.00    +0.000 A 
ATOM     16  C   UNL     1       2.550  15.278  18.714  0.00  0.00    +0.000 A 
ATOM     17  C   UNL     1       2.734  14.055  18.043  0.00  0.00    +0.000 A 
ATOM     18  C   UNL     1       2.259  12.850  18.582  0.00  0.00    +0.000 A 
ATOM     19  C   UNL     1       1.589  12.915  19.789  0.00  0.00    +0.000 A 
ENDBRANCH   5   9
BRANCH   1  20
ATOM     20  C   UNL     1       2.899   5.351  19.432  0.00  0.00    +0.000 C 
BRANCH  20  21
ATOM     21  C   UNL     1       3.952   4.239  19.340  0.00  0.00    +0.000 C 
BRANCH  21  26
ATOM     22  C   UNL     1       6.680   4.905  16.729  0.00  0.00    +0.000 A 
ATOM     23  C   UNL     1       7.621   5.600  17.482  0.00  0.00    +0.000 A 
ATOM     24  C   UNL     1       7.393   5.823  18.843  0.00  0.00    +0.000 A 
ATOM     25  C   UNL     1       6.216   5.369  19.441  0.00  0.00    +0.000 A 
ATOM     26  C   UNL     1       5.241   4.699  18.691  0.00  0.00    +0.000 A 
ATOM     27  C   UNL     1       5.488   4.459  17.330  0.00  0.00    +0.000 A 
BRANCH  22  29
ATOM     28  N   UNL     1       6.213   3.550  14.764  0.00  0.00    +0.000 N 
ATOM     29  C   UNL     1       6.881   4.625  15.276  0.00  0.00    +0.000 C 
ATOM     30  O   UNL     1       7.579   5.332  14.561  0.00  0.00    +0.000 OA
ATOM     31  H   UNL     1       6.273   3.405  13.764  0.00  0.00    +0.000 HD
ATOM     32  H   UNL     1       5.464   3.094  15.269  0.00  0.00    +0.000 HD
ENDBRANCH  22  29
ENDBRANCH  21  26
ENDBRANCH  20  21
ENDBRANCH   1  20
TORSDOF 5
ENDMDL
