MODEL 1
REMARK VINA RESULT:      -9.0      0.000      0.000
REMARK  Name = 
REMARK  3 active torsions:
REMARK  status: ('A' for Active; 'I' for Inactive)
REMARK    1  A    between atoms: C_2  and  C_21
REMARK    2  A    between atoms: N_3  and  C_4
REMARK    3  A    between atoms: C_4  and  C_5
REMARK                            x       y       z     vdW  Elec       q    Type
REMARK                         _______ _______ _______ _____ _____    ______ ____
ROOT
ATOM      1  C   UNL     1       2.029   7.707  19.571  0.00  0.00    +0.000 C 
ATOM      2  O   UNL     1       1.391   7.873  20.614  0.00  0.00    +0.000 OA
ATOM      3  N   UNL     1       2.728   6.558  19.237  0.00  0.00    +0.000 N 
ATOM      4  C   UNL     1       3.591   6.436  18.053  0.00  0.00    +0.000 C 
ATOM      5  C   UNL     1       4.249   5.037  18.081  0.00  0.00    +0.000 C 
ATOM      6  C   UNL     1       5.785   5.116  18.210  0.00  0.00    +0.000 C 
ATOM      7  C   UNL     1       6.345   4.379  16.994  0.00  0.00    +0.000 C 
ATOM      8  C   UNL     1       5.241   4.462  15.954  0.00  0.00    +0.000 C 
ATOM      9  C   UNL     1       3.978   4.263  16.776  0.00  0.00    +0.000 C 
ATOM     10  C   UNL     1       3.585   4.431  19.286  0.00  0.00    +0.000 A 
ATOM     11  C   UNL     1       3.749   3.149  19.792  0.00  0.00    +0.000 A 
ATOM     12  F   UNL     1       4.609   2.299  19.212  0.00  0.00    +0.000 F 
ATOM     13  C   UNL     1       3.024   2.741  20.904  0.00  0.00    +0.000 A 
ATOM     14  C   UNL     1       2.114   3.621  21.498  0.00  0.00    +0.000 A 
ATOM     15  C   UNL     1       1.952   4.924  21.000  0.00  0.00    +0.000 A 
ATOM     16  C   UNL     1       2.709   5.322  19.904  0.00  0.00    +0.000 A 
ENDROOT
BRANCH   1  17
ATOM     17  C   UNL     1       2.071   8.814  18.500  0.00  0.00    +0.000 C 
BRANCH  17  20
ATOM     18  O   UNL     1       0.586  10.921  19.480  0.00  0.00    +0.000 OA
ATOM     19  C   UNL     1       0.101  10.243  18.587  0.00  0.00    +0.000 C 
ATOM     20  N   UNL     1       0.757   9.177  18.017  0.00  0.00    +0.000 N 
ATOM     21  H   UNL     1       0.428   8.716  17.177  0.00  0.00    +0.000 HD
BRANCH  19  22
ATOM     22  C   UNL     1      -1.252  10.554  18.080  0.00  0.00    +0.000 A 
ATOM     23  C   UNL     1      -1.829   9.886  16.998  0.00  0.00    +0.000 A 
ATOM     24  C   UNL     1      -3.159  10.145  16.673  0.00  0.00    +0.000 A 
ATOM     25  C   UNL     1      -3.854  11.079  17.426  0.00  0.00    +0.000 A 
ATOM     26  N   UNL     1      -3.317  11.762  18.461  0.00  0.00    +0.000 NA
ATOM     27  C   UNL     1      -2.029  11.474  18.773  0.00  0.00    +0.000 A 
ENDBRANCH  19  22
ENDBRANCH  17  20
ENDBRANCH   1  17
TORSDOF 3
ENDMDL
MODEL 2
REMARK VINA RESULT:      -8.7      1.374      3.182
REMARK  Name = 
REMARK  3 active torsions:
REMARK  status: ('A' for Active; 'I' for Inactive)
REMARK    1  A    between atoms: C_2  and  C_21
REMARK    2  A    between atoms: N_3  and  C_4
REMARK    3  A    between atoms: C_4  and  C_5
REMARK                            x       y       z     vdW  Elec       q    Type
REMARK                         _______ _______ _______ _____ _____    ______ ____
ROOT
ATOM      1  C   UNL     1       2.413   8.496  17.900  0.00  0.00    +0.000 C 
ATOM      2  O   UNL     1       3.006   9.136  17.028  0.00  0.00    +0.000 OA
ATOM      3  N   UNL     1       2.643   7.167  18.211  0.00  0.00    +0.000 N 
ATOM      4  C   UNL     1       1.830   6.390  19.159  0.00  0.00    +0.000 C 
ATOM      5  C   UNL     1       2.357   4.936  19.165  0.00  0.00    +0.000 C 
ATOM      6  C   UNL     1       1.301   3.930  18.662  0.00  0.00    +0.000 C 
ATOM      7  C   UNL     1       1.108   2.926  19.797  0.00  0.00    +0.000 C 
ATOM      8  C   UNL     1       1.520   3.679  21.050  0.00  0.00    +0.000 C 
ATOM      9  C   UNL     1       2.727   4.479  20.589  0.00  0.00    +0.000 C 
ATOM     10  C   UNL     1       3.543   5.056  18.247  0.00  0.00    +0.000 A 
ATOM     11  C   UNL     1       4.449   4.065  17.897  0.00  0.00    +0.000 A 
ATOM     12  F   UNL     1       4.301   2.817  18.364  0.00  0.00    +0.000 F 
ATOM     13  C   UNL     1       5.515   4.362  17.056  0.00  0.00    +0.000 A 
ATOM     14  C   UNL     1       5.680   5.667  16.584  0.00  0.00    +0.000 A 
ATOM     15  C   UNL     1       4.760   6.672  16.924  0.00  0.00    +0.000 A 
ATOM     16  C   UNL     1       3.685   6.348  17.742  0.00  0.00    +0.000 A 
ENDROOT
BRANCH   1  17
ATOM     17  C   UNL     1       1.338   9.177  18.769  0.00  0.00    +0.000 C 
BRANCH  17  20
ATOM     18  O   UNL     1      -0.891  10.377  19.863  0.00  0.00    +0.000 OA
ATOM     19  C   UNL     1      -0.869  10.202  18.655  0.00  0.00    +0.000 C 
ATOM     20  N   UNL     1       0.196   9.625  18.003  0.00  0.00    +0.000 N 
ATOM     21  H   UNL     1       0.285   9.622  16.993  0.00  0.00    +0.000 HD
BRANCH  19  22
ATOM     22  C   UNL     1      -2.025  10.612  17.830  0.00  0.00    +0.000 A 
ATOM     23  C   UNL     1      -2.242  10.133  16.538  0.00  0.00    +0.000 A 
ATOM     24  C   UNL     1      -3.428  10.463  15.883  0.00  0.00    +0.000 A 
ATOM     25  C   UNL     1      -4.339  11.279  16.537  0.00  0.00    +0.000 A 
ATOM     26  N   UNL     1      -4.146  11.780  17.776  0.00  0.00    +0.000 NA
ATOM     27  C   UNL     1      -2.997  11.425  18.401  0.00  0.00    +0.000 A 
ENDBRANCH  19  22
ENDBRANCH  17  20
ENDBRANCH   1  17
TORSDOF 3
ENDMDL
MODEL 3
REMARK VINA RESULT:      -8.5      2.809      4.411
REMARK  Name = 
REMARK  3 active torsions:
REMARK  status: ('A' for Active; 'I' for Inactive)
REMARK    1  A    between atoms: C_2  and  C_21
REMARK    2  A    between atoms: N_3  and  C_4
REMARK    3  A    between atoms: C_4  and  C_5
REMARK                            x       y       z     vdW  Elec       q    Type
REMARK                         _______ _______ _______ _____ _____    ______ ____
ROOT
ATOM      1  C   UNL     1       1.433   8.393  20.095  0.00  0.00    +0.000 C 
ATOM      2  O   UNL     1       1.639   9.365  19.364  0.00  0.00    +0.000 OA
ATOM      3  N   UNL     1       1.869   7.102  19.848  0.00  0.00    +0.000 N 
ATOM      4  C   UNL     1       1.495   5.937  20.665  0.00  0.00    +0.000 C 
ATOM      5  C   UNL     1       2.115   4.678  20.016  0.00  0.00    +0.000 C 
ATOM      6  C   UNL     1       1.042   3.682  19.529  0.00  0.00    +0.000 C 
ATOM      7  C   UNL     1       1.332   2.369  20.254  0.00  0.00    +0.000 C 
ATOM      8  C   UNL     1       2.077   2.780  21.512  0.00  0.00    +0.000 C 
ATOM      9  C   UNL     1       2.984   3.898  21.023  0.00  0.00    +0.000 C 
ATOM     10  C   UNL     1       2.905   5.291  18.893  0.00  0.00    +0.000 A 
ATOM     11  C   UNL     1       3.720   4.644  17.975  0.00  0.00    +0.000 A 
ATOM     12  F   UNL     1       3.846   3.309  18.006  0.00  0.00    +0.000 F 
ATOM     13  C   UNL     1       4.408   5.377  17.016  0.00  0.00    +0.000 A 
ATOM     14  C   UNL     1       4.291   6.770  16.995  0.00  0.00    +0.000 A 
ATOM     15  C   UNL     1       3.458   7.431  17.912  0.00  0.00    +0.000 A 
ATOM     16  C   UNL     1       2.756   6.677  18.845  0.00  0.00    +0.000 A 
ENDROOT
BRANCH   1  17
ATOM     17  C   UNL     1       0.663   8.565  21.418  0.00  0.00    +0.000 C 
BRANCH  17  20
ATOM     18  O   UNL     1       0.091   9.917  23.753  0.00  0.00    +0.000 OA
ATOM     19  C   UNL     1      -0.316  10.387  22.703  0.00  0.00    +0.000 C 
ATOM     20  N   UNL     1      -0.080   9.805  21.480  0.00  0.00    +0.000 N 
ATOM     21  H   UNL     1      -0.278  10.270  20.602  0.00  0.00    +0.000 HD
BRANCH  19  22
ATOM     22  C   UNL     1      -1.108  11.636  22.714  0.00  0.00    +0.000 A 
ATOM     23  C   UNL     1      -2.362  11.734  23.318  0.00  0.00    +0.000 A 
ATOM     24  C   UNL     1      -2.978  12.982  23.404  0.00  0.00    +0.000 A 
ATOM     25  C   UNL     1      -2.327  14.078  22.860  0.00  0.00    +0.000 A 
ATOM     26  N   UNL     1      -1.126  14.012  22.244  0.00  0.00    +0.000 NA
ATOM     27  C   UNL     1      -0.537  12.792  22.196  0.00  0.00    +0.000 A 
ENDBRANCH  19  22
ENDBRANCH  17  20
ENDBRANCH   1  17
TORSDOF 3
ENDMDL
MODEL 4
REMARK VINA RESULT:      -8.4      1.238      3.157
REMARK  Name = 
REMARK  3 active torsions:
REMARK  status: ('A' for Active; 'I' for Inactive)
REMARK    1  A    between atoms: C_2  and  C_21
REMARK    2  A    between atoms: N_3  and  C_4
REMARK    3  A    between atoms: C_4  and  C_5
REMARK                            x       y       z     vdW  Elec       q    Type
REMARK                         _______ _______ _______ _____ _____    ______ ____
ROOT
ATOM      1  C   UNL     1       2.202   8.341  18.710  0.00  0.00    +0.000 C 
ATOM      2  O   UNL     1       2.598   9.038  17.772  0.00  0.00    +0.000 OA
ATOM      3  N   UNL     1       2.455   6.988  18.863  0.00  0.00    +0.000 N 
ATOM      4  C   UNL     1       1.859   6.154  19.917  0.00  0.00    +0.000 C 
ATOM      5  C   UNL     1       2.325   4.696  19.695  0.00  0.00    +0.000 C 
ATOM      6  C   UNL     1       1.148   3.747  19.382  0.00  0.00    +0.000 C 
ATOM      7  C   UNL     1       1.190   2.662  20.457  0.00  0.00    +0.000 C 
ATOM      8  C   UNL     1       1.905   3.309  21.630  0.00  0.00    +0.000 C 
ATOM      9  C   UNL     1       2.999   4.124  20.958  0.00  0.00    +0.000 C 
ATOM     10  C   UNL     1       3.269   4.868  18.538  0.00  0.00    +0.000 A 
ATOM     11  C   UNL     1       4.037   3.893  17.915  0.00  0.00    +0.000 A 
ATOM     12  F   UNL     1       3.960   2.615  18.314  0.00  0.00    +0.000 F 
ATOM     13  C   UNL     1       4.888   4.238  16.873  0.00  0.00    +0.000 A 
ATOM     14  C   UNL     1       4.983   5.573  16.469  0.00  0.00    +0.000 A 
ATOM     15  C   UNL     1       4.199   6.562  17.086  0.00  0.00    +0.000 A 
ATOM     16  C   UNL     1       3.332   6.193  18.107  0.00  0.00    +0.000 A 
ENDROOT
BRANCH   1  17
ATOM     17  C   UNL     1       1.381   8.970  19.853  0.00  0.00    +0.000 C 
BRANCH  17  20
ATOM     18  O   UNL     1       0.582  11.455  18.963  0.00  0.00    +0.000 OA
ATOM     19  C   UNL     1      -0.260  10.575  19.039  0.00  0.00    +0.000 C 
ATOM     20  N   UNL     1       0.028   9.297  19.458  0.00  0.00    +0.000 N 
ATOM     21  H   UNL     1      -0.628   8.530  19.373  0.00  0.00    +0.000 HD
BRANCH  19  22
ATOM     22  C   UNL     1      -1.664  10.867  18.678  0.00  0.00    +0.000 A 
ATOM     23  C   UNL     1      -2.397  10.081  17.788  0.00  0.00    +0.000 A 
ATOM     24  C   UNL     1      -3.754  10.346  17.610  0.00  0.00    +0.000 A 
ATOM     25  C   UNL     1      -4.319  11.401  18.310  0.00  0.00    +0.000 A 
ATOM     26  N   UNL     1      -3.631  12.196  19.157  0.00  0.00    +0.000 NA
ATOM     27  C   UNL     1      -2.319  11.903  19.332  0.00  0.00    +0.000 A 
ENDBRANCH  19  22
ENDBRANCH  17  20
ENDBRANCH   1  17
TORSDOF 3
ENDMDL
MODEL 5
REMARK VINA RESULT:      -8.3      2.682      4.031
REMARK  Name = 
REMARK  3 active torsions:
REMARK  status: ('A' for Active; 'I' for Inactive)
REMARK    1  A    between atoms: C_2  and  C_21
REMARK    2  A    between atoms: N_3  and  C_4
REMARK    3  A    between atoms: C_4  and  C_5
REMARK                            x       y       z     vdW  Elec       q    Type
REMARK                         _______ _______ _______ _____ _____    ______ ____
ROOT
ATOM      1  C   UNL     1       2.347   7.654  19.126  0.00  0.00    +0.000 C 
ATOM      2  O   UNL     1       2.367   8.713  18.494  0.00  0.00    +0.000 OA
ATOM      3  N   UNL     1       2.930   6.467  18.712  0.00  0.00    +0.000 N 
ATOM      4  C   UNL     1       2.775   5.186  19.417  0.00  0.00    +0.000 C 
ATOM      5  C   UNL     1       3.506   4.096  18.598  0.00  0.00    +0.000 C 
ATOM      6  C   UNL     1       2.540   3.015  18.070  0.00  0.00    +0.000 C 
ATOM      7  C   UNL     1       3.055   1.688  18.628  0.00  0.00    +0.000 C 
ATOM      8  C   UNL     1       3.832   2.071  19.875  0.00  0.00    +0.000 C 
ATOM      9  C   UNL     1       4.543   3.348  19.459  0.00  0.00    +0.000 C 
ATOM     10  C   UNL     1       4.122   4.924  17.504  0.00  0.00    +0.000 A 
ATOM     11  C   UNL     1       4.945   4.492  16.473  0.00  0.00    +0.000 A 
ATOM     12  F   UNL     1       5.248   3.192  16.349  0.00  0.00    +0.000 F 
ATOM     13  C   UNL     1       5.456   5.407  15.560  0.00  0.00    +0.000 A 
ATOM     14  C   UNL     1       5.155   6.764  15.699  0.00  0.00    +0.000 A 
ATOM     15  C   UNL     1       4.313   7.207  16.732  0.00  0.00    +0.000 A 
ATOM     16  C   UNL     1       3.787   6.273  17.617  0.00  0.00    +0.000 A 
ENDROOT
BRANCH   1  17
ATOM     17  C   UNL     1       1.661   7.582  20.504  0.00  0.00    +0.000 C 
BRANCH  17  20
ATOM     18  O   UNL     1       1.850   9.370  22.595  0.00  0.00    +0.000 OA
ATOM     19  C   UNL     1       0.921   9.497  21.813  0.00  0.00    +0.000 C 
ATOM     20  N   UNL     1       0.737   8.671  20.729  0.00  0.00    +0.000 N 
ATOM     21  H   UNL     1       0.065   8.868  19.996  0.00  0.00    +0.000 HD
BRANCH  19  22
ATOM     22  C   UNL     1      -0.070  10.575  22.017  0.00  0.00    +0.000 A 
ATOM     23  C   UNL     1      -0.237  11.632  21.121  0.00  0.00    +0.000 A 
ATOM     24  C   UNL     1      -1.286  12.529  21.318  0.00  0.00    +0.000 A 
ATOM     25  C   UNL     1      -2.113  12.347  22.417  0.00  0.00    +0.000 A 
ATOM     26  N   UNL     1      -1.961  11.351  23.316  0.00  0.00    +0.000 NA
ATOM     27  C   UNL     1      -0.949  10.479  23.089  0.00  0.00    +0.000 A 
ENDBRANCH  19  22
ENDBRANCH  17  20
ENDBRANCH   1  17
TORSDOF 3
ENDMDL
MODEL 6
REMARK VINA RESULT:      -8.3      1.331      3.276
REMARK  Name = 
REMARK  3 active torsions:
REMARK  status: ('A' for Active; 'I' for Inactive)
REMARK    1  A    between atoms: C_2  and  C_21
REMARK    2  A    between atoms: N_3  and  C_4
REMARK    3  A    between atoms: C_4  and  C_5
REMARK                            x       y       z     vdW  Elec       q    Type
REMARK                         _______ _______ _______ _____ _____    ______ ____
ROOT
ATOM      1  C   UNL     1       2.363   8.365  18.307  0.00  0.00    +0.000 C 
ATOM      2  O   UNL     1       2.807   9.030  17.367  0.00  0.00    +0.000 OA
ATOM      3  N   UNL     1       2.594   7.015  18.509  0.00  0.00    +0.000 N 
ATOM      4  C   UNL     1       1.943   6.217  19.560  0.00  0.00    +0.000 C 
ATOM      5  C   UNL     1       2.403   4.749  19.401  0.00  0.00    +0.000 C 
ATOM      6  C   UNL     1       1.231   3.803  19.064  0.00  0.00    +0.000 C 
ATOM      7  C   UNL     1       1.214   2.749  20.170  0.00  0.00    +0.000 C 
ATOM      8  C   UNL     1       1.884   3.424  21.354  0.00  0.00    +0.000 C 
ATOM      9  C   UNL     1       3.015   4.208  20.708  0.00  0.00    +0.000 C 
ATOM     10  C   UNL     1       3.399   4.878  18.281  0.00  0.00    +0.000 A 
ATOM     11  C   UNL     1       4.182   3.878  17.722  0.00  0.00    +0.000 A 
ATOM     12  F   UNL     1       4.073   2.613  18.153  0.00  0.00    +0.000 F 
ATOM     13  C   UNL     1       5.081   4.184  16.708  0.00  0.00    +0.000 A 
ATOM     14  C   UNL     1       5.208   5.506  16.271  0.00  0.00    +0.000 A 
ATOM     15  C   UNL     1       4.409   6.520  16.823  0.00  0.00    +0.000 A 
ATOM     16  C   UNL     1       3.495   6.189  17.816  0.00  0.00    +0.000 A 
ENDROOT
BRANCH   1  17
ATOM     17  C   UNL     1       1.500   9.035  19.394  0.00  0.00    +0.000 C 
BRANCH  17  20
ATOM     18  O   UNL     1       0.498  11.477  18.594  0.00  0.00    +0.000 OA
ATOM     19  C   UNL     1      -0.260  10.520  18.602  0.00  0.00    +0.000 C 
ATOM     20  N   UNL     1       0.134   9.255  18.970  0.00  0.00    +0.000 N 
ATOM     21  H   UNL     1      -0.445   8.436  18.828  0.00  0.00    +0.000 HD
BRANCH  19  22
ATOM     22  C   UNL     1      -1.674  10.699  18.209  0.00  0.00    +0.000 A 
ATOM     23  C   UNL     1      -2.530  11.600  18.843  0.00  0.00    +0.000 A 
ATOM     24  C   UNL     1      -3.806  11.806  18.321  0.00  0.00    +0.000 A 
ATOM     25  C   UNL     1      -4.185  11.083  17.199  0.00  0.00    +0.000 A 
ATOM     26  N   UNL     1      -3.391  10.184  16.580  0.00  0.00    +0.000 NA
ATOM     27  C   UNL     1      -2.146  10.020  17.092  0.00  0.00    +0.000 A 
ENDBRANCH  19  22
ENDBRANCH  17  20
ENDBRANCH   1  17
TORSDOF 3
ENDMDL
MODEL 7
REMARK VINA RESULT:      -8.3      2.591      4.062
REMARK  Name = 
REMARK  3 active torsions:
REMARK  status: ('A' for Active; 'I' for Inactive)
REMARK    1  A    between atoms: C_2  and  C_21
REMARK    2  A    between atoms: N_3  and  C_4
REMARK    3  A    between atoms: C_4  and  C_5
REMARK                            x       y       z     vdW  Elec       q    Type
REMARK                         _______ _______ _______ _____ _____    ______ ____
ROOT
ATOM      1  C   UNL     1       2.208   7.942  19.293  0.00  0.00    +0.000 C 
ATOM      2  O   UNL     1       2.437   8.985  18.675  0.00  0.00    +0.000 OA
ATOM      3  N   UNL     1       2.635   6.680  18.915  0.00  0.00    +0.000 N 
ATOM      4  C   UNL     1       2.235   5.438  19.594  0.00  0.00    +0.000 C 
ATOM      5  C   UNL     1       2.854   4.249  18.824  0.00  0.00    +0.000 C 
ATOM      6  C   UNL     1       1.779   3.324  18.214  0.00  0.00    +0.000 C 
ATOM      7  C   UNL     1       2.042   1.937  18.797  0.00  0.00    +0.000 C 
ATOM      8  C   UNL     1       2.769   2.201  20.104  0.00  0.00    +0.000 C 
ATOM      9  C   UNL     1       3.696   3.354  19.755  0.00  0.00    +0.000 C 
ATOM     10  C   UNL     1       3.670   4.970  17.787  0.00  0.00    +0.000 A 
ATOM     11  C   UNL     1       4.495   4.416  16.818  0.00  0.00    +0.000 A 
ATOM     12  F   UNL     1       4.607   3.085  16.707  0.00  0.00    +0.000 F 
ATOM     13  C   UNL     1       5.207   5.240  15.956  0.00  0.00    +0.000 A 
ATOM     14  C   UNL     1       5.105   6.628  16.084  0.00  0.00    +0.000 A 
ATOM     15  C   UNL     1       4.262   7.196  17.053  0.00  0.00    +0.000 A 
ATOM     16  C   UNL     1       3.535   6.355  17.887  0.00  0.00    +0.000 A 
ENDROOT
BRANCH   1  17
ATOM     17  C   UNL     1       1.416   7.978  20.614  0.00  0.00    +0.000 C 
BRANCH  17  20
ATOM     18  O   UNL     1       1.178   9.514  22.892  0.00  0.00    +0.000 OA
ATOM     19  C   UNL     1       0.515   9.828  21.917  0.00  0.00    +0.000 C 
ATOM     20  N   UNL     1       0.564   9.142  20.726  0.00  0.00    +0.000 N 
ATOM     21  H   UNL     1       0.139   9.490  19.874  0.00  0.00    +0.000 HD
BRANCH  19  22
ATOM     22  C   UNL     1      -0.396  10.990  21.990  0.00  0.00    +0.000 A 
ATOM     23  C   UNL     1      -1.339  11.153  23.005  0.00  0.00    +0.000 A 
ATOM     24  C   UNL     1      -2.062  12.343  23.076  0.00  0.00    +0.000 A 
ATOM     25  C   UNL     1      -1.830  13.314  22.114  0.00  0.00    +0.000 A 
ATOM     26  N   UNL     1      -0.945  13.177  21.103  0.00  0.00    +0.000 NA
ATOM     27  C   UNL     1      -0.238  12.021  21.071  0.00  0.00    +0.000 A 
ENDBRANCH  19  22
ENDBRANCH  17  20
ENDBRANCH   1  17
TORSDOF 3
ENDMDL
MODEL 8
REMARK VINA RESULT:      -8.1      2.022      3.661
REMARK  Name = 
REMARK  3 active torsions:
REMARK  status: ('A' for Active; 'I' for Inactive)
REMARK    1  A    between atoms: C_2  and  C_21
REMARK    2  A    between atoms: N_3  and  C_4
REMARK    3  A    between atoms: C_4  and  C_5
REMARK                            x       y       z     vdW  Elec       q    Type
REMARK                         _______ _______ _______ _____ _____    ______ ____
ROOT
ATOM      1  C   UNL     1       2.269   8.045  18.977  0.00  0.00    +0.000 C 
ATOM      2  O   UNL     1       2.624   8.982  18.256  0.00  0.00    +0.000 OA
ATOM      3  N   UNL     1       2.580   6.713  18.765  0.00  0.00    +0.000 N 
ATOM      4  C   UNL     1       2.032   5.603  19.560  0.00  0.00    +0.000 C 
ATOM      5  C   UNL     1       2.557   4.278  18.961  0.00  0.00    +0.000 C 
ATOM      6  C   UNL     1       1.419   3.395  18.407  0.00  0.00    +0.000 C 
ATOM      7  C   UNL     1       1.519   2.067  19.155  0.00  0.00    +0.000 C 
ATOM      8  C   UNL     1       2.218   2.412  20.458  0.00  0.00    +0.000 C 
ATOM      9  C   UNL     1       3.269   3.423  20.027  0.00  0.00    +0.000 C 
ATOM     10  C   UNL     1       3.480   4.792  17.891  0.00  0.00    +0.000 A 
ATOM     11  C   UNL     1       4.282   4.051  17.033  0.00  0.00    +0.000 A 
ATOM     12  F   UNL     1       4.263   2.711  17.079  0.00  0.00    +0.000 F 
ATOM     13  C   UNL     1       5.106   4.697  16.120  0.00  0.00    +0.000 A 
ATOM     14  C   UNL     1       5.139   6.094  16.084  0.00  0.00    +0.000 A 
ATOM     15  C   UNL     1       4.321   6.849  16.940  0.00  0.00    +0.000 A 
ATOM     16  C   UNL     1       3.482   6.185  17.827  0.00  0.00    +0.000 A 
ENDROOT
BRANCH   1  17
ATOM     17  C   UNL     1       1.434   8.312  20.244  0.00  0.00    +0.000 C 
BRANCH  17  20
ATOM     18  O   UNL     1       1.225  10.412  22.020  0.00  0.00    +0.000 OA
ATOM     19  C   UNL     1       0.490  10.409  21.045  0.00  0.00    +0.000 C 
ATOM     20  N   UNL     1       0.517   9.420  20.090  0.00  0.00    +0.000 N 
ATOM     21  H   UNL     1       0.025   9.495  19.207  0.00  0.00    +0.000 HD
BRANCH  19  22
ATOM     22  C   UNL     1      -0.488  11.502  20.858  0.00  0.00    +0.000 A 
ATOM     23  C   UNL     1      -1.367  11.557  19.775  0.00  0.00    +0.000 A 
ATOM     24  C   UNL     1      -2.349  12.547  19.748  0.00  0.00    +0.000 A 
ATOM     25  C   UNL     1      -2.397  13.458  20.792  0.00  0.00    +0.000 A 
ATOM     26  N   UNL     1      -1.545  13.448  21.839  0.00  0.00    +0.000 NA
ATOM     27  C   UNL     1      -0.615  12.462  21.855  0.00  0.00    +0.000 A 
ENDBRANCH  19  22
ENDBRANCH  17  20
ENDBRANCH   1  17
TORSDOF 3
ENDMDL
MODEL 9
REMARK VINA RESULT:      -8.0      1.508      2.002
REMARK  Name = 
REMARK  3 active torsions:
REMARK  status: ('A' for Active; 'I' for Inactive)
REMARK    1  A    between atoms: C_2  and  C_21
REMARK    2  A    between atoms: N_3  and  C_4
REMARK    3  A    between atoms: C_4  and  C_5
REMARK                            x       y       z     vdW  Elec       q    Type
REMARK                         _______ _______ _______ _____ _____    ______ ____
ROOT
ATOM      1  C   UNL     1       2.043   7.745  19.322  0.00  0.00    +0.000 C 
ATOM      2  O   UNL     1       1.380   7.956  20.340  0.00  0.00    +0.000 OA
ATOM      3  N   UNL     1       2.749   6.584  19.054  0.00  0.00    +0.000 N 
ATOM      4  C   UNL     1       3.641   6.411  17.897  0.00  0.00    +0.000 C 
ATOM      5  C   UNL     1       4.298   5.015  18.002  0.00  0.00    +0.000 C 
ATOM      6  C   UNL     1       5.830   5.100  18.165  0.00  0.00    +0.000 C 
ATOM      7  C   UNL     1       6.418   4.312  16.995  0.00  0.00    +0.000 C 
ATOM      8  C   UNL     1       5.340   4.348  15.926  0.00  0.00    +0.000 C 
ATOM      9  C   UNL     1       4.058   4.184  16.726  0.00  0.00    +0.000 C 
ATOM     10  C   UNL     1       3.605   4.461  19.217  0.00  0.00    +0.000 A 
ATOM     11  C   UNL     1       3.756   3.202  19.781  0.00  0.00    +0.000 A 
ATOM     12  F   UNL     1       4.630   2.328  19.260  0.00  0.00    +0.000 F 
ATOM     13  C   UNL     1       3.005   2.843  20.893  0.00  0.00    +0.000 A 
ATOM     14  C   UNL     1       2.081   3.747  21.425  0.00  0.00    +0.000 A 
ATOM     15  C   UNL     1       1.932   5.027  20.867  0.00  0.00    +0.000 A 
ATOM     16  C   UNL     1       2.714   5.378  19.774  0.00  0.00    +0.000 A 
ENDROOT
BRANCH   1  17
ATOM     17  C   UNL     1       2.111   8.804  18.205  0.00  0.00    +0.000 C 
BRANCH  17  20
ATOM     18  O   UNL     1      -0.401   9.902  17.904  0.00  0.00    +0.000 OA
ATOM     19  C   UNL     1       0.459  10.577  18.447  0.00  0.00    +0.000 C 
ATOM     20  N   UNL     1       1.740  10.126  18.661  0.00  0.00    +0.000 N 
ATOM     21  H   UNL     1       2.405  10.618  19.247  0.00  0.00    +0.000 HD
BRANCH  19  22
ATOM     22  C   UNL     1       0.140  11.947  18.903  0.00  0.00    +0.000 A 
ATOM     23  C   UNL     1       0.914  13.058  18.566  0.00  0.00    +0.000 A 
ATOM     24  C   UNL     1       0.467  14.330  18.922  0.00  0.00    +0.000 A 
ATOM     25  C   UNL     1      -0.725  14.438  19.622  0.00  0.00    +0.000 A 
ATOM     26  N   UNL     1      -1.483  13.382  19.987  0.00  0.00    +0.000 NA
ATOM     27  C   UNL     1      -1.039  12.158  19.608  0.00  0.00    +0.000 A 
ENDBRANCH  19  22
ENDBRANCH  17  20
ENDBRANCH   1  17
TORSDOF 3
ENDMDL
