MODEL 1
REMARK VINA RESULT:      -8.9      0.000      0.000
REMARK  Name = 
REMARK  2 active torsions:
REMARK  status: ('A' for Active; 'I' for Inactive)
REMARK    1  A    between atoms: C_7  and  C_8
REMARK    2  A    between atoms: N_10  and  C_11
REMARK                            x       y       z     vdW  Elec       q    Type
REMARK                         _______ _______ _______ _____ _____    ______ ____
ROOT
ATOM      1  C   UNL     1       8.054   8.452  18.120  0.00  0.00    +0.000 C 
ATOM      2  O   UNL     1       8.626   7.691  18.896  0.00  0.00    +0.000 OA
ATOM      3  N   UNL     1       7.049   8.112  17.225  0.00  0.00    +0.000 N 
ATOM      4  H   UNL     1       6.803   8.784  16.511  0.00  0.00    +0.000 HD
ENDROOT
BRANCH   3   5
ATOM      5  C   UNL     1       6.511   6.804  17.075  0.00  0.00    +0.000 A 
ATOM      6  C   UNL     1       7.106   5.836  16.239  0.00  0.00    +0.000 A 
ATOM      7  C   UNL     1       6.534   4.580  16.040  0.00  0.00    +0.000 A 
ATOM      8  C   UNL     1       5.353   4.297  16.693  0.00  0.00    +0.000 A 
ATOM      9  C   UNL     1       4.747   5.231  17.560  0.00  0.00    +0.000 A 
ATOM     10  C   UNL     1       5.331   6.477  17.772  0.00  0.00    +0.000 A 
ATOM     11  C   UNL     1       3.512   4.647  18.057  0.00  0.00    +0.000 A 
ATOM     12  C   UNL     1       2.542   5.149  18.906  0.00  0.00    +0.000 A 
ATOM     13  C   UNL     1       1.423   4.352  19.187  0.00  0.00    +0.000 A 
ATOM     14  C   UNL     1       1.282   3.072  18.622  0.00  0.00    +0.000 A 
ATOM     15  C   UNL     1       2.258   2.562  17.768  0.00  0.00    +0.000 A 
ATOM     16  C   UNL     1       3.361   3.357  17.497  0.00  0.00    +0.000 A 
ATOM     17  C   UNL     1       4.530   3.033  16.595  0.00  0.00    +0.000 C 
ENDBRANCH   3   5
BRANCH   1  24
ATOM     18  O   UNL     1      11.462  15.262  19.232  0.00  0.00    +0.000 OA
ATOM     19  C   UNL     1      11.017  14.118  19.188  0.00  0.00    +0.000 C 
ATOM     20  C   UNL     1      11.527  12.985  20.079  0.00  0.00    +0.000 C 
ATOM     21  O   UNL     1      11.288  11.639  19.694  0.00  0.00    +0.000 OA
ATOM     22  C   UNL     1      10.150  11.456  18.961  0.00  0.00    +0.000 A 
ATOM     23  C   UNL     1       9.686  10.149  18.854  0.00  0.00    +0.000 A 
ATOM     24  C   UNL     1       8.539   9.858  18.099  0.00  0.00    +0.000 A 
ATOM     25  C   UNL     1       7.862  10.891  17.441  0.00  0.00    +0.000 A 
ATOM     26  C   UNL     1       8.339  12.207  17.537  0.00  0.00    +0.000 A 
ATOM     27  C   UNL     1       9.480  12.485  18.298  0.00  0.00    +0.000 A 
ATOM     28  N   UNL     1       9.961  13.792  18.381  0.00  0.00    +0.000 N 
ATOM     29  H   UNL     1       9.550  14.542  17.843  0.00  0.00    +0.000 HD
ENDBRANCH   1  24
TORSDOF 2
ENDMDL
MODEL 2
REMARK VINA RESULT:      -8.8      6.264      8.150
REMARK  Name = 
REMARK  2 active torsions:
REMARK  status: ('A' for Active; 'I' for Inactive)
REMARK    1  A    between atoms: C_7  and  C_8
REMARK    2  A    between atoms: N_10  and  C_11
REMARK                            x       y       z     vdW  Elec       q    Type
REMARK                         _______ _______ _______ _____ _____    ______ ____
ROOT
ATOM      1  C   UNL     1       1.154   8.603  20.374  0.00  0.00    +0.000 C 
ATOM      2  O   UNL     1       1.450   8.938  19.230  0.00  0.00    +0.000 OA
ATOM      3  N   UNL     1       1.384   7.363  20.954  0.00  0.00    +0.000 N 
ATOM      4  H   UNL     1       0.919   7.155  21.828  0.00  0.00    +0.000 HD
ENDROOT
BRANCH   3   5
ATOM      5  C   UNL     1       2.019   6.272  20.300  0.00  0.00    +0.000 A 
ATOM      6  C   UNL     1       1.995   4.963  20.825  0.00  0.00    +0.000 A 
ATOM      7  C   UNL     1       2.681   3.911  20.217  0.00  0.00    +0.000 A 
ATOM      8  C   UNL     1       3.394   4.183  19.069  0.00  0.00    +0.000 A 
ATOM      9  C   UNL     1       3.415   5.474  18.501  0.00  0.00    +0.000 A 
ATOM     10  C   UNL     1       2.713   6.518  19.099  0.00  0.00    +0.000 A 
ATOM     11  C   UNL     1       4.275   5.437  17.329  0.00  0.00    +0.000 A 
ATOM     12  C   UNL     1       4.649   6.428  16.440  0.00  0.00    +0.000 A 
ATOM     13  C   UNL     1       5.534   6.096  15.403  0.00  0.00    +0.000 A 
ATOM     14  C   UNL     1       6.032   4.789  15.265  0.00  0.00    +0.000 A 
ATOM     15  C   UNL     1       5.654   3.786  16.156  0.00  0.00    +0.000 A 
ATOM     16  C   UNL     1       4.780   4.125  17.178  0.00  0.00    +0.000 A 
ATOM     17  C   UNL     1       4.246   3.224  18.268  0.00  0.00    +0.000 C 
ENDBRANCH   3   5
BRANCH   1  24
ATOM     18  O   UNL     1      -1.771  14.861  23.766  0.00  0.00    +0.000 OA
ATOM     19  C   UNL     1      -1.206  13.975  23.131  0.00  0.00    +0.000 C 
ATOM     20  C   UNL     1      -0.211  14.253  22.004  0.00  0.00    +0.000 C 
ATOM     21  O   UNL     1       0.065  13.234  21.055  0.00  0.00    +0.000 OA
ATOM     22  C   UNL     1      -0.061  11.963  21.540  0.00  0.00    +0.000 A 
ATOM     23  C   UNL     1       0.519  10.951  20.782  0.00  0.00    +0.000 A 
ATOM     24  C   UNL     1       0.419   9.610  21.185  0.00  0.00    +0.000 A 
ATOM     25  C   UNL     1      -0.278   9.289  22.355  0.00  0.00    +0.000 A 
ATOM     26  C   UNL     1      -0.876  10.308  23.111  0.00  0.00    +0.000 A 
ATOM     27  C   UNL     1      -0.763  11.642  22.702  0.00  0.00    +0.000 A 
ATOM     28  N   UNL     1      -1.370  12.653  23.447  0.00  0.00    +0.000 N 
ATOM     29  H   UNL     1      -1.958  12.445  24.242  0.00  0.00    +0.000 HD
ENDBRANCH   1  24
TORSDOF 2
ENDMDL
MODEL 3
REMARK VINA RESULT:      -8.8      7.768      9.358
REMARK  Name = 
REMARK  2 active torsions:
REMARK  status: ('A' for Active; 'I' for Inactive)
REMARK    1  A    between atoms: C_7  and  C_8
REMARK    2  A    between atoms: N_10  and  C_11
REMARK                            x       y       z     vdW  Elec       q    Type
REMARK                         _______ _______ _______ _____ _____    ______ ____
ROOT
ATOM      1  C   UNL     1       0.629  10.360  21.519  0.00  0.00    +0.000 C 
ATOM      2  O   UNL     1       1.346   9.845  22.374  0.00  0.00    +0.000 OA
ATOM      3  N   UNL     1       0.578  10.020  20.174  0.00  0.00    +0.000 N 
ATOM      4  H   UNL     1       0.095  10.648  19.546  0.00  0.00    +0.000 HD
ENDROOT
BRANCH   3   5
ATOM      5  C   UNL     1       1.358   8.996  19.571  0.00  0.00    +0.000 A 
ATOM      6  C   UNL     1       1.965   9.157  18.308  0.00  0.00    +0.000 A 
ATOM      7  C   UNL     1       2.667   8.123  17.688  0.00  0.00    +0.000 A 
ATOM      8  C   UNL     1       2.762   6.919  18.352  0.00  0.00    +0.000 A 
ATOM      9  C   UNL     1       2.193   6.733  19.630  0.00  0.00    +0.000 A 
ATOM     10  C   UNL     1       1.508   7.773  20.254  0.00  0.00    +0.000 A 
ATOM     11  C   UNL     1       2.435   5.358  20.035  0.00  0.00    +0.000 A 
ATOM     12  C   UNL     1       2.069   4.664  21.174  0.00  0.00    +0.000 A 
ATOM     13  C   UNL     1       2.424   3.311  21.275  0.00  0.00    +0.000 A 
ATOM     14  C   UNL     1       3.135   2.668  20.246  0.00  0.00    +0.000 A 
ATOM     15  C   UNL     1       3.508   3.364  19.098  0.00  0.00    +0.000 A 
ATOM     16  C   UNL     1       3.152   4.701  19.008  0.00  0.00    +0.000 A 
ATOM     17  C   UNL     1       3.425   5.651  17.864  0.00  0.00    +0.000 C 
ENDBRANCH   3   5
BRANCH   1  24
ATOM     18  O   UNL     1      -4.789  15.138  24.171  0.00  0.00    +0.000 OA
ATOM     19  C   UNL     1      -4.038  14.246  23.786  0.00  0.00    +0.000 C 
ATOM     20  C   UNL     1      -4.373  12.759  23.900  0.00  0.00    +0.000 C 
ATOM     21  O   UNL     1      -3.323  11.805  23.841  0.00  0.00    +0.000 OA
ATOM     22  C   UNL     1      -2.249  12.196  23.092  0.00  0.00    +0.000 A 
ATOM     23  C   UNL     1      -1.360  11.194  22.715  0.00  0.00    +0.000 A 
ATOM     24  C   UNL     1      -0.213  11.501  21.967  0.00  0.00    +0.000 A 
ATOM     25  C   UNL     1       0.043  12.828  21.606  0.00  0.00    +0.000 A 
ATOM     26  C   UNL     1      -0.845  13.840  22.000  0.00  0.00    +0.000 A 
ATOM     27  C   UNL     1      -1.989  13.520  22.739  0.00  0.00    +0.000 A 
ATOM     28  N   UNL     1      -2.864  14.529  23.141  0.00  0.00    +0.000 N 
ATOM     29  H   UNL     1      -2.658  15.505  22.978  0.00  0.00    +0.000 HD
ENDBRANCH   1  24
TORSDOF 2
ENDMDL
MODEL 4
REMARK VINA RESULT:      -8.7      6.392      8.207
REMARK  Name = 
REMARK  2 active torsions:
REMARK  status: ('A' for Active; 'I' for Inactive)
REMARK    1  A    between atoms: C_7  and  C_8
REMARK    2  A    between atoms: N_10  and  C_11
REMARK                            x       y       z     vdW  Elec       q    Type
REMARK                         _______ _______ _______ _____ _____    ______ ____
ROOT
ATOM      1  C   UNL     1       1.185   9.240  19.570  0.00  0.00    +0.000 C 
ATOM      2  O   UNL     1       0.968   9.250  18.361  0.00  0.00    +0.000 OA
ATOM      3  N   UNL     1       1.741   8.196  20.298  0.00  0.00    +0.000 N 
ATOM      4  H   UNL     1       1.683   8.239  21.307  0.00  0.00    +0.000 HD
ENDROOT
BRANCH   3   5
ATOM      5  C   UNL     1       2.161   6.957  19.740  0.00  0.00    +0.000 A 
ATOM      6  C   UNL     1       1.808   5.717  20.311  0.00  0.00    +0.000 A 
ATOM      7  C   UNL     1       2.284   4.508  19.802  0.00  0.00    +0.000 A 
ATOM      8  C   UNL     1       3.118   4.553  18.705  0.00  0.00    +0.000 A 
ATOM      9  C   UNL     1       3.466   5.775  18.091  0.00  0.00    +0.000 A 
ATOM     10  C   UNL     1       2.975   6.979  18.590  0.00  0.00    +0.000 A 
ATOM     11  C   UNL     1       4.376   5.485  16.995  0.00  0.00    +0.000 A 
ATOM     12  C   UNL     1       5.023   6.318  16.101  0.00  0.00    +0.000 A 
ATOM     13  C   UNL     1       5.882   5.743  15.153  0.00  0.00    +0.000 A 
ATOM     14  C   UNL     1       6.084   4.353  15.105  0.00  0.00    +0.000 A 
ATOM     15  C   UNL     1       5.431   3.509  16.002  0.00  0.00    +0.000 A 
ATOM     16  C   UNL     1       4.585   4.087  16.935  0.00  0.00    +0.000 A 
ATOM     17  C   UNL     1       3.789   3.387  18.014  0.00  0.00    +0.000 C 
ENDBRANCH   3   5
BRANCH   1  24
ATOM     18  O   UNL     1      -2.220  14.490  24.049  0.00  0.00    +0.000 OA
ATOM     19  C   UNL     1      -1.798  13.540  23.395  0.00  0.00    +0.000 C 
ATOM     20  C   UNL     1      -2.371  12.127  23.502  0.00  0.00    +0.000 C 
ATOM     21  O   UNL     1      -1.588  11.027  23.065  0.00  0.00    +0.000 OA
ATOM     22  C   UNL     1      -0.714  11.322  22.057  0.00  0.00    +0.000 A 
ATOM     23  C   UNL     1      -0.182  10.240  21.363  0.00  0.00    +0.000 A 
ATOM     24  C   UNL     1       0.745  10.441  20.328  0.00  0.00    +0.000 A 
ATOM     25  C   UNL     1       1.143  11.742  19.998  0.00  0.00    +0.000 A 
ATOM     26  C   UNL     1       0.618  12.831  20.709  0.00  0.00    +0.000 A 
ATOM     27  C   UNL     1      -0.311  12.618  21.734  0.00  0.00    +0.000 A 
ATOM     28  N   UNL     1      -0.822  13.701  22.449  0.00  0.00    +0.000 N 
ATOM     29  H   UNL     1      -0.483  14.641  22.298  0.00  0.00    +0.000 HD
ENDBRANCH   1  24
TORSDOF 2
ENDMDL
MODEL 5
REMARK VINA RESULT:      -8.6      5.899      6.868
REMARK  Name = 
REMARK  2 active torsions:
REMARK  status: ('A' for Active; 'I' for Inactive)
REMARK    1  A    between atoms: C_7  and  C_8
REMARK    2  A    between atoms: N_10  and  C_11
REMARK                            x       y       z     vdW  Elec       q    Type
REMARK                         _______ _______ _______ _____ _____    ______ ____
ROOT
ATOM      1  C   UNL     1       1.368   9.618  18.888  0.00  0.00    +0.000 C 
ATOM      2  O   UNL     1       1.255   9.035  19.964  0.00  0.00    +0.000 OA
ATOM      3  N   UNL     1       2.076   9.172  17.781  0.00  0.00    +0.000 N 
ATOM      4  H   UNL     1       2.252   9.831  17.035  0.00  0.00    +0.000 HD
ENDROOT
BRANCH   3   5
ATOM      5  C   UNL     1       2.784   7.940  17.719  0.00  0.00    +0.000 A 
ATOM      6  C   UNL     1       4.092   7.850  17.200  0.00  0.00    +0.000 A 
ATOM      7  C   UNL     1       4.754   6.628  17.074  0.00  0.00    +0.000 A 
ATOM      8  C   UNL     1       4.091   5.490  17.479  0.00  0.00    +0.000 A 
ATOM      9  C   UNL     1       2.793   5.547  18.030  0.00  0.00    +0.000 A 
ATOM     10  C   UNL     1       2.142   6.771  18.172  0.00  0.00    +0.000 A 
ATOM     11  C   UNL     1       2.366   4.189  18.320  0.00  0.00    +0.000 A 
ATOM     12  C   UNL     1       1.183   3.694  18.839  0.00  0.00    +0.000 A 
ATOM     13  C   UNL     1       1.043   2.306  18.979  0.00  0.00    +0.000 A 
ATOM     14  C   UNL     1       2.077   1.431  18.603  0.00  0.00    +0.000 A 
ATOM     15  C   UNL     1       3.271   1.924  18.083  0.00  0.00    +0.000 A 
ATOM     16  C   UNL     1       3.400   3.298  17.948  0.00  0.00    +0.000 A 
ATOM     17  C   UNL     1       4.582   4.062  17.395  0.00  0.00    +0.000 C 
ENDBRANCH   3   5
BRANCH   1  24
ATOM     18  O   UNL     1      -0.420  17.100  18.672  0.00  0.00    +0.000 OA
ATOM     19  C   UNL     1       0.031  15.959  18.731  0.00  0.00    +0.000 C 
ATOM     20  C   UNL     1       1.523  15.653  18.866  0.00  0.00    +0.000 C 
ATOM     21  O   UNL     1       2.002  14.367  18.504  0.00  0.00    +0.000 OA
ATOM     22  C   UNL     1       1.092  13.360  18.668  0.00  0.00    +0.000 A 
ATOM     23  C   UNL     1       1.597  12.064  18.664  0.00  0.00    +0.000 A 
ATOM     24  C   UNL     1       0.737  10.962  18.799  0.00  0.00    +0.000 A 
ATOM     25  C   UNL     1      -0.640  11.171  18.930  0.00  0.00    +0.000 A 
ATOM     26  C   UNL     1      -1.150  12.477  18.917  0.00  0.00    +0.000 A 
ATOM     27  C   UNL     1      -0.282  13.568  18.789  0.00  0.00    +0.000 A 
ATOM     28  N   UNL     1      -0.792  14.866  18.764  0.00  0.00    +0.000 N 
ATOM     29  H   UNL     1      -1.786  15.044  18.760  0.00  0.00    +0.000 HD
ENDBRANCH   1  24
TORSDOF 2
ENDMDL
MODEL 6
REMARK VINA RESULT:      -8.5      6.167      9.334
REMARK  Name = 
REMARK  2 active torsions:
REMARK  status: ('A' for Active; 'I' for Inactive)
REMARK    1  A    between atoms: C_7  and  C_8
REMARK    2  A    between atoms: N_10  and  C_11
REMARK                            x       y       z     vdW  Elec       q    Type
REMARK                         _______ _______ _______ _____ _____    ______ ____
ROOT
ATOM      1  C   UNL     1       1.964   7.719  19.687  0.00  0.00    +0.000 C 
ATOM      2  O   UNL     1       1.431   7.368  20.736  0.00  0.00    +0.000 OA
ATOM      3  N   UNL     1       1.671   8.862  18.957  0.00  0.00    +0.000 N 
ATOM      4  H   UNL     1       2.040   8.932  18.018  0.00  0.00    +0.000 HD
ENDROOT
BRANCH   3   5
ATOM      5  C   UNL     1       0.694   9.828  19.327  0.00  0.00    +0.000 A 
ATOM      6  C   UNL     1       0.828  10.630  20.479  0.00  0.00    +0.000 A 
ATOM      7  C   UNL     1      -0.167  11.522  20.877  0.00  0.00    +0.000 A 
ATOM      8  C   UNL     1      -1.304  11.609  20.102  0.00  0.00    +0.000 A 
ATOM      9  C   UNL     1      -1.457  10.843  18.927  0.00  0.00    +0.000 A 
ATOM     10  C   UNL     1      -0.454   9.966  18.522  0.00  0.00    +0.000 A 
ATOM     11  C   UNL     1      -2.766  11.136  18.366  0.00  0.00    +0.000 A 
ATOM     12  C   UNL     1      -3.411  10.641  17.247  0.00  0.00    +0.000 A 
ATOM     13  C   UNL     1      -4.708  11.095  16.968  0.00  0.00    +0.000 A 
ATOM     14  C   UNL     1      -5.344  12.032  17.801  0.00  0.00    +0.000 A 
ATOM     15  C   UNL     1      -4.697  12.536  18.927  0.00  0.00    +0.000 A 
ATOM     16  C   UNL     1      -3.415  12.080  19.195  0.00  0.00    +0.000 A 
ATOM     17  C   UNL     1      -2.527  12.461  20.357  0.00  0.00    +0.000 C 
ENDBRANCH   3   5
BRANCH   1  24
ATOM     18  O   UNL     1       6.944   3.707  15.405  0.00  0.00    +0.000 OA
ATOM     19  C   UNL     1       6.121   4.443  15.943  0.00  0.00    +0.000 C 
ATOM     20  C   UNL     1       5.473   5.635  15.238  0.00  0.00    +0.000 C 
ATOM     21  O   UNL     1       4.884   6.664  16.017  0.00  0.00    +0.000 OA
ATOM     22  C   UNL     1       4.390   6.248  17.222  0.00  0.00    +0.000 A 
ATOM     23  C   UNL     1       3.512   7.114  17.864  0.00  0.00    +0.000 A 
ATOM     24  C   UNL     1       2.973   6.786  19.118  0.00  0.00    +0.000 A 
ATOM     25  C   UNL     1       3.331   5.580  19.731  0.00  0.00    +0.000 A 
ATOM     26  C   UNL     1       4.230   4.714  19.090  0.00  0.00    +0.000 A 
ATOM     27  C   UNL     1       4.754   5.049  17.837  0.00  0.00    +0.000 A 
ATOM     28  N   UNL     1       5.657   4.193  17.207  0.00  0.00    +0.000 N 
ATOM     29  H   UNL     1       6.007   3.363  17.665  0.00  0.00    +0.000 HD
ENDBRANCH   1  24
TORSDOF 2
ENDMDL
MODEL 7
REMARK VINA RESULT:      -8.5      7.666      9.174
REMARK  Name = 
REMARK  2 active torsions:
REMARK  status: ('A' for Active; 'I' for Inactive)
REMARK    1  A    between atoms: C_7  and  C_8
REMARK    2  A    between atoms: N_10  and  C_11
REMARK                            x       y       z     vdW  Elec       q    Type
REMARK                         _______ _______ _______ _____ _____    ______ ____
ROOT
ATOM      1  C   UNL     1      -0.072  10.380  20.423  0.00  0.00    +0.000 C 
ATOM      2  O   UNL     1      -0.882  10.101  19.543  0.00  0.00    +0.000 OA
ATOM      3  N   UNL     1       1.139   9.743  20.658  0.00  0.00    +0.000 N 
ATOM      4  H   UNL     1       1.615   9.938  21.529  0.00  0.00    +0.000 HD
ENDROOT
BRANCH   3   5
ATOM      5  C   UNL     1       1.640   8.654  19.892  0.00  0.00    +0.000 A 
ATOM      6  C   UNL     1       2.164   8.826  18.594  0.00  0.00    +0.000 A 
ATOM      7  C   UNL     1       2.586   7.746  17.820  0.00  0.00    +0.000 A 
ATOM      8  C   UNL     1       2.483   6.482  18.362  0.00  0.00    +0.000 A 
ATOM      9  C   UNL     1       1.992   6.278  19.669  0.00  0.00    +0.000 A 
ATOM     10  C   UNL     1       1.588   7.360  20.447  0.00  0.00    +0.000 A 
ATOM     11  C   UNL     1       1.976   4.847  19.925  0.00  0.00    +0.000 A 
ATOM     12  C   UNL     1       1.568   4.122  21.030  0.00  0.00    +0.000 A 
ATOM     13  C   UNL     1       1.643   2.723  20.976  0.00  0.00    +0.000 A 
ATOM     14  C   UNL     1       2.122   2.065  19.829  0.00  0.00    +0.000 A 
ATOM     15  C   UNL     1       2.538   2.792  18.715  0.00  0.00    +0.000 A 
ATOM     16  C   UNL     1       2.459   4.174  18.778  0.00  0.00    +0.000 A 
ATOM     17  C   UNL     1       2.829   5.168  17.701  0.00  0.00    +0.000 C 
ENDBRANCH   3   5
BRANCH   1  24
ATOM     18  O   UNL     1      -3.469  15.151  25.415  0.00  0.00    +0.000 OA
ATOM     19  C   UNL     1      -3.073  14.293  24.631  0.00  0.00    +0.000 C 
ATOM     20  C   UNL     1      -3.863  13.025  24.305  0.00  0.00    +0.000 C 
ATOM     21  O   UNL     1      -3.185  11.908  23.751  0.00  0.00    +0.000 OA
ATOM     22  C   UNL     1      -2.093  12.231  22.995  0.00  0.00    +0.000 A 
ATOM     23  C   UNL     1      -1.603  11.234  22.159  0.00  0.00    +0.000 A 
ATOM     24  C   UNL     1      -0.468  11.461  21.364  0.00  0.00    +0.000 A 
ATOM     25  C   UNL     1       0.180  12.700  21.421  0.00  0.00    +0.000 A 
ATOM     26  C   UNL     1      -0.306  13.700  22.277  0.00  0.00    +0.000 A 
ATOM     27  C   UNL     1      -1.442  13.463  23.059  0.00  0.00    +0.000 A 
ATOM     28  N   UNL     1      -1.915  14.454  23.919  0.00  0.00    +0.000 N 
ATOM     29  H   UNL     1      -1.415  15.322  24.053  0.00  0.00    +0.000 HD
ENDBRANCH   1  24
TORSDOF 2
ENDMDL
MODEL 8
REMARK VINA RESULT:      -8.5      5.975     10.149
REMARK  Name = 
REMARK  2 active torsions:
REMARK  status: ('A' for Active; 'I' for Inactive)
REMARK    1  A    between atoms: C_7  and  C_8
REMARK    2  A    between atoms: N_10  and  C_11
REMARK                            x       y       z     vdW  Elec       q    Type
REMARK                         _______ _______ _______ _____ _____    ______ ____
ROOT
ATOM      1  C   UNL     1       2.206   8.275  18.238  0.00  0.00    +0.000 C 
ATOM      2  O   UNL     1       2.261   8.826  17.142  0.00  0.00    +0.000 OA
ATOM      3  N   UNL     1       1.574   8.764  19.374  0.00  0.00    +0.000 N 
ATOM      4  H   UNL     1       1.770   8.311  20.256  0.00  0.00    +0.000 HD
ENDROOT
BRANCH   3   5
ATOM      5  C   UNL     1       0.873   9.999  19.438  0.00  0.00    +0.000 A 
ATOM      6  C   UNL     1      -0.511  10.065  19.704  0.00  0.00    +0.000 A 
ATOM      7  C   UNL     1      -1.208  11.274  19.693  0.00  0.00    +0.000 A 
ATOM      8  C   UNL     1      -0.500  12.425  19.416  0.00  0.00    +0.000 A 
ATOM      9  C   UNL     1       0.890  12.398  19.176  0.00  0.00    +0.000 A 
ATOM     10  C   UNL     1       1.586  11.192  19.206  0.00  0.00    +0.000 A 
ATOM     11  C   UNL     1       1.323  13.754  18.885  0.00  0.00    +0.000 A 
ATOM     12  C   UNL     1       2.566  14.266  18.560  0.00  0.00    +0.000 A 
ATOM     13  C   UNL     1       2.676  15.639  18.297  0.00  0.00    +0.000 A 
ATOM     14  C   UNL     1       1.553  16.482  18.359  0.00  0.00    +0.000 A 
ATOM     15  C   UNL     1       0.299  15.971  18.689  0.00  0.00    +0.000 A 
ATOM     16  C   UNL     1       0.201  14.613  18.947  0.00  0.00    +0.000 A 
ATOM     17  C   UNL     1      -1.044  13.831  19.303  0.00  0.00    +0.000 C 
ENDBRANCH   3   5
BRANCH   1  24
ATOM     18  O   UNL     1       5.050   1.376  20.121  0.00  0.00    +0.000 OA
ATOM     19  C   UNL     1       4.482   2.452  19.952  0.00  0.00    +0.000 C 
ATOM     20  C   UNL     1       3.254   2.887  20.752  0.00  0.00    +0.000 C 
ATOM     21  O   UNL     1       2.414   3.907  20.233  0.00  0.00    +0.000 OA
ATOM     22  C   UNL     1       3.056   4.817  19.441  0.00  0.00    +0.000 A 
ATOM     23  C   UNL     1       2.380   6.007  19.193  0.00  0.00    +0.000 A 
ATOM     24  C   UNL     1       2.947   6.992  18.369  0.00  0.00    +0.000 A 
ATOM     25  C   UNL     1       4.199   6.770  17.785  0.00  0.00    +0.000 A 
ATOM     26  C   UNL     1       4.873   5.563  18.023  0.00  0.00    +0.000 A 
ATOM     27  C   UNL     1       4.301   4.592  18.852  0.00  0.00    +0.000 A 
ATOM     28  N   UNL     1       4.966   3.387  19.077  0.00  0.00    +0.000 N 
ATOM     29  H   UNL     1       5.825   3.158  18.596  0.00  0.00    +0.000 HD
ENDBRANCH   1  24
TORSDOF 2
ENDMDL
MODEL 9
REMARK VINA RESULT:      -8.4      2.775     10.074
REMARK  Name = 
REMARK  2 active torsions:
REMARK  status: ('A' for Active; 'I' for Inactive)
REMARK    1  A    between atoms: C_7  and  C_8
REMARK    2  A    between atoms: N_10  and  C_11
REMARK                            x       y       z     vdW  Elec       q    Type
REMARK                         _______ _______ _______ _____ _____    ______ ____
ROOT
ATOM      1  C   UNL     1       8.181   9.026  18.070  0.00  0.00    +0.000 C 
ATOM      2  O   UNL     1       7.846   9.702  17.100  0.00  0.00    +0.000 OA
ATOM      3  N   UNL     1       9.048   9.414  19.082  0.00  0.00    +0.000 N 
ATOM      4  H   UNL     1       9.391   8.700  19.711  0.00  0.00    +0.000 HD
ENDROOT
BRANCH   3   5
ATOM      5  C   UNL     1       9.685  10.684  19.157  0.00  0.00    +0.000 A 
ATOM      6  C   UNL     1      10.698  11.070  18.255  0.00  0.00    +0.000 A 
ATOM      7  C   UNL     1      11.371  12.286  18.377  0.00  0.00    +0.000 A 
ATOM      8  C   UNL     1      11.014  13.120  19.415  0.00  0.00    +0.000 A 
ATOM      9  C   UNL     1       9.984  12.777  20.317  0.00  0.00    +0.000 A 
ATOM     10  C   UNL     1       9.302  11.571  20.181  0.00  0.00    +0.000 A 
ATOM     11  C   UNL     1       9.878  13.839  21.304  0.00  0.00    +0.000 A 
ATOM     12  C   UNL     1       9.055  13.982  22.406  0.00  0.00    +0.000 A 
ATOM     13  C   UNL     1       9.204  15.123  23.208  0.00  0.00    +0.000 A 
ATOM     14  C   UNL     1      10.167  16.102  22.906  0.00  0.00    +0.000 A 
ATOM     15  C   UNL     1      10.996  15.964  21.795  0.00  0.00    +0.000 A 
ATOM     16  C   UNL     1      10.841  14.833  21.008  0.00  0.00    +0.000 A 
ATOM     17  C   UNL     1      11.628  14.454  19.775  0.00  0.00    +0.000 C 
ENDBRANCH   3   5
BRANCH   1  24
ATOM     18  O   UNL     1       4.136   2.489  17.721  0.00  0.00    +0.000 OA
ATOM     19  C   UNL     1       4.639   3.609  17.707  0.00  0.00    +0.000 C 
ATOM     20  C   UNL     1       3.940   4.836  17.121  0.00  0.00    +0.000 C 
ATOM     21  O   UNL     1       4.716   5.967  16.754  0.00  0.00    +0.000 OA
ATOM     22  C   UNL     1       5.855   6.131  17.490  0.00  0.00    +0.000 A 
ATOM     23  C   UNL     1       6.463   7.380  17.419  0.00  0.00    +0.000 A 
ATOM     24  C   UNL     1       7.653   7.637  18.119  0.00  0.00    +0.000 A 
ATOM     25  C   UNL     1       8.235   6.624  18.889  0.00  0.00    +0.000 A 
ATOM     26  C   UNL     1       7.630   5.360  18.948  0.00  0.00    +0.000 A 
ATOM     27  C   UNL     1       6.441   5.119  18.251  0.00  0.00    +0.000 A 
ATOM     28  N   UNL     1       5.847   3.857  18.300  0.00  0.00    +0.000 N 
ATOM     29  H   UNL     1       6.293   3.081  18.769  0.00  0.00    +0.000 HD
ENDBRANCH   1  24
TORSDOF 2
ENDMDL
