MODEL 1
REMARK VINA RESULT:      -9.4      0.000      0.000
REMARK  Name = 
REMARK  5 active torsions:
REMARK  status: ('A' for Active; 'I' for Inactive)
REMARK    1  A    between atoms: C_5  and  O_6
REMARK    2  A    between atoms: O_6  and  C_7
REMARK    3  A    between atoms: C_9  and  C_10
REMARK    4  A    between atoms: C_10  and  N_11
REMARK    5  A    between atoms: N_11  and  C_12
REMARK                            x       y       z     vdW  Elec       q    Type
REMARK                         _______ _______ _______ _____ _____    ______ ____
ROOT
ATOM      1  C   UNL     1       1.681   5.402  20.603  0.00  0.00    +0.000 C 
ENDROOT
BRANCH   1   4
ATOM      2  C   UNL     1       3.509   3.837  17.583  0.00  0.00    +0.000 A 
ATOM      3  C   UNL     1       3.182   4.748  18.596  0.00  0.00    +0.000 A 
ATOM      4  C   UNL     1       2.172   4.426  19.518  0.00  0.00    +0.000 A 
ATOM      5  C   UNL     1       1.555   3.163  19.358  0.00  0.00    +0.000 A 
ATOM      6  C   UNL     1       1.919   2.340  18.294  0.00  0.00    +0.000 A 
ATOM      7  N   UNL     1       2.862   2.665  17.395  0.00  0.00    +0.000 NA
BRANCH   2   8
ATOM      8  O   UNL     1       4.546   4.166  16.707  0.00  0.00    +0.000 OA
BRANCH   8  13
ATOM      9  F   UNL     1       8.530   7.537  18.510  0.00  0.00    +0.000 F 
ATOM     10  C   UNL     1       7.560   6.727  18.069  0.00  0.00    +0.000 A 
ATOM     11  C   UNL     1       7.600   5.370  18.371  0.00  0.00    +0.000 A 
ATOM     12  C   UNL     1       6.576   4.526  17.914  0.00  0.00    +0.000 A 
ATOM     13  C   UNL     1       5.517   5.048  17.160  0.00  0.00    +0.000 A 
ATOM     14  C   UNL     1       5.522   6.409  16.830  0.00  0.00    +0.000 A 
ATOM     15  C   UNL     1       6.528   7.253  17.303  0.00  0.00    +0.000 A 
ENDBRANCH   8  13
ENDBRANCH   2   8
ENDBRANCH   1   4
BRANCH   1  16
ATOM     16  N   UNL     1       2.191   6.764  20.468  0.00  0.00    +0.000 N 
ATOM     17  H   UNL     1       2.432   7.081  21.404  0.00  0.00    +0.000 HD
BRANCH  16  18
ATOM     18  C   UNL     1       1.843   7.943  19.779  0.00  0.00    +0.000 A 
ATOM     19  N   UNL     1       2.215   8.265  18.525  0.00  0.00    +0.000 NA
ATOM     20  C   UNL     1       1.739   9.462  18.038  0.00  0.00    +0.000 A 
ATOM     21  N   UNL     1       0.904  10.303  18.633  0.00  0.00    +0.000 NA
ATOM     22  C   UNL     1       0.646  10.035  19.899  0.00  0.00    +0.000 A 
ATOM     23  C   UNL     1       0.060  11.042  20.619  0.00  0.00    +0.000 A 
ATOM     24  C   UNL     1      -0.170  10.882  21.978  0.00  0.00    +0.000 A 
ATOM     25  F   UNL     1      -0.613  11.931  22.685  0.00  0.00    +0.000 F 
ATOM     26  C   UNL     1       0.124   9.690  22.603  0.00  0.00    +0.000 A 
ATOM     27  F   UNL     1      -0.093   9.544  23.914  0.00  0.00    +0.000 F 
ATOM     28  C   UNL     1       0.722   8.665  21.893  0.00  0.00    +0.000 A 
ATOM     29  C   UNL     1       1.052   8.838  20.533  0.00  0.00    +0.000 A 
ENDBRANCH  16  18
ENDBRANCH   1  16
TORSDOF 5
ENDMDL
MODEL 2
REMARK VINA RESULT:      -9.4      2.581      6.606
REMARK  Name = 
REMARK  5 active torsions:
REMARK  status: ('A' for Active; 'I' for Inactive)
REMARK    1  A    between atoms: C_5  and  O_6
REMARK    2  A    between atoms: O_6  and  C_7
REMARK    3  A    between atoms: C_9  and  C_10
REMARK    4  A    between atoms: C_10  and  N_11
REMARK    5  A    between atoms: N_11  and  C_12
REMARK                            x       y       z     vdW  Elec       q    Type
REMARK                         _______ _______ _______ _____ _____    ______ ____
ROOT
ATOM      1  C   UNL     1       3.440   2.196  17.711  0.00  0.00    +0.000 C 
ENDROOT
BRANCH   1   4
ATOM      2  C   UNL     1       2.046   4.838  20.159  0.00  0.00    +0.000 A 
ATOM      3  C   UNL     1       2.904   4.214  19.243  0.00  0.00    +0.000 A 
ATOM      4  C   UNL     1       2.522   2.998  18.652  0.00  0.00    +0.000 A 
ATOM      5  C   UNL     1       1.257   2.489  19.025  0.00  0.00    +0.000 A 
ATOM      6  C   UNL     1       0.489   3.159  19.976  0.00  0.00    +0.000 A 
ATOM      7  N   UNL     1       0.871   4.305  20.564  0.00  0.00    +0.000 NA
BRANCH   2   8
ATOM      8  O   UNL     1       2.433   6.067  20.697  0.00  0.00    +0.000 OA
BRANCH   8  13
ATOM      9  F   UNL     1       0.817  10.733  18.227  0.00  0.00    +0.000 F 
ATOM     10  C   UNL     1       1.212   9.599  18.818  0.00  0.00    +0.000 A 
ATOM     11  C   UNL     1       0.889   9.363  20.150  0.00  0.00    +0.000 A 
ATOM     12  C   UNL     1       1.299   8.169  20.763  0.00  0.00    +0.000 A 
ATOM     13  C   UNL     1       2.027   7.217  20.036  0.00  0.00    +0.000 A 
ATOM     14  C   UNL     1       2.378   7.497  18.710  0.00  0.00    +0.000 A 
ATOM     15  C   UNL     1       1.952   8.674  18.093  0.00  0.00    +0.000 A 
ENDBRANCH   8  13
ENDBRANCH   2   8
ENDBRANCH   1   4
BRANCH   1  16
ATOM     16  N   UNL     1       4.722   2.833  17.427  0.00  0.00    +0.000 N 
ATOM     17  H   UNL     1       5.171   3.002  18.324  0.00  0.00    +0.000 HD
BRANCH  16  18
ATOM     18  C   UNL     1       5.215   3.858  16.594  0.00  0.00    +0.000 A 
ATOM     19  N   UNL     1       5.054   3.937  15.259  0.00  0.00    +0.000 NA
ATOM     20  C   UNL     1       5.600   5.041  14.644  0.00  0.00    +0.000 A 
ATOM     21  N   UNL     1       6.207   6.070  15.220  0.00  0.00    +0.000 NA
ATOM     22  C   UNL     1       6.463   5.921  16.506  0.00  0.00    +0.000 A 
ATOM     23  C   UNL     1       7.359   6.805  17.047  0.00  0.00    +0.000 A 
ATOM     24  C   UNL     1       7.753   6.673  18.371  0.00  0.00    +0.000 A 
ATOM     25  F   UNL     1       8.733   7.461  18.833  0.00  0.00    +0.000 F 
ATOM     26  C   UNL     1       7.200   5.698  19.173  0.00  0.00    +0.000 A 
ATOM     27  F   UNL     1       7.590   5.571  20.445  0.00  0.00    +0.000 F 
ATOM     28  C   UNL     1       6.299   4.794  18.642  0.00  0.00    +0.000 A 
ATOM     29  C   UNL     1       5.955   4.850  17.275  0.00  0.00    +0.000 A 
ENDBRANCH  16  18
ENDBRANCH   1  16
TORSDOF 5
ENDMDL
MODEL 3
REMARK VINA RESULT:      -9.1      0.951      1.304
REMARK  Name = 
REMARK  5 active torsions:
REMARK  status: ('A' for Active; 'I' for Inactive)
REMARK    1  A    between atoms: C_5  and  O_6
REMARK    2  A    between atoms: O_6  and  C_7
REMARK    3  A    between atoms: C_9  and  C_10
REMARK    4  A    between atoms: C_10  and  N_11
REMARK    5  A    between atoms: N_11  and  C_12
REMARK                            x       y       z     vdW  Elec       q    Type
REMARK                         _______ _______ _______ _____ _____    ______ ____
ROOT
ATOM      1  C   UNL     1       1.749   5.807  20.594  0.00  0.00    +0.000 C 
ENDROOT
BRANCH   1   4
ATOM      2  C   UNL     1       4.568   3.796  18.884  0.00  0.00    +0.000 A 
ATOM      3  C   UNL     1       3.934   4.774  19.663  0.00  0.00    +0.000 A 
ATOM      4  C   UNL     1       2.540   4.724  19.837  0.00  0.00    +0.000 A 
ATOM      5  C   UNL     1       1.866   3.653  19.207  0.00  0.00    +0.000 A 
ATOM      6  C   UNL     1       2.577   2.751  18.417  0.00  0.00    +0.000 A 
ATOM      7  N   UNL     1       3.905   2.819  18.227  0.00  0.00    +0.000 NA
BRANCH   2   8
ATOM      8  O   UNL     1       5.959   3.845  18.765  0.00  0.00    +0.000 OA
BRANCH   8  13
ATOM      9  F   UNL     1       8.082   8.713  17.254  0.00  0.00    +0.000 F 
ATOM     10  C   UNL     1       7.573   7.532  17.627  0.00  0.00    +0.000 A 
ATOM     11  C   UNL     1       6.534   6.964  16.898  0.00  0.00    +0.000 A 
ATOM     12  C   UNL     1       6.010   5.722  17.288  0.00  0.00    +0.000 A 
ATOM     13  C   UNL     1       6.533   5.056  18.405  0.00  0.00    +0.000 A 
ATOM     14  C   UNL     1       7.548   5.668  19.149  0.00  0.00    +0.000 A 
ATOM     15  C   UNL     1       8.085   6.893  18.749  0.00  0.00    +0.000 A 
ENDBRANCH   8  13
ENDBRANCH   2   8
ENDBRANCH   1   4
BRANCH   1  16
ATOM     16  N   UNL     1       2.166   7.176  20.304  0.00  0.00    +0.000 N 
ATOM     17  H   UNL     1       2.690   7.501  21.113  0.00  0.00    +0.000 HD
BRANCH  16  18
ATOM     18  C   UNL     1       1.595   8.347  19.766  0.00  0.00    +0.000 A 
ATOM     19  N   UNL     1       1.765   8.805  18.511  0.00  0.00    +0.000 NA
ATOM     20  C   UNL     1       1.091   9.961  18.189  0.00  0.00    +0.000 A 
ATOM     21  N   UNL     1       0.242  10.641  18.947  0.00  0.00    +0.000 NA
ATOM     22  C   UNL     1       0.180  10.251  20.207  0.00  0.00    +0.000 A 
ATOM     23  C   UNL     1      -0.428  11.119  21.075  0.00  0.00    +0.000 A 
ATOM     24  C   UNL     1      -0.465  10.832  22.432  0.00  0.00    +0.000 A 
ATOM     25  F   UNL     1      -0.938  11.761  23.274  0.00  0.00    +0.000 F 
ATOM     26  C   UNL     1       0.047   9.647  22.912  0.00  0.00    +0.000 A 
ATOM     27  F   UNL     1       0.015   9.379  24.221  0.00  0.00    +0.000 F 
ATOM     28  C   UNL     1       0.669   8.762  22.051  0.00  0.00    +0.000 A 
ATOM     29  C   UNL     1       0.802   9.075  20.682  0.00  0.00    +0.000 A 
ENDBRANCH  16  18
ENDBRANCH   1  16
TORSDOF 5
ENDMDL
MODEL 4
REMARK VINA RESULT:      -9.0      5.362      8.447
REMARK  Name = 
REMARK  5 active torsions:
REMARK  status: ('A' for Active; 'I' for Inactive)
REMARK    1  A    between atoms: C_5  and  O_6
REMARK    2  A    between atoms: O_6  and  C_7
REMARK    3  A    between atoms: C_9  and  C_10
REMARK    4  A    between atoms: C_10  and  N_11
REMARK    5  A    between atoms: N_11  and  C_12
REMARK                            x       y       z     vdW  Elec       q    Type
REMARK                         _______ _______ _______ _____ _____    ______ ____
ROOT
ATOM      1  C   UNL     1       8.158   9.308  17.855  0.00  0.00    +0.000 C 
ENDROOT
BRANCH   1   4
ATOM      2  C   UNL     1       6.338   5.948  17.301  0.00  0.00    +0.000 A 
ATOM      3  C   UNL     1       6.725   7.282  17.115  0.00  0.00    +0.000 A 
ATOM      4  C   UNL     1       7.736   7.829  17.923  0.00  0.00    +0.000 A 
ATOM      5  C   UNL     1       8.313   6.963  18.880  0.00  0.00    +0.000 A 
ATOM      6  C   UNL     1       7.833   5.661  19.020  0.00  0.00    +0.000 A 
ATOM      7  N   UNL     1       6.845   5.150  18.268  0.00  0.00    +0.000 NA
BRANCH   2   8
ATOM      8  O   UNL     1       5.361   5.418  16.454  0.00  0.00    +0.000 OA
BRANCH   8  13
ATOM      9  F   UNL     1       0.761   3.432  18.773  0.00  0.00    +0.000 F 
ATOM     10  C   UNL     1       1.874   3.922  18.213  0.00  0.00    +0.000 A 
ATOM     11  C   UNL     1       2.722   3.078  17.504  0.00  0.00    +0.000 A 
ATOM     12  C   UNL     1       3.884   3.598  16.912  0.00  0.00    +0.000 A 
ATOM     13  C   UNL     1       4.186   4.961  17.032  0.00  0.00    +0.000 A 
ATOM     14  C   UNL     1       3.340   5.782  17.789  0.00  0.00    +0.000 A 
ATOM     15  C   UNL     1       2.174   5.270  18.359  0.00  0.00    +0.000 A 
ENDBRANCH   8  13
ENDBRANCH   2   8
ENDBRANCH   1   4
BRANCH   1  16
ATOM     16  N   UNL     1       9.175   9.694  18.829  0.00  0.00    +0.000 N 
ATOM     17  H   UNL     1       9.378   8.866  19.385  0.00  0.00    +0.000 HD
BRANCH  16  18
ATOM     18  C   UNL     1       9.425  10.770  19.704  0.00  0.00    +0.000 A 
ATOM     19  N   UNL     1       8.990  10.874  20.974  0.00  0.00    +0.000 NA
ATOM     20  C   UNL     1       9.374  12.005  21.658  0.00  0.00    +0.000 A 
ATOM     21  N   UNL     1      10.176  12.973  21.236  0.00  0.00    +0.000 NA
ATOM     22  C   UNL     1      10.494  12.919  19.956  0.00  0.00    +0.000 A 
ATOM     23  C   UNL     1      11.042  14.055  19.424  0.00  0.00    +0.000 A 
ATOM     24  C   UNL     1      11.329  14.120  18.068  0.00  0.00    +0.000 A 
ATOM     25  F   UNL     1      11.731  15.289  17.550  0.00  0.00    +0.000 F 
ATOM     26  C   UNL     1      11.131  13.025  17.257  0.00  0.00    +0.000 A 
ATOM     27  F   UNL     1      11.402  13.095  15.950  0.00  0.00    +0.000 F 
ATOM     28  C   UNL     1      10.573  11.871  17.776  0.00  0.00    +0.000 A 
ATOM     29  C   UNL     1      10.186  11.814  19.131  0.00  0.00    +0.000 A 
ENDBRANCH  16  18
ENDBRANCH   1  16
TORSDOF 5
ENDMDL
MODEL 5
REMARK VINA RESULT:      -8.7      1.951      2.232
REMARK  Name = 
REMARK  5 active torsions:
REMARK  status: ('A' for Active; 'I' for Inactive)
REMARK    1  A    between atoms: C_5  and  O_6
REMARK    2  A    between atoms: O_6  and  C_7
REMARK    3  A    between atoms: C_9  and  C_10
REMARK    4  A    between atoms: C_10  and  N_11
REMARK    5  A    between atoms: N_11  and  C_12
REMARK                            x       y       z     vdW  Elec       q    Type
REMARK                         _______ _______ _______ _____ _____    ______ ____
ROOT
ATOM      1  C   UNL     1       1.560   5.356  20.734  0.00  0.00    +0.000 C 
ENDROOT
BRANCH   1   4
ATOM      2  C   UNL     1       4.952   4.226  19.274  0.00  0.00    +0.000 A 
ATOM      3  C   UNL     1       3.888   5.063  19.638  0.00  0.00    +0.000 A 
ATOM      4  C   UNL     1       2.813   4.536  20.373  0.00  0.00    +0.000 A 
ATOM      5  C   UNL     1       2.893   3.166  20.711  0.00  0.00    +0.000 A 
ATOM      6  C   UNL     1       3.972   2.402  20.268  0.00  0.00    +0.000 A 
ATOM      7  N   UNL     1       4.984   2.901  19.539  0.00  0.00    +0.000 NA
BRANCH   2   8
ATOM      8  O   UNL     1       6.028   4.787  18.582  0.00  0.00    +0.000 OA
BRANCH   8  13
ATOM      9  F   UNL     1       6.279   4.204  13.097  0.00  0.00    +0.000 F 
ATOM     10  C   UNL     1       6.209   4.344  14.427  0.00  0.00    +0.000 A 
ATOM     11  C   UNL     1       7.353   4.661  15.151  0.00  0.00    +0.000 A 
ATOM     12  C   UNL     1       7.274   4.815  16.544  0.00  0.00    +0.000 A 
ATOM     13  C   UNL     1       6.046   4.653  17.201  0.00  0.00    +0.000 A 
ATOM     14  C   UNL     1       4.918   4.291  16.456  0.00  0.00    +0.000 A 
ATOM     15  C   UNL     1       4.991   4.159  15.069  0.00  0.00    +0.000 A 
ENDBRANCH   8  13
ENDBRANCH   2   8
ENDBRANCH   1   4
BRANCH   1  16
ATOM     16  N   UNL     1       1.785   6.796  20.830  0.00  0.00    +0.000 N 
ATOM     17  H   UNL     1       1.409   7.093  21.727  0.00  0.00    +0.000 HD
BRANCH  16  18
ATOM     18  C   UNL     1       1.648   7.929  20.003  0.00  0.00    +0.000 A 
ATOM     19  N   UNL     1       2.198   8.089  18.784  0.00  0.00    +0.000 NA
ATOM     20  C   UNL     1       1.913   9.271  18.138  0.00  0.00    +0.000 A 
ATOM     21  N   UNL     1       1.107  10.242  18.546  0.00  0.00    +0.000 NA
ATOM     22  C   UNL     1       0.675  10.126  19.788  0.00  0.00    +0.000 A 
ATOM     23  C   UNL     1       0.117  11.250  20.337  0.00  0.00    +0.000 A 
ATOM     24  C   UNL     1      -0.288  11.248  21.665  0.00  0.00    +0.000 A 
ATOM     25  F   UNL     1      -0.697  12.399  22.215  0.00  0.00    +0.000 F 
ATOM     26  C   UNL     1      -0.198  10.101  22.422  0.00  0.00    +0.000 A 
ATOM     27  F   UNL     1      -0.583  10.107  23.702  0.00  0.00    +0.000 F 
ATOM     28  C   UNL     1       0.367   8.959  21.886  0.00  0.00    +0.000 A 
ATOM     29  C   UNL     1       0.873   8.965  20.569  0.00  0.00    +0.000 A 
ENDBRANCH  16  18
ENDBRANCH   1  16
TORSDOF 5
ENDMDL
MODEL 6
REMARK VINA RESULT:      -8.7      1.667      1.970
REMARK  Name = 
REMARK  5 active torsions:
REMARK  status: ('A' for Active; 'I' for Inactive)
REMARK    1  A    between atoms: C_5  and  O_6
REMARK    2  A    between atoms: O_6  and  C_7
REMARK    3  A    between atoms: C_9  and  C_10
REMARK    4  A    between atoms: C_10  and  N_11
REMARK    5  A    between atoms: N_11  and  C_12
REMARK                            x       y       z     vdW  Elec       q    Type
REMARK                         _______ _______ _______ _____ _____    ______ ____
ROOT
ATOM      1  C   UNL     1       1.465   5.662  20.643  0.00  0.00    +0.000 C 
ENDROOT
BRANCH   1   4
ATOM      2  C   UNL     1       4.519   3.723  19.292  0.00  0.00    +0.000 A 
ATOM      3  C   UNL     1       3.741   4.785  19.773  0.00  0.00    +0.000 A 
ATOM      4  C   UNL     1       2.422   4.543  20.191  0.00  0.00    +0.000 A 
ATOM      5  C   UNL     1       1.970   3.206  20.106  0.00  0.00    +0.000 A 
ATOM      6  C   UNL     1       2.803   2.223  19.575  0.00  0.00    +0.000 A 
ATOM      7  N   UNL     1       4.053   2.462  19.146  0.00  0.00    +0.000 NA
BRANCH   2   8
ATOM      8  O   UNL     1       5.841   3.985  18.924  0.00  0.00    +0.000 OA
BRANCH   8  13
ATOM      9  F   UNL     1       6.707   4.945  13.556  0.00  0.00    +0.000 F 
ATOM     10  C   UNL     1       6.505   4.714  14.860  0.00  0.00    +0.000 A 
ATOM     11  C   UNL     1       5.254   4.300  15.305  0.00  0.00    +0.000 A 
ATOM     12  C   UNL     1       5.051   4.051  16.671  0.00  0.00    +0.000 A 
ATOM     13  C   UNL     1       6.103   4.216  17.582  0.00  0.00    +0.000 A 
ATOM     14  C   UNL     1       7.340   4.676  17.116  0.00  0.00    +0.000 A 
ATOM     15  C   UNL     1       7.550   4.903  15.755  0.00  0.00    +0.000 A 
ENDBRANCH   8  13
ENDBRANCH   2   8
ENDBRANCH   1   4
BRANCH   1  16
ATOM     16  N   UNL     1       2.005   7.012  20.509  0.00  0.00    +0.000 N 
ATOM     17  H   UNL     1       2.248   7.326  21.445  0.00  0.00    +0.000 HD
BRANCH  16  18
ATOM     18  C   UNL     1       1.686   8.198  19.816  0.00  0.00    +0.000 A 
ATOM     19  N   UNL     1       2.099   8.524  18.576  0.00  0.00    +0.000 NA
ATOM     20  C   UNL     1       1.646   9.727  18.082  0.00  0.00    +0.000 A 
ATOM     21  N   UNL     1       0.798  10.570  18.655  0.00  0.00    +0.000 NA
ATOM     22  C   UNL     1       0.500  10.297  19.911  0.00  0.00    +0.000 A 
ATOM     23  C   UNL     1      -0.102  11.303  20.619  0.00  0.00    +0.000 A 
ATOM     24  C   UNL     1      -0.376  11.137  21.969  0.00  0.00    +0.000 A 
ATOM     25  F   UNL     1      -0.833  12.185  22.667  0.00  0.00    +0.000 F 
ATOM     26  C   UNL     1      -0.108   9.940  22.596  0.00  0.00    +0.000 A 
ATOM     27  F   UNL     1      -0.367   9.788  23.898  0.00  0.00    +0.000 F 
ATOM     28  C   UNL     1       0.504   8.915  21.899  0.00  0.00    +0.000 A 
ATOM     29  C   UNL     1       0.877   9.094  20.550  0.00  0.00    +0.000 A 
ENDBRANCH  16  18
ENDBRANCH   1  16
TORSDOF 5
ENDMDL
MODEL 7
REMARK VINA RESULT:      -8.6      3.463      8.201
REMARK  Name = 
REMARK  5 active torsions:
REMARK  status: ('A' for Active; 'I' for Inactive)
REMARK    1  A    between atoms: C_5  and  O_6
REMARK    2  A    between atoms: O_6  and  C_7
REMARK    3  A    between atoms: C_9  and  C_10
REMARK    4  A    between atoms: C_10  and  N_11
REMARK    5  A    between atoms: N_11  and  C_12
REMARK                            x       y       z     vdW  Elec       q    Type
REMARK                         _______ _______ _______ _____ _____    ______ ____
ROOT
ATOM      1  C   UNL     1       2.806   3.503  16.692  0.00  0.00    +0.000 C 
ENDROOT
BRANCH   1   4
ATOM      2  C   UNL     1       2.068   5.611  19.842  0.00  0.00    +0.000 A 
ATOM      3  C   UNL     1       2.600   5.243  18.599  0.00  0.00    +0.000 A 
ATOM      4  C   UNL     1       2.204   4.033  18.007  0.00  0.00    +0.000 A 
ATOM      5  C   UNL     1       1.260   3.261  18.724  0.00  0.00    +0.000 A 
ATOM      6  C   UNL     1       0.817   3.689  19.974  0.00  0.00    +0.000 A 
ATOM      7  N   UNL     1       1.222   4.832  20.553  0.00  0.00    +0.000 NA
BRANCH   2   8
ATOM      8  O   UNL     1       2.447   6.840  20.387  0.00  0.00    +0.000 OA
BRANCH   8  13
ATOM      9  F   UNL     1      -0.104  11.292  18.348  0.00  0.00    +0.000 F 
ATOM     10  C   UNL     1       0.511  10.214  18.850  0.00  0.00    +0.000 A 
ATOM     11  C   UNL     1       1.301   9.420  18.026  0.00  0.00    +0.000 A 
ATOM     12  C   UNL     1       1.951   8.297  18.559  0.00  0.00    +0.000 A 
ATOM     13  C   UNL     1       1.808   7.978  19.917  0.00  0.00    +0.000 A 
ATOM     14  C   UNL     1       0.972   8.767  20.716  0.00  0.00    +0.000 A 
ATOM     15  C   UNL     1       0.342   9.897  20.192  0.00  0.00    +0.000 A 
ENDBRANCH   8  13
ENDBRANCH   2   8
ENDBRANCH   1   4
BRANCH   1  16
ATOM     16  N   UNL     1       4.264   3.428  16.681  0.00  0.00    +0.000 N 
ATOM     17  H   UNL     1       4.536   2.876  17.491  0.00  0.00    +0.000 HD
BRANCH  16  18
ATOM     18  C   UNL     1       5.351   4.301  16.474  0.00  0.00    +0.000 A 
ATOM     19  N   UNL     1       5.822   5.201  17.358  0.00  0.00    +0.000 NA
ATOM     20  C   UNL     1       6.913   5.937  16.955  0.00  0.00    +0.000 A 
ATOM     21  N   UNL     1       7.597   5.817  15.825  0.00  0.00    +0.000 NA
ATOM     22  C   UNL     1       7.055   5.021  14.924  0.00  0.00    +0.000 A 
ATOM     23  C   UNL     1       7.552   5.126  13.652  0.00  0.00    +0.000 A 
ATOM     24  C   UNL     1       6.986   4.389  12.621  0.00  0.00    +0.000 A 
ATOM     25  F   UNL     1       7.397   4.616  11.366  0.00  0.00    +0.000 F 
ATOM     26  C   UNL     1       5.967   3.498  12.874  0.00  0.00    +0.000 A 
ATOM     27  F   UNL     1       5.421   2.797  11.876  0.00  0.00    +0.000 F 
ATOM     28  C   UNL     1       5.449   3.383  14.151  0.00  0.00    +0.000 A 
ATOM     29  C   UNL     1       5.944   4.190  15.197  0.00  0.00    +0.000 A 
ENDBRANCH  16  18
ENDBRANCH   1  16
TORSDOF 5
ENDMDL
MODEL 8
REMARK VINA RESULT:      -8.5      3.014      8.220
REMARK  Name = 
REMARK  5 active torsions:
REMARK  status: ('A' for Active; 'I' for Inactive)
REMARK    1  A    between atoms: C_5  and  O_6
REMARK    2  A    between atoms: O_6  and  C_7
REMARK    3  A    between atoms: C_9  and  C_10
REMARK    4  A    between atoms: C_10  and  N_11
REMARK    5  A    between atoms: N_11  and  C_12
REMARK                            x       y       z     vdW  Elec       q    Type
REMARK                         _______ _______ _______ _____ _____    ______ ____
ROOT
ATOM      1  C   UNL     1       2.552   4.218  17.960  0.00  0.00    +0.000 C 
ENDROOT
BRANCH   1   4
ATOM      2  C   UNL     1       2.125   7.960  18.815  0.00  0.00    +0.000 A 
ATOM      3  C   UNL     1       2.336   6.797  18.062  0.00  0.00    +0.000 A 
ATOM      4  C   UNL     1       2.243   5.541  18.685  0.00  0.00    +0.000 A 
ATOM      5  C   UNL     1       1.919   5.545  20.061  0.00  0.00    +0.000 A 
ATOM      6  C   UNL     1       1.767   6.755  20.737  0.00  0.00    +0.000 A 
ATOM      7  N   UNL     1       1.889   7.955  20.146  0.00  0.00    +0.000 NA
BRANCH   2   8
ATOM      8  O   UNL     1       2.181   9.192  18.160  0.00  0.00    +0.000 OA
BRANCH   8  13
ATOM      9  F   UNL     1      -2.066  12.607  19.047  0.00  0.00    +0.000 F 
ATOM     10  C   UNL     1      -1.030  11.785  18.835  0.00  0.00    +0.000 A 
ATOM     11  C   UNL     1      -1.245  10.529  18.277  0.00  0.00    +0.000 A 
ATOM     12  C   UNL     1      -0.156   9.675  18.049  0.00  0.00    +0.000 A 
ATOM     13  C   UNL     1       1.143  10.086  18.378  0.00  0.00    +0.000 A 
ATOM     14  C   UNL     1       1.329  11.337  18.979  0.00  0.00    +0.000 A 
ATOM     15  C   UNL     1       0.249  12.196  19.186  0.00  0.00    +0.000 A 
ENDBRANCH   8  13
ENDBRANCH   2   8
ENDBRANCH   1   4
BRANCH   1  16
ATOM     16  N   UNL     1       3.901   3.706  18.183  0.00  0.00    +0.000 N 
ATOM     17  H   UNL     1       3.867   3.149  19.034  0.00  0.00    +0.000 HD
BRANCH  16  18
ATOM     18  C   UNL     1       5.222   4.196  18.141  0.00  0.00    +0.000 A 
ATOM     19  N   UNL     1       5.941   4.621  19.198  0.00  0.00    +0.000 NA
ATOM     20  C   UNL     1       7.226   5.038  18.931  0.00  0.00    +0.000 A 
ATOM     21  N   UNL     1       7.861   5.008  17.767  0.00  0.00    +0.000 NA
ATOM     22  C   UNL     1       7.109   4.705  16.726  0.00  0.00    +0.000 A 
ATOM     23  C   UNL     1       7.647   4.977  15.497  0.00  0.00    +0.000 A 
ATOM     24  C   UNL     1       6.896   4.771  14.348  0.00  0.00    +0.000 A 
ATOM     25  F   UNL     1       7.393   5.177  13.172  0.00  0.00    +0.000 F 
ATOM     26  C   UNL     1       5.632   4.229  14.425  0.00  0.00    +0.000 A 
ATOM     27  F   UNL     1       4.910   4.040  13.316  0.00  0.00    +0.000 F 
ATOM     28  C   UNL     1       5.071   3.953  15.658  0.00  0.00    +0.000 A 
ATOM     29  C   UNL     1       5.779   4.243  16.844  0.00  0.00    +0.000 A 
ENDBRANCH  16  18
ENDBRANCH   1  16
TORSDOF 5
ENDMDL
MODEL 9
REMARK VINA RESULT:      -8.5      3.988      8.604
REMARK  Name = 
REMARK  5 active torsions:
REMARK  status: ('A' for Active; 'I' for Inactive)
REMARK    1  A    between atoms: C_5  and  O_6
REMARK    2  A    between atoms: O_6  and  C_7
REMARK    3  A    between atoms: C_9  and  C_10
REMARK    4  A    between atoms: C_10  and  N_11
REMARK    5  A    between atoms: N_11  and  C_12
REMARK                            x       y       z     vdW  Elec       q    Type
REMARK                         _______ _______ _______ _____ _____    ______ ____
ROOT
ATOM      1  C   UNL     1       2.534   8.506  17.656  0.00  0.00    +0.000 C 
ENDROOT
BRANCH   1   4
ATOM      2  C   UNL     1      -0.062  10.655  19.543  0.00  0.00    +0.000 A 
ATOM      3  C   UNL     1       0.737  10.171  18.498  0.00  0.00    +0.000 A 
ATOM      4  C   UNL     1       1.554   9.048  18.714  0.00  0.00    +0.000 A 
ATOM      5  C   UNL     1       1.494   8.466  20.001  0.00  0.00    +0.000 A 
ATOM      6  C   UNL     1       0.699   9.042  20.990  0.00  0.00    +0.000 A 
ATOM      7  N   UNL     1      -0.056  10.135  20.791  0.00  0.00    +0.000 NA
BRANCH   2   8
ATOM      8  O   UNL     1      -0.896  11.746  19.287  0.00  0.00    +0.000 OA
BRANCH   8  13
ATOM      9  F   UNL     1      -6.120  10.871  17.729  0.00  0.00    +0.000 F 
ATOM     10  C   UNL     1      -4.851  11.077  18.102  0.00  0.00    +0.000 A 
ATOM     11  C   UNL     1      -4.556  12.051  19.049  0.00  0.00    +0.000 A 
ATOM     12  C   UNL     1      -3.225  12.257  19.442  0.00  0.00    +0.000 A 
ATOM     13  C   UNL     1      -2.198  11.482  18.886  0.00  0.00    +0.000 A 
ATOM     14  C   UNL     1      -2.514  10.538  17.902  0.00  0.00    +0.000 A 
ATOM     15  C   UNL     1      -3.841  10.317  17.526  0.00  0.00    +0.000 A 
ENDBRANCH   8  13
ENDBRANCH   2   8
ENDBRANCH   1   4
BRANCH   1  16
ATOM     16  N   UNL     1       3.329   7.364  18.097  0.00  0.00    +0.000 N 
ATOM     17  H   UNL     1       4.116   7.739  18.622  0.00  0.00    +0.000 HD
BRANCH  16  18
ATOM     18  C   UNL     1       3.819   6.162  17.549  0.00  0.00    +0.000 A 
ATOM     19  N   UNL     1       4.751   6.055  16.583  0.00  0.00    +0.000 NA
ATOM     20  C   UNL     1       5.100   4.776  16.212  0.00  0.00    +0.000 A 
ATOM     21  N   UNL     1       4.675   3.636  16.741  0.00  0.00    +0.000 NA
ATOM     22  C   UNL     1       3.678   3.753  17.598  0.00  0.00    +0.000 A 
ATOM     23  C   UNL     1       3.014   2.597  17.908  0.00  0.00    +0.000 A 
ATOM     24  C   UNL     1       1.899   2.635  18.734  0.00  0.00    +0.000 A 
ATOM     25  F   UNL     1       1.186   1.514  18.906  0.00  0.00    +0.000 F 
ATOM     26  C   UNL     1       1.490   3.821  19.303  0.00  0.00    +0.000 A 
ATOM     27  F   UNL     1       0.411   3.854  20.091  0.00  0.00    +0.000 F 
ATOM     28  C   UNL     1       2.145   4.999  18.996  0.00  0.00    +0.000 A 
ATOM     29  C   UNL     1       3.222   4.999  18.085  0.00  0.00    +0.000 A 
ENDBRANCH  16  18
ENDBRANCH   1  16
TORSDOF 5
ENDMDL
