MODEL 1
REMARK VINA RESULT:      -9.1      0.000      0.000
REMARK  Name = 
REMARK  5 active torsions:
REMARK  status: ('A' for Active; 'I' for Inactive)
REMARK    1  A    between atoms: C_1  and  N_2
REMARK    2  A    between atoms: C_6  and  C_7
REMARK    3  A    between atoms: C_7  and  C_8
REMARK    4  A    between atoms: C_12  and  N_13
REMARK    5  A    between atoms: C_19  and  C_20
REMARK                            x       y       z     vdW  Elec       q    Type
REMARK                         _______ _______ _______ _____ _____    ______ ____
ROOT
ATOM      1  N   UNL     1       2.143   8.394  18.691  0.00  0.00    +0.000 N 
ATOM      2  C   UNL     1       1.730   9.497  17.842  0.00  0.00    +0.000 C 
ATOM      3  C   UNL     1       0.833  10.284  18.746  0.00  0.00    +0.000 A 
ATOM      4  C   UNL     1       0.147  11.459  18.519  0.00  0.00    +0.000 A 
ATOM      5  C   UNL     1      -0.662  11.912  19.554  0.00  0.00    +0.000 A 
ATOM      6  N   UNL     1      -0.817  11.272  20.747  0.00  0.00    +0.000 NA
ATOM      7  C   UNL     1      -0.120  10.112  20.965  0.00  0.00    +0.000 A 
ATOM      8  C   UNL     1       0.713   9.641  19.976  0.00  0.00    +0.000 A 
ATOM      9  C   UNL     1       1.555   8.451  19.955  0.00  0.00    +0.000 C 
ATOM     10  O   UNL     1       1.621   7.674  20.884  0.00  0.00    +0.000 OA
ENDROOT
BRANCH   1  15
ATOM     11  C   UNL     1       2.789   4.829  17.872  0.00  0.00    +0.000 A 
ATOM     12  C   UNL     1       3.935   4.956  17.079  0.00  0.00    +0.000 A 
ATOM     13  C   UNL     1       4.544   6.201  16.907  0.00  0.00    +0.000 A 
ATOM     14  C   UNL     1       4.013   7.340  17.518  0.00  0.00    +0.000 A 
ATOM     15  C   UNL     1       2.829   7.244  18.250  0.00  0.00    +0.000 A 
ATOM     16  C   UNL     1       2.245   5.984  18.445  0.00  0.00    +0.000 A 
BRANCH  11  17
ATOM     17  C   UNL     1       2.131   3.485  18.079  0.00  0.00    +0.000 C 
BRANCH  17  23
ATOM     18  C   UNL     1       4.369   2.370  19.986  0.00  0.00    +0.000 C 
ATOM     19  N   UNL     1       2.993   2.631  20.321  0.00  0.00    +0.000 N 
ATOM     20  C   UNL     1       2.438   2.453  21.554  0.00  0.00    +0.000 A 
ATOM     21  N   UNL     1       1.175   2.799  21.517  0.00  0.00    +0.000 NA
ATOM     22  N   UNL     1       0.896   3.217  20.238  0.00  0.00    +0.000 NA
ATOM     23  C   UNL     1       1.993   3.111  19.514  0.00  0.00    +0.000 A 
ENDBRANCH  17  23
ENDBRANCH  11  17
ENDBRANCH   1  15
BRANCH   7  24
ATOM     24  C   UNL     1      -0.293   9.342  22.260  0.00  0.00    +0.000 C 
ATOM     25  F   UNL     1      -1.150   9.951  23.135  0.00  0.00    +0.000 F 
ATOM     26  F   UNL     1      -0.809   8.091  22.078  0.00  0.00    +0.000 F 
ATOM     27  F   UNL     1       0.870   9.194  22.957  0.00  0.00    +0.000 F 
ENDBRANCH   7  24
TORSDOF 4
ENDMDL
MODEL 2
REMARK VINA RESULT:      -8.7      2.369      3.694
REMARK  Name = 
REMARK  5 active torsions:
REMARK  status: ('A' for Active; 'I' for Inactive)
REMARK    1  A    between atoms: C_1  and  N_2
REMARK    2  A    between atoms: C_6  and  C_7
REMARK    3  A    between atoms: C_7  and  C_8
REMARK    4  A    between atoms: C_12  and  N_13
REMARK    5  A    between atoms: C_19  and  C_20
REMARK                            x       y       z     vdW  Elec       q    Type
REMARK                         _______ _______ _______ _____ _____    ______ ____
ROOT
ATOM      1  N   UNL     1       2.231   7.784  18.612  0.00  0.00    +0.000 N 
ATOM      2  C   UNL     1       2.095   8.966  17.779  0.00  0.00    +0.000 C 
ATOM      3  C   UNL     1       1.384   9.922  18.685  0.00  0.00    +0.000 A 
ATOM      4  C   UNL     1       0.987  11.226  18.472  0.00  0.00    +0.000 A 
ATOM      5  C   UNL     1       0.283  11.834  19.502  0.00  0.00    +0.000 A 
ATOM      6  N   UNL     1      -0.036  11.227  20.680  0.00  0.00    +0.000 NA
ATOM      7  C   UNL     1       0.374   9.936  20.886  0.00  0.00    +0.000 A 
ATOM      8  C   UNL     1       1.098   9.303  19.900  0.00  0.00    +0.000 A 
ATOM      9  C   UNL     1       1.647   7.954  19.868  0.00  0.00    +0.000 C 
ATOM     10  O   UNL     1       1.518   7.167  20.782  0.00  0.00    +0.000 OA
ENDROOT
BRANCH   1  15
ATOM     11  C   UNL     1       4.501   5.040  17.558  0.00  0.00    +0.000 A 
ATOM     12  C   UNL     1       3.624   3.950  17.617  0.00  0.00    +0.000 A 
ATOM     13  C   UNL     1       2.270   4.144  17.903  0.00  0.00    +0.000 A 
ATOM     14  C   UNL     1       1.773   5.429  18.141  0.00  0.00    +0.000 A 
ATOM     15  C   UNL     1       2.647   6.516  18.159  0.00  0.00    +0.000 A 
ATOM     16  C   UNL     1       3.998   6.315  17.838  0.00  0.00    +0.000 A 
BRANCH  11  17
ATOM     17  C   UNL     1       5.963   4.844  17.234  0.00  0.00    +0.000 C 
BRANCH  17  23
ATOM     18  C   UNL     1       7.736   5.532  19.738  0.00  0.00    +0.000 C 
ATOM     19  N   UNL     1       7.552   6.335  18.556  0.00  0.00    +0.000 N 
ATOM     20  C   UNL     1       8.152   7.537  18.324  0.00  0.00    +0.000 A 
ATOM     21  N   UNL     1       7.781   7.990  17.151  0.00  0.00    +0.000 NA
ATOM     22  N   UNL     1       6.927   7.065  16.601  0.00  0.00    +0.000 NA
ATOM     23  C   UNL     1       6.784   6.068  17.452  0.00  0.00    +0.000 A 
ENDBRANCH  17  23
ENDBRANCH  11  17
ENDBRANCH   1  15
BRANCH   7  24
ATOM     24  C   UNL     1       0.007   9.205  22.163  0.00  0.00    +0.000 C 
ATOM     25  F   UNL     1      -0.742   9.966  23.019  0.00  0.00    +0.000 F 
ATOM     26  F   UNL     1      -0.742   8.084  21.944  0.00  0.00    +0.000 F 
ATOM     27  F   UNL     1       1.092   8.822  22.894  0.00  0.00    +0.000 F 
ENDBRANCH   7  24
TORSDOF 4
ENDMDL
MODEL 3
REMARK VINA RESULT:      -8.6      2.219      3.463
REMARK  Name = 
REMARK  5 active torsions:
REMARK  status: ('A' for Active; 'I' for Inactive)
REMARK    1  A    between atoms: C_1  and  N_2
REMARK    2  A    between atoms: C_6  and  C_7
REMARK    3  A    between atoms: C_7  and  C_8
REMARK    4  A    between atoms: C_12  and  N_13
REMARK    5  A    between atoms: C_19  and  C_20
REMARK                            x       y       z     vdW  Elec       q    Type
REMARK                         _______ _______ _______ _____ _____    ______ ____
ROOT
ATOM      1  N   UNL     1       2.044   8.269  18.696  0.00  0.00    +0.000 N 
ATOM      2  C   UNL     1       1.841   9.491  17.937  0.00  0.00    +0.000 C 
ATOM      3  C   UNL     1       1.141  10.373  18.923  0.00  0.00    +0.000 A 
ATOM      4  C   UNL     1       0.699  11.674  18.799  0.00  0.00    +0.000 A 
ATOM      5  C   UNL     1       0.020  12.203  19.890  0.00  0.00    +0.000 A 
ATOM      6  N   UNL     1      -0.233  11.522  21.043  0.00  0.00    +0.000 NA
ATOM      7  C   UNL     1       0.221  10.234  21.159  0.00  0.00    +0.000 A 
ATOM      8  C   UNL     1       0.921   9.679  20.111  0.00  0.00    +0.000 A 
ATOM      9  C   UNL     1       1.507   8.352  19.981  0.00  0.00    +0.000 C 
ATOM     10  O   UNL     1       1.437   7.512  20.854  0.00  0.00    +0.000 OA
ENDROOT
BRANCH   1  15
ATOM     11  C   UNL     1       4.325   5.704  17.279  0.00  0.00    +0.000 A 
ATOM     12  C   UNL     1       3.533   4.558  17.418  0.00  0.00    +0.000 A 
ATOM     13  C   UNL     1       2.219   4.656  17.880  0.00  0.00    +0.000 A 
ATOM     14  C   UNL     1       1.677   5.899  18.219  0.00  0.00    +0.000 A 
ATOM     15  C   UNL     1       2.476   7.041  18.156  0.00  0.00    +0.000 A 
ATOM     16  C   UNL     1       3.783   6.937  17.659  0.00  0.00    +0.000 A 
BRANCH  11  17
ATOM     17  C   UNL     1       5.742   5.613  16.764  0.00  0.00    +0.000 C 
BRANCH  17  23
ATOM     18  C   UNL     1       7.618   8.027  17.497  0.00  0.00    +0.000 C 
ATOM     19  N   UNL     1       7.566   6.740  18.141  0.00  0.00    +0.000 N 
ATOM     20  C   UNL     1       8.327   6.367  19.210  0.00  0.00    +0.000 A 
ATOM     21  N   UNL     1       8.020   5.140  19.556  0.00  0.00    +0.000 NA
ATOM     22  N   UNL     1       7.037   4.702  18.701  0.00  0.00    +0.000 NA
ATOM     23  C   UNL     1       6.767   5.666  17.843  0.00  0.00    +0.000 A 
ENDBRANCH  17  23
ENDBRANCH  11  17
ENDBRANCH   1  15
BRANCH   7  24
ATOM     24  C   UNL     1      -0.074   9.423  22.406  0.00  0.00    +0.000 C 
ATOM     25  F   UNL     1      -0.823  10.106  23.324  0.00  0.00    +0.000 F 
ATOM     26  F   UNL     1      -0.783   8.284  22.151  0.00  0.00    +0.000 F 
ATOM     27  F   UNL     1       1.050   9.048  23.081  0.00  0.00    +0.000 F 
ENDBRANCH   7  24
TORSDOF 4
ENDMDL
MODEL 4
REMARK VINA RESULT:      -8.5      3.512      7.701
REMARK  Name = 
REMARK  5 active torsions:
REMARK  status: ('A' for Active; 'I' for Inactive)
REMARK    1  A    between atoms: C_1  and  N_2
REMARK    2  A    between atoms: C_6  and  C_7
REMARK    3  A    between atoms: C_7  and  C_8
REMARK    4  A    between atoms: C_12  and  N_13
REMARK    5  A    between atoms: C_19  and  C_20
REMARK                            x       y       z     vdW  Elec       q    Type
REMARK                         _______ _______ _______ _____ _____    ______ ____
ROOT
ATOM      1  N   UNL     1       2.814   7.045  18.217  0.00  0.00    +0.000 N 
ATOM      2  C   UNL     1       3.960   7.439  17.416  0.00  0.00    +0.000 C 
ATOM      3  C   UNL     1       4.498   6.121  16.950  0.00  0.00    +0.000 A 
ATOM      4  C   UNL     1       5.574   5.835  16.135  0.00  0.00    +0.000 A 
ATOM      5  C   UNL     1       5.858   4.490  15.937  0.00  0.00    +0.000 A 
ATOM      6  N   UNL     1       5.154   3.464  16.494  0.00  0.00    +0.000 NA
ATOM      7  C   UNL     1       4.080   3.761  17.292  0.00  0.00    +0.000 A 
ATOM      8  C   UNL     1       3.747   5.081  17.495  0.00  0.00    +0.000 A 
ATOM      9  C   UNL     1       2.668   5.660  18.284  0.00  0.00    +0.000 C 
ATOM     10  O   UNL     1       1.872   4.988  18.906  0.00  0.00    +0.000 OA
ENDROOT
BRANCH   1  15
ATOM     11  C   UNL     1       0.570   9.817  19.254  0.00  0.00    +0.000 A 
ATOM     12  C   UNL     1       0.305   9.446  20.577  0.00  0.00    +0.000 A 
ATOM     13  C   UNL     1       0.949   8.345  21.147  0.00  0.00    +0.000 A 
ATOM     14  C   UNL     1       1.861   7.593  20.402  0.00  0.00    +0.000 A 
ATOM     15  C   UNL     1       2.081   7.905  19.059  0.00  0.00    +0.000 A 
ATOM     16  C   UNL     1       1.455   9.032  18.506  0.00  0.00    +0.000 A 
BRANCH  11  17
ATOM     17  C   UNL     1      -0.107  11.016  18.632  0.00  0.00    +0.000 C 
BRANCH  17  23
ATOM     18  C   UNL     1      -2.797  12.309  19.620  0.00  0.00    +0.000 C 
ATOM     19  N   UNL     1      -2.637  11.314  18.590  0.00  0.00    +0.000 N 
ATOM     20  C   UNL     1      -3.652  10.783  17.849  0.00  0.00    +0.000 A 
ATOM     21  N   UNL     1      -3.160   9.920  16.993  0.00  0.00    +0.000 NA
ATOM     22  N   UNL     1      -1.798   9.889  17.172  0.00  0.00    +0.000 NA
ATOM     23  C   UNL     1      -1.483  10.727  18.140  0.00  0.00    +0.000 A 
ENDBRANCH  17  23
ENDBRANCH  11  17
ENDBRANCH   1  15
BRANCH   7  24
ATOM     24  C   UNL     1       3.293   2.654  17.967  0.00  0.00    +0.000 C 
ATOM     25  F   UNL     1       3.785   1.407  17.699  0.00  0.00    +0.000 F 
ATOM     26  F   UNL     1       3.297   2.747  19.330  0.00  0.00    +0.000 F 
ATOM     27  F   UNL     1       1.988   2.607  17.575  0.00  0.00    +0.000 F 
ENDBRANCH   7  24
TORSDOF 4
ENDMDL
MODEL 5
REMARK VINA RESULT:      -8.3      0.730      1.279
REMARK  Name = 
REMARK  5 active torsions:
REMARK  status: ('A' for Active; 'I' for Inactive)
REMARK    1  A    between atoms: C_1  and  N_2
REMARK    2  A    between atoms: C_6  and  C_7
REMARK    3  A    between atoms: C_7  and  C_8
REMARK    4  A    between atoms: C_12  and  N_13
REMARK    5  A    between atoms: C_19  and  C_20
REMARK                            x       y       z     vdW  Elec       q    Type
REMARK                         _______ _______ _______ _____ _____    ______ ____
ROOT
ATOM      1  N   UNL     1       1.941   8.627  18.712  0.00  0.00    +0.000 N 
ATOM      2  C   UNL     1       1.337   9.629  17.853  0.00  0.00    +0.000 C 
ATOM      3  C   UNL     1       0.420  10.352  18.790  0.00  0.00    +0.000 A 
ATOM      4  C   UNL     1      -0.417  11.426  18.569  0.00  0.00    +0.000 A 
ATOM      5  C   UNL     1      -1.197  11.833  19.643  0.00  0.00    +0.000 A 
ATOM      6  N   UNL     1      -1.186  11.241  20.871  0.00  0.00    +0.000 NA
ATOM      7  C   UNL     1      -0.341  10.182  21.083  0.00  0.00    +0.000 A 
ATOM      8  C   UNL     1       0.469   9.762  20.052  0.00  0.00    +0.000 A 
ATOM      9  C   UNL     1       1.443   8.680  20.015  0.00  0.00    +0.000 C 
ATOM     10  O   UNL     1       1.671   7.964  20.967  0.00  0.00    +0.000 OA
ENDROOT
BRANCH   1  15
ATOM     11  C   UNL     1       2.924   5.130  17.937  0.00  0.00    +0.000 A 
ATOM     12  C   UNL     1       4.022   5.356  17.099  0.00  0.00    +0.000 A 
ATOM     13  C   UNL     1       4.491   6.653  16.880  0.00  0.00    +0.000 A 
ATOM     14  C   UNL     1       3.867   7.746  17.489  0.00  0.00    +0.000 A 
ATOM     15  C   UNL     1       2.727   7.545  18.268  0.00  0.00    +0.000 A 
ATOM     16  C   UNL     1       2.283   6.236  18.508  0.00  0.00    +0.000 A 
BRANCH  11  17
ATOM     17  C   UNL     1       2.417   3.731  18.195  0.00  0.00    +0.000 C 
BRANCH  17  23
ATOM     18  C   UNL     1       1.306   3.071  21.062  0.00  0.00    +0.000 C 
ATOM     19  N   UNL     1       2.615   2.762  20.544  0.00  0.00    +0.000 N 
ATOM     20  C   UNL     1       3.591   2.097  21.226  0.00  0.00    +0.000 A 
ATOM     21  N   UNL     1       4.647   1.970  20.460  0.00  0.00    +0.000 NA
ATOM     22  N   UNL     1       4.357   2.557  19.252  0.00  0.00    +0.000 NA
ATOM     23  C   UNL     1       3.131   3.039  19.304  0.00  0.00    +0.000 A 
ENDBRANCH  17  23
ENDBRANCH  11  17
ENDBRANCH   1  15
BRANCH   7  24
ATOM     24  C   UNL     1      -0.325   9.466  22.419  0.00  0.00    +0.000 C 
ATOM     25  F   UNL     1      -1.143  10.046  23.348  0.00  0.00    +0.000 F 
ATOM     26  F   UNL     1      -0.750   8.170  22.338  0.00  0.00    +0.000 F 
ATOM     27  F   UNL     1       0.907   9.444  23.002  0.00  0.00    +0.000 F 
ENDBRANCH   7  24
TORSDOF 4
ENDMDL
MODEL 6
REMARK VINA RESULT:      -8.2      2.266      3.336
REMARK  Name = 
REMARK  5 active torsions:
REMARK  status: ('A' for Active; 'I' for Inactive)
REMARK    1  A    between atoms: C_1  and  N_2
REMARK    2  A    between atoms: C_6  and  C_7
REMARK    3  A    between atoms: C_7  and  C_8
REMARK    4  A    between atoms: C_12  and  N_13
REMARK    5  A    between atoms: C_19  and  C_20
REMARK                            x       y       z     vdW  Elec       q    Type
REMARK                         _______ _______ _______ _____ _____    ______ ____
ROOT
ATOM      1  N   UNL     1       2.131   7.592  18.723  0.00  0.00    +0.000 N 
ATOM      2  C   UNL     1       2.063   8.727  17.820  0.00  0.00    +0.000 C 
ATOM      3  C   UNL     1       1.500   9.804  18.694  0.00  0.00    +0.000 A 
ATOM      4  C   UNL     1       1.219  11.125  18.414  0.00  0.00    +0.000 A 
ATOM      5  C   UNL     1       0.636  11.864  19.435  0.00  0.00    +0.000 A 
ATOM      6  N   UNL     1       0.328  11.366  20.666  0.00  0.00    +0.000 NA
ATOM      7  C   UNL     1       0.622  10.055  20.937  0.00  0.00    +0.000 A 
ATOM      8  C   UNL     1       1.224   9.293  19.961  0.00  0.00    +0.000 A 
ATOM      9  C   UNL     1       1.638   7.897  19.992  0.00  0.00    +0.000 C 
ATOM     10  O   UNL     1       1.486   7.185  20.962  0.00  0.00    +0.000 OA
ENDROOT
BRANCH   1  15
ATOM     11  C   UNL     1       3.956   4.380  18.334  0.00  0.00    +0.000 A 
ATOM     12  C   UNL     1       2.906   3.538  17.949  0.00  0.00    +0.000 A 
ATOM     13  C   UNL     1       1.629   4.056  17.721  0.00  0.00    +0.000 A 
ATOM     14  C   UNL     1       1.379   5.422  17.881  0.00  0.00    +0.000 A 
ATOM     15  C   UNL     1       2.396   6.263  18.336  0.00  0.00    +0.000 A 
ATOM     16  C   UNL     1       3.683   5.739  18.530  0.00  0.00    +0.000 A 
BRANCH  11  17
ATOM     17  C   UNL     1       5.345   3.835  18.567  0.00  0.00    +0.000 C 
BRANCH  17  23
ATOM     18  C   UNL     1       6.496   5.396  16.091  0.00  0.00    +0.000 C 
ATOM     19  N   UNL     1       6.876   5.554  17.472  0.00  0.00    +0.000 N 
ATOM     20  C   UNL     1       7.800   6.444  17.933  0.00  0.00    +0.000 A 
ATOM     21  N   UNL     1       7.894   6.338  19.237  0.00  0.00    +0.000 NA
ATOM     22  N   UNL     1       7.011   5.364  19.638  0.00  0.00    +0.000 NA
ATOM     23  C   UNL     1       6.399   4.887  18.571  0.00  0.00    +0.000 A 
ENDBRANCH  17  23
ENDBRANCH  11  17
ENDBRANCH   1  15
BRANCH   7  24
ATOM     24  C   UNL     1       0.259   9.446  22.277  0.00  0.00    +0.000 C 
ATOM     25  F   UNL     1      -0.328  10.339  23.131  0.00  0.00    +0.000 F 
ATOM     26  F   UNL     1      -0.635   8.418  22.176  0.00  0.00    +0.000 F 
ATOM     27  F   UNL     1       1.338   8.967  22.960  0.00  0.00    +0.000 F 
ENDBRANCH   7  24
TORSDOF 4
ENDMDL
MODEL 7
REMARK VINA RESULT:      -8.1      0.930      1.352
REMARK  Name = 
REMARK  5 active torsions:
REMARK  status: ('A' for Active; 'I' for Inactive)
REMARK    1  A    between atoms: C_1  and  N_2
REMARK    2  A    between atoms: C_6  and  C_7
REMARK    3  A    between atoms: C_7  and  C_8
REMARK    4  A    between atoms: C_12  and  N_13
REMARK    5  A    between atoms: C_19  and  C_20
REMARK                            x       y       z     vdW  Elec       q    Type
REMARK                         _______ _______ _______ _____ _____    ______ ____
ROOT
ATOM      1  N   UNL     1       2.704   7.853  18.341  0.00  0.00    +0.000 N 
ATOM      2  C   UNL     1       2.292   8.952  17.485  0.00  0.00    +0.000 C 
ATOM      3  C   UNL     1       1.325   9.694  18.354  0.00  0.00    +0.000 A 
ATOM      4  C   UNL     1       0.608  10.847  18.108  0.00  0.00    +0.000 A 
ATOM      5  C   UNL     1      -0.265  11.257  19.108  0.00  0.00    +0.000 A 
ATOM      6  N   UNL     1      -0.453  10.596  20.285  0.00  0.00    +0.000 NA
ATOM      7  C   UNL     1       0.274   9.458  20.523  0.00  0.00    +0.000 A 
ATOM      8  C   UNL     1       1.170   9.031  19.570  0.00  0.00    +0.000 A 
ATOM      9  C   UNL     1       2.054   7.873  19.575  0.00  0.00    +0.000 C 
ATOM     10  O   UNL     1       2.105   7.086  20.497  0.00  0.00    +0.000 OA
ENDROOT
BRANCH   1  15
ATOM     11  C   UNL     1       3.626   4.300  17.770  0.00  0.00    +0.000 A 
ATOM     12  C   UNL     1       4.649   4.454  16.827  0.00  0.00    +0.000 A 
ATOM     13  C   UNL     1       5.096   5.727  16.466  0.00  0.00    +0.000 A 
ATOM     14  C   UNL     1       4.522   6.867  17.035  0.00  0.00    +0.000 A 
ATOM     15  C   UNL     1       3.452   6.735  17.921  0.00  0.00    +0.000 A 
ATOM     16  C   UNL     1       3.033   5.451  18.302  0.00  0.00    +0.000 A 
BRANCH  11  17
ATOM     17  C   UNL     1       3.145   2.929  18.180  0.00  0.00    +0.000 C 
BRANCH  17  23
ATOM     18  C   UNL     1       0.228   3.077  19.345  0.00  0.00    +0.000 C 
ATOM     19  N   UNL     1       1.453   2.913  20.086  0.00  0.00    +0.000 N 
ATOM     20  C   UNL     1       1.537   2.769  21.440  0.00  0.00    +0.000 A 
ATOM     21  N   UNL     1       2.794   2.626  21.785  0.00  0.00    +0.000 NA
ATOM     22  N   UNL     1       3.547   2.672  20.636  0.00  0.00    +0.000 NA
ATOM     23  C   UNL     1       2.738   2.850  19.611  0.00  0.00    +0.000 A 
ENDBRANCH  17  23
ENDBRANCH  11  17
ENDBRANCH   1  15
BRANCH   7  24
ATOM     24  C   UNL     1       0.068   8.667  21.800  0.00  0.00    +0.000 C 
ATOM     25  F   UNL     1      -0.853   9.232  22.638  0.00  0.00    +0.000 F 
ATOM     26  F   UNL     1      -0.391   7.399  21.578  0.00  0.00    +0.000 F 
ATOM     27  F   UNL     1       1.200   8.553  22.550  0.00  0.00    +0.000 F 
ENDBRANCH   7  24
TORSDOF 4
ENDMDL
MODEL 8
REMARK VINA RESULT:      -8.1      2.510      3.743
REMARK  Name = 
REMARK  5 active torsions:
REMARK  status: ('A' for Active; 'I' for Inactive)
REMARK    1  A    between atoms: C_1  and  N_2
REMARK    2  A    between atoms: C_6  and  C_7
REMARK    3  A    between atoms: C_7  and  C_8
REMARK    4  A    between atoms: C_12  and  N_13
REMARK    5  A    between atoms: C_19  and  C_20
REMARK                            x       y       z     vdW  Elec       q    Type
REMARK                         _______ _______ _______ _____ _____    ______ ____
ROOT
ATOM      1  N   UNL     1       2.211   7.782  18.748  0.00  0.00    +0.000 N 
ATOM      2  C   UNL     1       2.088   8.936  17.874  0.00  0.00    +0.000 C 
ATOM      3  C   UNL     1       1.365   9.922  18.739  0.00  0.00    +0.000 A 
ATOM      4  C   UNL     1       0.973  11.218  18.477  0.00  0.00    +0.000 A 
ATOM      5  C   UNL     1       0.256  11.861  19.477  0.00  0.00    +0.000 A 
ATOM      6  N   UNL     1      -0.080  11.293  20.670  0.00  0.00    +0.000 NA
ATOM      7  C   UNL     1       0.326  10.008  20.924  0.00  0.00    +0.000 A 
ATOM      8  C   UNL     1       1.062   9.343  19.969  0.00  0.00    +0.000 A 
ATOM      9  C   UNL     1       1.611   7.994  19.989  0.00  0.00    +0.000 C 
ATOM     10  O   UNL     1       1.468   7.237  20.927  0.00  0.00    +0.000 OA
ENDROOT
BRANCH   1  15
ATOM     11  C   UNL     1       4.479   4.926  18.042  0.00  0.00    +0.000 A 
ATOM     12  C   UNL     1       3.547   3.890  17.915  0.00  0.00    +0.000 A 
ATOM     13  C   UNL     1       2.177   4.158  17.960  0.00  0.00    +0.000 A 
ATOM     14  C   UNL     1       1.716   5.465  18.140  0.00  0.00    +0.000 A 
ATOM     15  C   UNL     1       2.631   6.499  18.342  0.00  0.00    +0.000 A 
ATOM     16  C   UNL     1       4.004   6.224  18.262  0.00  0.00    +0.000 A 
BRANCH  11  17
ATOM     17  C   UNL     1       5.962   4.651  17.978  0.00  0.00    +0.000 C 
BRANCH  17  23
ATOM     18  C   UNL     1       5.518   3.095  15.282  0.00  0.00    +0.000 C 
ATOM     19  N   UNL     1       6.343   4.258  15.489  0.00  0.00    +0.000 N 
ATOM     20  C   UNL     1       7.060   4.893  14.518  0.00  0.00    +0.000 A 
ATOM     21  N   UNL     1       7.685   5.920  15.041  0.00  0.00    +0.000 NA
ATOM     22  N   UNL     1       7.369   5.962  16.377  0.00  0.00    +0.000 NA
ATOM     23  C   UNL     1       6.563   4.955  16.649  0.00  0.00    +0.000 A 
ENDBRANCH  17  23
ENDBRANCH  11  17
ENDBRANCH   1  15
BRANCH   7  24
ATOM     24  C   UNL     1      -0.059   9.321  22.219  0.00  0.00    +0.000 C 
ATOM     25  F   UNL     1      -0.821  10.109  23.038  0.00  0.00    +0.000 F 
ATOM     26  F   UNL     1      -0.803   8.192  22.028  0.00  0.00    +0.000 F 
ATOM     27  F   UNL     1       1.016   8.964  22.979  0.00  0.00    +0.000 F 
ENDBRANCH   7  24
TORSDOF 4
ENDMDL
MODEL 9
REMARK VINA RESULT:      -8.1      2.462      3.659
REMARK  Name = 
REMARK  5 active torsions:
REMARK  status: ('A' for Active; 'I' for Inactive)
REMARK    1  A    between atoms: C_1  and  N_2
REMARK    2  A    between atoms: C_6  and  C_7
REMARK    3  A    between atoms: C_7  and  C_8
REMARK    4  A    between atoms: C_12  and  N_13
REMARK    5  A    between atoms: C_19  and  C_20
REMARK                            x       y       z     vdW  Elec       q    Type
REMARK                         _______ _______ _______ _____ _____    ______ ____
ROOT
ATOM      1  N   UNL     1       2.127   7.734  18.768  0.00  0.00    +0.000 N 
ATOM      2  C   UNL     1       2.079   8.906  17.911  0.00  0.00    +0.000 C 
ATOM      3  C   UNL     1       1.486   9.944  18.813  0.00  0.00    +0.000 A 
ATOM      4  C   UNL     1       1.208  11.274  18.579  0.00  0.00    +0.000 A 
ATOM      5  C   UNL     1       0.593  11.968  19.613  0.00  0.00    +0.000 A 
ATOM      6  N   UNL     1       0.251  11.419  20.813  0.00  0.00    +0.000 NA
ATOM      7  C   UNL     1       0.544  10.098  21.038  0.00  0.00    +0.000 A 
ATOM      8  C   UNL     1       1.177   9.380  20.049  0.00  0.00    +0.000 A 
ATOM      9  C   UNL     1       1.596   7.985  20.034  0.00  0.00    +0.000 C 
ATOM     10  O   UNL     1       1.419   7.233  20.969  0.00  0.00    +0.000 OA
ENDROOT
BRANCH   1  15
ATOM     11  C   UNL     1       4.081   4.675  17.983  0.00  0.00    +0.000 A 
ATOM     12  C   UNL     1       3.046   3.742  17.848  0.00  0.00    +0.000 A 
ATOM     13  C   UNL     1       1.711   4.149  17.914  0.00  0.00    +0.000 A 
ATOM     14  C   UNL     1       1.390   5.493  18.124  0.00  0.00    +0.000 A 
ATOM     15  C   UNL     1       2.408   6.423  18.334  0.00  0.00    +0.000 A 
ATOM     16  C   UNL     1       3.745   6.010  18.233  0.00  0.00    +0.000 A 
BRANCH  11  17
ATOM     17  C   UNL     1       5.527   4.249  17.897  0.00  0.00    +0.000 C 
BRANCH  17  23
ATOM     18  C   UNL     1       7.312   6.604  16.821  0.00  0.00    +0.000 C 
ATOM     19  N   UNL     1       6.886   5.434  16.095  0.00  0.00    +0.000 N 
ATOM     20  C   UNL     1       7.218   5.149  14.804  0.00  0.00    +0.000 A 
ATOM     21  N   UNL     1       6.678   4.005  14.459  0.00  0.00    +0.000 NA
ATOM     22  N   UNL     1       5.984   3.529  15.545  0.00  0.00    +0.000 NA
ATOM     23  C   UNL     1       6.105   4.395  16.532  0.00  0.00    +0.000 A 
ENDBRANCH  17  23
ENDBRANCH  11  17
ENDBRANCH   1  15
BRANCH   7  24
ATOM     24  C   UNL     1       0.145   9.433  22.341  0.00  0.00    +0.000 C 
ATOM     25  F   UNL     1      -0.507  10.277  23.196  0.00  0.00    +0.000 F 
ATOM     26  F   UNL     1      -0.708   8.381  22.168  0.00  0.00    +0.000 F 
ATOM     27  F   UNL     1       1.210   8.967  23.054  0.00  0.00    +0.000 F 
ENDBRANCH   7  24
TORSDOF 4
ENDMDL
