MODEL 1
REMARK VINA RESULT:      -8.5      0.000      0.000
REMARK  Name = 
REMARK  4 active torsions:
REMARK  status: ('A' for Active; 'I' for Inactive)
REMARK    1  A    between atoms: C_2  and  C_16
REMARK    2  A    between atoms: N_3  and  C_4
REMARK    3  A    between atoms: C_9  and  N_10
REMARK    4  A    between atoms: C_22  and  C_23
REMARK                            x       y       z     vdW  Elec       q    Type
REMARK                         _______ _______ _______ _____ _____    ______ ____
ROOT
ATOM      1  O   UNL     1       2.550   6.149  20.245  0.00  0.00    +0.000 OA
ATOM      2  C   UNL     1       2.151   6.555  19.151  0.00  0.00    +0.000 C 
ATOM      3  N   UNL     1       2.032   5.728  18.047  0.00  0.00    +0.000 N 
ATOM      4  H   UNL     1       1.349   5.941  17.336  0.00  0.00    +0.000 HD
ENDROOT
BRANCH   2   5
ATOM      5  C   UNL     1       1.732   7.992  19.088  0.00  0.00    +0.000 A 
ATOM      6  C   UNL     1       2.264   8.639  17.917  0.00  0.00    +0.000 A 
ATOM      7  C   UNL     1       2.283  10.019  17.694  0.00  0.00    +0.000 A 
ATOM      8  C   UNL     1       1.726  10.746  18.745  0.00  0.00    +0.000 A 
ATOM      9  N   UNL     1       1.702  12.076  18.895  0.00  0.00    +0.000 NA
ATOM     10  O   UNL     1       0.928  12.302  19.997  0.00  0.00    +0.000 OA
ATOM     11  C   UNL     1       0.375  11.137  20.468  0.00  0.00    +0.000 A 
ATOM     12  C   UNL     1       1.061  10.099  19.864  0.00  0.00    +0.000 A 
ATOM     13  C   UNL     1       1.014   8.701  20.096  0.00  0.00    +0.000 A 
BRANCH  11  14
ATOM     14  C   UNL     1      -0.922  11.368  21.113  0.00  0.00    +0.000 A 
ATOM     15  C   UNL     1      -1.888  12.187  20.527  0.00  0.00    +0.000 A 
ATOM     16  C   UNL     1      -2.779  12.905  21.332  0.00  0.00    +0.000 A 
ATOM     17  C   UNL     1      -2.740  12.778  22.721  0.00  0.00    +0.000 A 
ATOM     18  C   UNL     1      -1.902  11.838  23.305  0.00  0.00    +0.000 A 
ATOM     19  C   UNL     1      -1.031  11.102  22.501  0.00  0.00    +0.000 A 
ENDBRANCH  11  14
ENDBRANCH   2   5
BRANCH   3  20
ATOM     20  C   UNL     1       2.357   4.346  18.184  0.00  0.00    +0.000 A 
ATOM     21  C   UNL     1       1.407   3.477  18.758  0.00  0.00    +0.000 A 
ATOM     22  C   UNL     1       1.698   2.131  18.965  0.00  0.00    +0.000 A 
ATOM     23  C   UNL     1       2.933   1.637  18.568  0.00  0.00    +0.000 A 
ATOM     24  C   UNL     1       3.875   2.498  17.993  0.00  0.00    +0.000 A 
ATOM     25  C   UNL     1       3.632   3.869  17.804  0.00  0.00    +0.000 A 
BRANCH  25  26
ATOM     26  N   UNL     1       4.599   4.711  17.277  0.00  0.00    +0.000 N 
ATOM     27  C   UNL     1       5.513   5.466  18.143  0.00  0.00    +0.000 C 
ATOM     28  C   UNL     1       5.763   6.824  17.466  0.00  0.00    +0.000 C 
ATOM     29  O   UNL     1       6.283   6.674  16.129  0.00  0.00    +0.000 OA
ATOM     30  C   UNL     1       5.407   5.867  15.317  0.00  0.00    +0.000 C 
ATOM     31  C   UNL     1       5.186   4.479  15.945  0.00  0.00    +0.000 C 
ENDBRANCH  25  26
ENDBRANCH   3  20
TORSDOF 4
ENDMDL
MODEL 2
REMARK VINA RESULT:      -8.4      2.242      4.066
REMARK  Name = 
REMARK  4 active torsions:
REMARK  status: ('A' for Active; 'I' for Inactive)
REMARK    1  A    between atoms: C_2  and  C_16
REMARK    2  A    between atoms: N_3  and  C_4
REMARK    3  A    between atoms: C_9  and  N_10
REMARK    4  A    between atoms: C_22  and  C_23
REMARK                            x       y       z     vdW  Elec       q    Type
REMARK                         _______ _______ _______ _____ _____    ______ ____
ROOT
ATOM      1  O   UNL     1       1.810   7.555  17.508  0.00  0.00    +0.000 OA
ATOM      2  C   UNL     1       2.280   7.540  18.647  0.00  0.00    +0.000 C 
ATOM      3  N   UNL     1       3.342   6.726  19.005  0.00  0.00    +0.000 N 
ATOM      4  H   UNL     1       3.957   7.009  19.752  0.00  0.00    +0.000 HD
ENDROOT
BRANCH   2   5
ATOM      5  C   UNL     1       1.683   8.504  19.626  0.00  0.00    +0.000 A 
ATOM      6  C   UNL     1       1.488   7.888  20.912  0.00  0.00    +0.000 A 
ATOM      7  C   UNL     1       0.724   8.419  21.956  0.00  0.00    +0.000 A 
ATOM      8  C   UNL     1       0.137   9.641  21.632  0.00  0.00    +0.000 A 
ATOM      9  N   UNL     1      -0.741  10.343  22.357  0.00  0.00    +0.000 NA
ATOM     10  O   UNL     1      -0.903  11.523  21.688  0.00  0.00    +0.000 OA
ATOM     11  C   UNL     1      -0.049  11.612  20.617  0.00  0.00    +0.000 A 
ATOM     12  C   UNL     1       0.441  10.337  20.392  0.00  0.00    +0.000 A 
ATOM     13  C   UNL     1       1.231   9.824  19.332  0.00  0.00    +0.000 A 
BRANCH  11  14
ATOM     14  C   UNL     1       0.330  13.000  20.332  0.00  0.00    +0.000 A 
ATOM     15  C   UNL     1      -0.521  13.855  19.631  0.00  0.00    +0.000 A 
ATOM     16  C   UNL     1       0.012  14.871  18.832  0.00  0.00    +0.000 A 
ATOM     17  C   UNL     1       1.392  15.068  18.761  0.00  0.00    +0.000 A 
ATOM     18  C   UNL     1       2.237  14.339  19.586  0.00  0.00    +0.000 A 
ATOM     19  C   UNL     1       1.703  13.342  20.404  0.00  0.00    +0.000 A 
ENDBRANCH  11  14
ENDBRANCH   2   5
BRANCH   3  20
ATOM     20  C   UNL     1       3.936   5.892  18.011  0.00  0.00    +0.000 A 
ATOM     21  C   UNL     1       4.722   6.487  17.004  0.00  0.00    +0.000 A 
ATOM     22  C   UNL     1       5.276   5.722  15.981  0.00  0.00    +0.000 A 
ATOM     23  C   UNL     1       5.072   4.349  15.975  0.00  0.00    +0.000 A 
ATOM     24  C   UNL     1       4.295   3.757  16.978  0.00  0.00    +0.000 A 
ATOM     25  C   UNL     1       3.689   4.501  18.004  0.00  0.00    +0.000 A 
BRANCH  25  26
ATOM     26  N   UNL     1       2.884   3.897  18.958  0.00  0.00    +0.000 N 
ATOM     27  C   UNL     1       1.420   3.943  18.865  0.00  0.00    +0.000 C 
ATOM     28  C   UNL     1       0.877   4.048  20.300  0.00  0.00    +0.000 C 
ATOM     29  O   UNL     1       1.334   2.962  21.133  0.00  0.00    +0.000 OA
ATOM     30  C   UNL     1       2.773   2.889  21.149  0.00  0.00    +0.000 C 
ATOM     31  C   UNL     1       3.340   2.725  19.727  0.00  0.00    +0.000 C 
ENDBRANCH  25  26
ENDBRANCH   3  20
TORSDOF 4
ENDMDL
MODEL 3
REMARK VINA RESULT:      -8.2      0.723      1.155
REMARK  Name = 
REMARK  4 active torsions:
REMARK  status: ('A' for Active; 'I' for Inactive)
REMARK    1  A    between atoms: C_2  and  C_16
REMARK    2  A    between atoms: N_3  and  C_4
REMARK    3  A    between atoms: C_9  and  N_10
REMARK    4  A    between atoms: C_22  and  C_23
REMARK                            x       y       z     vdW  Elec       q    Type
REMARK                         _______ _______ _______ _____ _____    ______ ____
ROOT
ATOM      1  O   UNL     1       2.197   6.138  20.325  0.00  0.00    +0.000 OA
ATOM      2  C   UNL     1       2.118   6.638  19.201  0.00  0.00    +0.000 C 
ATOM      3  N   UNL     1       2.345   5.912  18.044  0.00  0.00    +0.000 N 
ATOM      4  H   UNL     1       1.889   6.186  17.187  0.00  0.00    +0.000 HD
ENDROOT
BRANCH   2   5
ATOM      5  C   UNL     1       1.698   8.075  19.141  0.00  0.00    +0.000 A 
ATOM      6  C   UNL     1       2.218   8.721  17.964  0.00  0.00    +0.000 A 
ATOM      7  C   UNL     1       2.234  10.101  17.740  0.00  0.00    +0.000 A 
ATOM      8  C   UNL     1       1.688  10.829  18.796  0.00  0.00    +0.000 A 
ATOM      9  N   UNL     1       1.663  12.158  18.945  0.00  0.00    +0.000 NA
ATOM     10  O   UNL     1       0.900  12.385  20.054  0.00  0.00    +0.000 OA
ATOM     11  C   UNL     1       0.353  11.220  20.532  0.00  0.00    +0.000 A 
ATOM     12  C   UNL     1       1.034  10.182  19.921  0.00  0.00    +0.000 A 
ATOM     13  C   UNL     1       0.990   8.784  20.155  0.00  0.00    +0.000 A 
BRANCH  11  14
ATOM     14  C   UNL     1      -0.938  11.451  21.189  0.00  0.00    +0.000 A 
ATOM     15  C   UNL     1      -1.878  12.331  20.652  0.00  0.00    +0.000 A 
ATOM     16  C   UNL     1      -2.749  13.026  21.498  0.00  0.00    +0.000 A 
ATOM     17  C   UNL     1      -2.716  12.816  22.877  0.00  0.00    +0.000 A 
ATOM     18  C   UNL     1      -1.908  11.818  23.405  0.00  0.00    +0.000 A 
ATOM     19  C   UNL     1      -1.058  11.106  22.558  0.00  0.00    +0.000 A 
ENDBRANCH  11  14
ENDBRANCH   2   5
BRANCH   3  20
ATOM     20  C   UNL     1       2.652   4.523  18.152  0.00  0.00    +0.000 A 
ATOM     21  C   UNL     1       1.596   3.601  18.299  0.00  0.00    +0.000 A 
ATOM     22  C   UNL     1       1.848   2.242  18.465  0.00  0.00    +0.000 A 
ATOM     23  C   UNL     1       3.160   1.790  18.453  0.00  0.00    +0.000 A 
ATOM     24  C   UNL     1       4.210   2.704  18.301  0.00  0.00    +0.000 A 
ATOM     25  C   UNL     1       3.996   4.087  18.170  0.00  0.00    +0.000 A 
BRANCH  25  26
ATOM     26  N   UNL     1       5.054   4.977  18.070  0.00  0.00    +0.000 N 
ATOM     27  C   UNL     1       5.230   5.829  16.887  0.00  0.00    +0.000 C 
ATOM     28  C   UNL     1       6.742   5.960  16.643  0.00  0.00    +0.000 C 
ATOM     29  O   UNL     1       7.433   6.484  17.796  0.00  0.00    +0.000 OA
ATOM     30  C   UNL     1       7.186   5.676  18.962  0.00  0.00    +0.000 C 
ATOM     31  C   UNL     1       5.679   5.576  19.263  0.00  0.00    +0.000 C 
ENDBRANCH  25  26
ENDBRANCH   3  20
TORSDOF 4
ENDMDL
MODEL 4
REMARK VINA RESULT:      -8.2      1.947      3.267
REMARK  Name = 
REMARK  4 active torsions:
REMARK  status: ('A' for Active; 'I' for Inactive)
REMARK    1  A    between atoms: C_2  and  C_16
REMARK    2  A    between atoms: N_3  and  C_4
REMARK    3  A    between atoms: C_9  and  N_10
REMARK    4  A    between atoms: C_22  and  C_23
REMARK                            x       y       z     vdW  Elec       q    Type
REMARK                         _______ _______ _______ _____ _____    ______ ____
ROOT
ATOM      1  O   UNL     1       1.990   5.800  20.715  0.00  0.00    +0.000 OA
ATOM      2  C   UNL     1       2.041   6.652  19.826  0.00  0.00    +0.000 C 
ATOM      3  N   UNL     1       2.383   6.347  18.519  0.00  0.00    +0.000 N 
ATOM      4  H   UNL     1       2.028   6.915  17.765  0.00  0.00    +0.000 HD
ENDROOT
BRANCH   2   5
ATOM      5  C   UNL     1       1.647   8.044  20.215  0.00  0.00    +0.000 A 
ATOM      6  C   UNL     1       1.342   8.126  21.620  0.00  0.00    +0.000 A 
ATOM      7  C   UNL     1       0.700   9.198  22.247  0.00  0.00    +0.000 A 
ATOM      8  C   UNL     1       0.361  10.221  21.362  0.00  0.00    +0.000 A 
ATOM      9  N   UNL     1      -0.361  11.317  21.619  0.00  0.00    +0.000 NA
ATOM     10  O   UNL     1      -0.293  12.071  20.482  0.00  0.00    +0.000 OA
ATOM     11  C   UNL     1       0.557  11.512  19.561  0.00  0.00    +0.000 A 
ATOM     12  C   UNL     1       0.789  10.211  19.972  0.00  0.00    +0.000 A 
ATOM     13  C   UNL     1       1.459   9.142  19.325  0.00  0.00    +0.000 A 
BRANCH  11  14
ATOM     14  C   UNL     1       1.197  12.528  18.719  0.00  0.00    +0.000 A 
ATOM     15  C   UNL     1       2.480  12.341  18.204  0.00  0.00    +0.000 A 
ATOM     16  C   UNL     1       3.312  13.444  17.982  0.00  0.00    +0.000 A 
ATOM     17  C   UNL     1       2.855  14.738  18.229  0.00  0.00    +0.000 A 
ATOM     18  C   UNL     1       1.527  14.948  18.574  0.00  0.00    +0.000 A 
ATOM     19  C   UNL     1       0.689  13.850  18.771  0.00  0.00    +0.000 A 
ENDBRANCH  11  14
ENDBRANCH   2   5
BRANCH   3  20
ATOM     20  C   UNL     1       2.660   4.989  18.179  0.00  0.00    +0.000 A 
ATOM     21  C   UNL     1       1.591   4.075  18.103  0.00  0.00    +0.000 A 
ATOM     22  C   UNL     1       1.816   2.728  17.830  0.00  0.00    +0.000 A 
ATOM     23  C   UNL     1       3.114   2.292  17.600  0.00  0.00    +0.000 A 
ATOM     24  C   UNL     1       4.176   3.201  17.670  0.00  0.00    +0.000 A 
ATOM     25  C   UNL     1       3.992   4.559  17.981  0.00  0.00    +0.000 A 
BRANCH  25  26
ATOM     26  N   UNL     1       5.065   5.429  18.093  0.00  0.00    +0.000 N 
ATOM     27  C   UNL     1       5.115   6.685  17.333  0.00  0.00    +0.000 C 
ATOM     28  C   UNL     1       6.585   6.924  16.947  0.00  0.00    +0.000 C 
ATOM     29  O   UNL     1       7.450   6.953  18.102  0.00  0.00    +0.000 OA
ATOM     30  C   UNL     1       7.328   5.742  18.873  0.00  0.00    +0.000 C 
ATOM     31  C   UNL     1       5.874   5.509  19.323  0.00  0.00    +0.000 C 
ENDBRANCH  25  26
ENDBRANCH   3  20
TORSDOF 4
ENDMDL
MODEL 5
REMARK VINA RESULT:      -8.0      3.558      9.346
REMARK  Name = 
REMARK  4 active torsions:
REMARK  status: ('A' for Active; 'I' for Inactive)
REMARK    1  A    between atoms: C_2  and  C_16
REMARK    2  A    between atoms: N_3  and  C_4
REMARK    3  A    between atoms: C_9  and  N_10
REMARK    4  A    between atoms: C_22  and  C_23
REMARK                            x       y       z     vdW  Elec       q    Type
REMARK                         _______ _______ _______ _____ _____    ______ ____
ROOT
ATOM      1  O   UNL     1       3.290   2.790  17.456  0.00  0.00    +0.000 OA
ATOM      2  C   UNL     1       4.203   3.543  17.802  0.00  0.00    +0.000 C 
ATOM      3  N   UNL     1       4.306   4.049  19.086  0.00  0.00    +0.000 N 
ATOM      4  H   UNL     1       5.213   4.289  19.456  0.00  0.00    +0.000 HD
ENDROOT
BRANCH   2   5
ATOM      5  C   UNL     1       5.248   3.839  16.770  0.00  0.00    +0.000 A 
ATOM      6  C   UNL     1       6.449   4.351  17.376  0.00  0.00    +0.000 A 
ATOM      7  C   UNL     1       7.503   4.963  16.690  0.00  0.00    +0.000 A 
ATOM      8  C   UNL     1       7.283   5.043  15.316  0.00  0.00    +0.000 A 
ATOM      9  N   UNL     1       8.033   5.672  14.405  0.00  0.00    +0.000 NA
ATOM     10  O   UNL     1       7.488   5.344  13.196  0.00  0.00    +0.000 OA
ATOM     11  C   UNL     1       6.477   4.425  13.337  0.00  0.00    +0.000 A 
ATOM     12  C   UNL     1       6.142   4.405  14.679  0.00  0.00    +0.000 A 
ATOM     13  C   UNL     1       5.075   3.762  15.357  0.00  0.00    +0.000 A 
BRANCH  11  14
ATOM     14  C   UNL     1       6.363   3.552  12.163  0.00  0.00    +0.000 A 
ATOM     15  C   UNL     1       5.138   3.006  11.781  0.00  0.00    +0.000 A 
ATOM     16  C   UNL     1       5.095   1.763  11.142  0.00  0.00    +0.000 A 
ATOM     17  C   UNL     1       6.273   1.079  10.841  0.00  0.00    +0.000 A 
ATOM     18  C   UNL     1       7.501   1.690  11.059  0.00  0.00    +0.000 A 
ATOM     19  C   UNL     1       7.544   2.941  11.673  0.00  0.00    +0.000 A 
ENDBRANCH  11  14
ENDBRANCH   2   5
BRANCH   3  20
ATOM     20  C   UNL     1       3.335   3.664  20.058  0.00  0.00    +0.000 A 
ATOM     21  C   UNL     1       3.444   2.396  20.663  0.00  0.00    +0.000 A 
ATOM     22  C   UNL     1       2.490   1.952  21.576  0.00  0.00    +0.000 A 
ATOM     23  C   UNL     1       1.435   2.789  21.913  0.00  0.00    +0.000 A 
ATOM     24  C   UNL     1       1.330   4.051  21.317  0.00  0.00    +0.000 A 
ATOM     25  C   UNL     1       2.251   4.517  20.364  0.00  0.00    +0.000 A 
BRANCH  25  26
ATOM     26  N   UNL     1       2.097   5.751  19.751  0.00  0.00    +0.000 N 
ATOM     27  C   UNL     1       2.054   5.881  18.289  0.00  0.00    +0.000 C 
ATOM     28  C   UNL     1       2.756   7.201  17.929  0.00  0.00    +0.000 C 
ATOM     29  O   UNL     1       2.155   8.332  18.593  0.00  0.00    +0.000 OA
ATOM     30  C   UNL     1       2.140   8.150  20.022  0.00  0.00    +0.000 C 
ATOM     31  C   UNL     1       1.391   6.863  20.413  0.00  0.00    +0.000 C 
ENDBRANCH  25  26
ENDBRANCH   3  20
TORSDOF 4
ENDMDL
MODEL 6
REMARK VINA RESULT:      -7.9      2.186      3.926
REMARK  Name = 
REMARK  4 active torsions:
REMARK  status: ('A' for Active; 'I' for Inactive)
REMARK    1  A    between atoms: C_2  and  C_16
REMARK    2  A    between atoms: N_3  and  C_4
REMARK    3  A    between atoms: C_9  and  N_10
REMARK    4  A    between atoms: C_22  and  C_23
REMARK                            x       y       z     vdW  Elec       q    Type
REMARK                         _______ _______ _______ _____ _____    ______ ____
ROOT
ATOM      1  O   UNL     1       1.795   7.396  17.233  0.00  0.00    +0.000 OA
ATOM      2  C   UNL     1       2.315   7.535  18.342  0.00  0.00    +0.000 C 
ATOM      3  N   UNL     1       3.448   6.841  18.728  0.00  0.00    +0.000 N 
ATOM      4  H   UNL     1       4.073   7.245  19.409  0.00  0.00    +0.000 HD
ENDROOT
BRANCH   2   5
ATOM      5  C   UNL     1       1.690   8.555  19.245  0.00  0.00    +0.000 A 
ATOM      6  C   UNL     1       1.739   8.133  20.620  0.00  0.00    +0.000 A 
ATOM      7  C   UNL     1       1.024   8.716  21.671  0.00  0.00    +0.000 A 
ATOM      8  C   UNL     1       0.223   9.779  21.258  0.00  0.00    +0.000 A 
ATOM      9  N   UNL     1      -0.666  10.463  21.987  0.00  0.00    +0.000 NA
ATOM     10  O   UNL     1      -1.084  11.487  21.185  0.00  0.00    +0.000 OA
ATOM     11  C   UNL     1      -0.380  11.517  20.007  0.00  0.00    +0.000 A 
ATOM     12  C   UNL     1       0.273  10.302  19.902  0.00  0.00    +0.000 A 
ATOM     13  C   UNL     1       1.008   9.736  18.829  0.00  0.00    +0.000 A 
BRANCH  11  14
ATOM     14  C   UNL     1      -0.255  12.880  19.478  0.00  0.00    +0.000 A 
ATOM     15  C   UNL     1       0.904  13.303  18.828  0.00  0.00    +0.000 A 
ATOM     16  C   UNL     1       1.295  14.645  18.897  0.00  0.00    +0.000 A 
ATOM     17  C   UNL     1       0.511  15.578  19.576  0.00  0.00    +0.000 A 
ATOM     18  C   UNL     1      -0.728  15.204  20.078  0.00  0.00    +0.000 A 
ATOM     19  C   UNL     1      -1.131  13.872  19.987  0.00  0.00    +0.000 A 
ENDBRANCH  11  14
ENDBRANCH   2   5
BRANCH   3  20
ATOM     20  C   UNL     1       4.060   5.949  17.797  0.00  0.00    +0.000 A 
ATOM     21  C   UNL     1       4.937   6.474  16.827  0.00  0.00    +0.000 A 
ATOM     22  C   UNL     1       5.513   5.652  15.861  0.00  0.00    +0.000 A 
ATOM     23  C   UNL     1       5.240   4.292  15.880  0.00  0.00    +0.000 A 
ATOM     24  C   UNL     1       4.374   3.769  16.847  0.00  0.00    +0.000 A 
ATOM     25  C   UNL     1       3.743   4.572  17.812  0.00  0.00    +0.000 A 
BRANCH  25  26
ATOM     26  N   UNL     1       2.851   4.038  18.729  0.00  0.00    +0.000 N 
ATOM     27  C   UNL     1       3.096   4.121  20.174  0.00  0.00    +0.000 C 
ATOM     28  C   UNL     1       2.566   2.820  20.800  0.00  0.00    +0.000 C 
ATOM     29  O   UNL     1       1.172   2.602  20.498  0.00  0.00    +0.000 OA
ATOM     30  C   UNL     1       0.943   2.599  19.075  0.00  0.00    +0.000 C 
ATOM     31  C   UNL     1       1.412   3.917  18.431  0.00  0.00    +0.000 C 
ENDBRANCH  25  26
ENDBRANCH   3  20
TORSDOF 4
ENDMDL
MODEL 7
REMARK VINA RESULT:      -7.8      1.232      1.524
REMARK  Name = 
REMARK  4 active torsions:
REMARK  status: ('A' for Active; 'I' for Inactive)
REMARK    1  A    between atoms: C_2  and  C_16
REMARK    2  A    between atoms: N_3  and  C_4
REMARK    3  A    between atoms: C_9  and  N_10
REMARK    4  A    between atoms: C_22  and  C_23
REMARK                            x       y       z     vdW  Elec       q    Type
REMARK                         _______ _______ _______ _____ _____    ______ ____
ROOT
ATOM      1  O   UNL     1       1.312   6.671  21.102  0.00  0.00    +0.000 OA
ATOM      2  C   UNL     1       1.887   7.184  20.139  0.00  0.00    +0.000 C 
ATOM      3  N   UNL     1       2.807   6.495  19.367  0.00  0.00    +0.000 N 
ATOM      4  H   UNL     1       2.936   6.750  18.400  0.00  0.00    +0.000 HD
ENDROOT
BRANCH   2   5
ATOM      5  C   UNL     1       1.489   8.587  19.798  0.00  0.00    +0.000 A 
ATOM      6  C   UNL     1       1.798   8.898  18.427  0.00  0.00    +0.000 A 
ATOM      7  C   UNL     1       1.799  10.180  17.868  0.00  0.00    +0.000 A 
ATOM      8  C   UNL     1       1.468  11.173  18.788  0.00  0.00    +0.000 A 
ATOM      9  N   UNL     1       1.496  12.498  18.605  0.00  0.00    +0.000 NA
ATOM     10  O   UNL     1       0.953  13.033  19.738  0.00  0.00    +0.000 OA
ATOM     11  C   UNL     1       0.480  12.053  20.576  0.00  0.00    +0.000 A 
ATOM     12  C   UNL     1       1.019  10.858  20.134  0.00  0.00    +0.000 A 
ATOM     13  C   UNL     1       0.991   9.563  20.711  0.00  0.00    +0.000 A 
BRANCH  11  14
ATOM     14  C   UNL     1      -0.665  12.517  21.368  0.00  0.00    +0.000 A 
ATOM     15  C   UNL     1      -0.924  12.003  22.638  0.00  0.00    +0.000 A 
ATOM     16  C   UNL     1      -2.240  11.924  23.106  0.00  0.00    +0.000 A 
ATOM     17  C   UNL     1      -3.298  12.397  22.329  0.00  0.00    +0.000 A 
ATOM     18  C   UNL     1      -3.038  13.066  21.141  0.00  0.00    +0.000 A 
ATOM     19  C   UNL     1      -1.723  13.168  20.686  0.00  0.00    +0.000 A 
ENDBRANCH  11  14
ENDBRANCH   2   5
BRANCH   3  20
ATOM     20  C   UNL     1       3.082   5.130  19.678  0.00  0.00    +0.000 A 
ATOM     21  C   UNL     1       2.290   4.479  20.645  0.00  0.00    +0.000 A 
ATOM     22  C   UNL     1       2.556   3.165  21.023  0.00  0.00    +0.000 A 
ATOM     23  C   UNL     1       3.598   2.482  20.412  0.00  0.00    +0.000 A 
ATOM     24  C   UNL     1       4.381   3.127  19.447  0.00  0.00    +0.000 A 
ATOM     25  C   UNL     1       4.168   4.463  19.068  0.00  0.00    +0.000 A 
BRANCH  25  26
ATOM     26  N   UNL     1       4.988   5.094  18.146  0.00  0.00    +0.000 N 
ATOM     27  C   UNL     1       6.417   5.306  18.410  0.00  0.00    +0.000 C 
ATOM     28  C   UNL     1       6.798   6.659  17.786  0.00  0.00    +0.000 C 
ATOM     29  O   UNL     1       6.493   6.710  16.377  0.00  0.00    +0.000 OA
ATOM     30  C   UNL     1       5.102   6.425  16.135  0.00  0.00    +0.000 C 
ATOM     31  C   UNL     1       4.708   5.048  16.700  0.00  0.00    +0.000 C 
ENDBRANCH  25  26
ENDBRANCH   3  20
TORSDOF 4
ENDMDL
MODEL 8
REMARK VINA RESULT:      -7.8      2.239      8.368
REMARK  Name = 
REMARK  4 active torsions:
REMARK  status: ('A' for Active; 'I' for Inactive)
REMARK    1  A    between atoms: C_2  and  C_16
REMARK    2  A    between atoms: N_3  and  C_4
REMARK    3  A    between atoms: C_9  and  N_10
REMARK    4  A    between atoms: C_22  and  C_23
REMARK                            x       y       z     vdW  Elec       q    Type
REMARK                         _______ _______ _______ _____ _____    ______ ____
ROOT
ATOM      1  O   UNL     1      -0.189   6.858  20.872  0.00  0.00    +0.000 OA
ATOM      2  C   UNL     1       1.032   7.028  20.816  0.00  0.00    +0.000 C 
ATOM      3  N   UNL     1       1.638   8.214  21.194  0.00  0.00    +0.000 N 
ATOM      4  H   UNL     1       2.587   8.202  21.535  0.00  0.00    +0.000 HD
ENDROOT
BRANCH   2   5
ATOM      5  C   UNL     1       1.847   5.851  20.374  0.00  0.00    +0.000 A 
ATOM      6  C   UNL     1       1.198   4.611  20.713  0.00  0.00    +0.000 A 
ATOM      7  C   UNL     1       1.799   3.349  20.680  0.00  0.00    +0.000 A 
ATOM      8  C   UNL     1       3.134   3.394  20.282  0.00  0.00    +0.000 A 
ATOM      9  N   UNL     1       4.014   2.387  20.263  0.00  0.00    +0.000 NA
ATOM     10  O   UNL     1       5.132   2.893  19.664  0.00  0.00    +0.000 OA
ATOM     11  C   UNL     1       4.919   4.169  19.204  0.00  0.00    +0.000 A 
ATOM     12  C   UNL     1       3.755   4.618  19.803  0.00  0.00    +0.000 A 
ATOM     13  C   UNL     1       3.155   5.902  19.810  0.00  0.00    +0.000 A 
BRANCH  11  14
ATOM     14  C   UNL     1       5.729   4.466  18.017  0.00  0.00    +0.000 A 
ATOM     15  C   UNL     1       6.763   5.400  18.060  0.00  0.00    +0.000 A 
ATOM     16  C   UNL     1       7.090   6.136  16.916  0.00  0.00    +0.000 A 
ATOM     17  C   UNL     1       6.417   5.913  15.714  0.00  0.00    +0.000 A 
ATOM     18  C   UNL     1       5.508   4.869  15.615  0.00  0.00    +0.000 A 
ATOM     19  C   UNL     1       5.201   4.117  16.749  0.00  0.00    +0.000 A 
ENDBRANCH  11  14
ENDBRANCH   2   5
BRANCH   3  20
ATOM     20  C   UNL     1       0.825   9.274  21.695  0.00  0.00    +0.000 A 
ATOM     21  C   UNL     1       0.261   9.150  22.980  0.00  0.00    +0.000 A 
ATOM     22  C   UNL     1      -0.585  10.131  23.491  0.00  0.00    +0.000 A 
ATOM     23  C   UNL     1      -0.847  11.261  22.729  0.00  0.00    +0.000 A 
ATOM     24  C   UNL     1      -0.283  11.388  21.454  0.00  0.00    +0.000 A 
ATOM     25  C   UNL     1       0.544  10.401  20.891  0.00  0.00    +0.000 A 
BRANCH  25  26
ATOM     26  N   UNL     1       1.051  10.528  19.607  0.00  0.00    +0.000 N 
ATOM     27  C   UNL     1       0.827   9.494  18.589  0.00  0.00    +0.000 C 
ATOM     28  C   UNL     1       2.099   9.421  17.728  0.00  0.00    +0.000 C 
ATOM     29  O   UNL     1       2.430  10.697  17.142  0.00  0.00    +0.000 OA
ATOM     30  C   UNL     1       2.572  11.713  18.154  0.00  0.00    +0.000 C 
ATOM     31  C   UNL     1       1.288  11.847  18.993  0.00  0.00    +0.000 C 
ENDBRANCH  25  26
ENDBRANCH   3  20
TORSDOF 4
ENDMDL
MODEL 9
REMARK VINA RESULT:      -7.8      2.165      3.962
REMARK  Name = 
REMARK  4 active torsions:
REMARK  status: ('A' for Active; 'I' for Inactive)
REMARK    1  A    between atoms: C_2  and  C_16
REMARK    2  A    between atoms: N_3  and  C_4
REMARK    3  A    between atoms: C_9  and  N_10
REMARK    4  A    between atoms: C_22  and  C_23
REMARK                            x       y       z     vdW  Elec       q    Type
REMARK                         _______ _______ _______ _____ _____    ______ ____
ROOT
ATOM      1  O   UNL     1       2.145   8.313  17.201  0.00  0.00    +0.000 OA
ATOM      2  C   UNL     1       2.247   8.009  18.392  0.00  0.00    +0.000 C 
ATOM      3  N   UNL     1       3.018   6.944  18.826  0.00  0.00    +0.000 N 
ATOM      4  H   UNL     1       3.419   6.964  19.751  0.00  0.00    +0.000 HD
ENDROOT
BRANCH   2   5
ATOM      5  C   UNL     1       1.540   8.899  19.368  0.00  0.00    +0.000 A 
ATOM      6  C   UNL     1       1.700   8.424  20.717  0.00  0.00    +0.000 A 
ATOM      7  C   UNL     1       0.964   8.863  21.822  0.00  0.00    +0.000 A 
ATOM      8  C   UNL     1       0.020   9.834  21.494  0.00  0.00    +0.000 A 
ATOM      9  N   UNL     1      -0.915  10.366  22.289  0.00  0.00    +0.000 NA
ATOM     10  O   UNL     1      -1.490  11.364  21.557  0.00  0.00    +0.000 OA
ATOM     11  C   UNL     1      -0.847  11.538  20.356  0.00  0.00    +0.000 A 
ATOM     12  C   UNL     1      -0.053  10.421  20.166  0.00  0.00    +0.000 A 
ATOM     13  C   UNL     1       0.700  10.003  19.039  0.00  0.00    +0.000 A 
BRANCH  11  14
ATOM     14  C   UNL     1      -0.916  12.928  19.894  0.00  0.00    +0.000 A 
ATOM     15  C   UNL     1       0.159  13.529  19.238  0.00  0.00    +0.000 A 
ATOM     16  C   UNL     1       0.375  14.906  19.365  0.00  0.00    +0.000 A 
ATOM     17  C   UNL     1      -0.502  15.695  20.109  0.00  0.00    +0.000 A 
ATOM     18  C   UNL     1      -1.667  15.140  20.620  0.00  0.00    +0.000 A 
ATOM     19  C   UNL     1      -1.897  13.772  20.472  0.00  0.00    +0.000 A 
ENDBRANCH  11  14
ENDBRANCH   2   5
BRANCH   3  20
ATOM     20  C   UNL     1       3.746   6.183  17.864  0.00  0.00    +0.000 A 
ATOM     21  C   UNL     1       4.553   6.862  16.929  0.00  0.00    +0.000 A 
ATOM     22  C   UNL     1       5.239   6.168  15.935  0.00  0.00    +0.000 A 
ATOM     23  C   UNL     1       5.146   4.784  15.889  0.00  0.00    +0.000 A 
ATOM     24  C   UNL     1       4.349   4.108  16.821  0.00  0.00    +0.000 A 
ATOM     25  C   UNL     1       3.612   4.777  17.813  0.00  0.00    +0.000 A 
BRANCH  25  26
ATOM     26  N   UNL     1       2.792   4.090  18.694  0.00  0.00    +0.000 N 
ATOM     27  C   UNL     1       2.068   2.881  18.282  0.00  0.00    +0.000 C 
ATOM     28  C   UNL     1       0.712   2.895  19.007  0.00  0.00    +0.000 C 
ATOM     29  O   UNL     1       0.865   2.973  20.439  0.00  0.00    +0.000 OA
ATOM     30  C   UNL     1       1.642   4.126  20.817  0.00  0.00    +0.000 C 
ATOM     31  C   UNL     1       3.030   4.107  20.149  0.00  0.00    +0.000 C 
ENDBRANCH  25  26
ENDBRANCH   3  20
TORSDOF 4
ENDMDL
