MODEL 1
REMARK VINA RESULT:     -10.0      0.000      0.000
REMARK  Name = 
REMARK  4 active torsions:
REMARK  status: ('A' for Active; 'I' for Inactive)
REMARK    1  A    between atoms: C_2  and  C_16
REMARK    2  A    between atoms: N_3  and  C_4
REMARK    3  A    between atoms: C_9  and  N_10
REMARK    4  A    between atoms: C_20  and  N_21
REMARK                            x       y       z     vdW  Elec       q    Type
REMARK                         _______ _______ _______ _____ _____    ______ ____
ROOT
ATOM      1  C   UNL     1       1.545   8.713  19.182  0.00  0.00    +0.000 A 
ATOM      2  C   UNL     1       1.488   8.305  20.518  0.00  0.00    +0.000 A 
ATOM      3  C   UNL     1       0.514   8.835  21.364  0.00  0.00    +0.000 A 
ATOM      4  C   UNL     1      -0.367   9.815  20.897  0.00  0.00    +0.000 A 
ATOM      5  C   UNL     1      -0.245  10.318  19.598  0.00  0.00    +0.000 A 
ATOM      6  C   UNL     1       0.685   9.712  18.734  0.00  0.00    +0.000 A 
ENDROOT
BRANCH   5   7
ATOM      7  N   UNL     1      -1.128  11.301  19.082  0.00  0.00    +0.000 N 
ATOM      8  C   UNL     1      -1.530  12.394  19.807  0.00  0.00    +0.000 C 
ATOM      9  O   UNL     1      -0.936  13.127  20.576  0.00  0.00    +0.000 OA
ATOM     10  C   UNL     1      -2.965  12.493  19.558  0.00  0.00    +0.000 A 
ATOM     11  C   UNL     1      -3.928  12.882  20.465  0.00  0.00    +0.000 A 
ATOM     12  C   UNL     1      -5.223  12.401  20.251  0.00  0.00    +0.000 A 
ATOM     13  C   UNL     1      -5.533  11.606  19.128  0.00  0.00    +0.000 A 
ATOM     14  C   UNL     1      -4.544  11.246  18.209  0.00  0.00    +0.000 A 
ATOM     15  C   UNL     1      -3.264  11.685  18.480  0.00  0.00    +0.000 A 
ATOM     16  C   UNL     1      -2.029  11.031  18.077  0.00  0.00    +0.000 C 
ATOM     17  O   UNL     1      -1.927  10.334  17.083  0.00  0.00    +0.000 OA
ENDBRANCH   5   7
BRANCH   1  19
ATOM     18  O   UNL     1       2.560   8.447  17.087  0.00  0.00    +0.000 OA
ATOM     19  C   UNL     1       2.432   8.006  18.226  0.00  0.00    +0.000 C 
ATOM     20  N   UNL     1       3.043   6.850  18.705  0.00  0.00    +0.000 N 
ATOM     21  H   UNL     1       2.567   6.362  19.455  0.00  0.00    +0.000 HD
BRANCH  20  22
ATOM     22  C   UNL     1       3.796   6.049  17.828  0.00  0.00    +0.000 A 
ATOM     23  C   UNL     1       4.629   6.702  16.914  0.00  0.00    +0.000 A 
ATOM     24  C   UNL     1       5.505   5.954  16.120  0.00  0.00    +0.000 A 
ATOM     25  C   UNL     1       5.547   4.570  16.243  0.00  0.00    +0.000 A 
ATOM     26  C   UNL     1       4.707   3.916  17.143  0.00  0.00    +0.000 A 
ATOM     27  C   UNL     1       3.799   4.644  17.916  0.00  0.00    +0.000 A 
BRANCH  27  28
ATOM     28  N   UNL     1       2.812   3.944  18.644  0.00  0.00    +0.000 N 
ATOM     29  C   UNL     1       3.028   3.465  19.982  0.00  0.00    +0.000 C 
ATOM     30  C   UNL     1       1.894   2.485  20.201  0.00  0.00    +0.000 C 
ATOM     31  C   UNL     1       0.769   3.016  19.323  0.00  0.00    +0.000 C 
ATOM     32  C   UNL     1       1.491   3.759  18.227  0.00  0.00    +0.000 C 
ATOM     33  O   UNL     1       0.963   4.087  17.175  0.00  0.00    +0.000 OA
ENDBRANCH  27  28
ENDBRANCH  20  22
ENDBRANCH   1  19
TORSDOF 4
ENDMDL
MODEL 2
REMARK VINA RESULT:     -10.0      0.954      1.221
REMARK  Name = 
REMARK  4 active torsions:
REMARK  status: ('A' for Active; 'I' for Inactive)
REMARK    1  A    between atoms: C_2  and  C_16
REMARK    2  A    between atoms: N_3  and  C_4
REMARK    3  A    between atoms: C_9  and  N_10
REMARK    4  A    between atoms: C_20  and  N_21
REMARK                            x       y       z     vdW  Elec       q    Type
REMARK                         _______ _______ _______ _____ _____    ______ ____
ROOT
ATOM      1  C   UNL     1       1.764   8.425  19.443  0.00  0.00    +0.000 A 
ATOM      2  C   UNL     1       1.579   7.713  20.632  0.00  0.00    +0.000 A 
ATOM      3  C   UNL     1       0.713   8.206  21.608  0.00  0.00    +0.000 A 
ATOM      4  C   UNL     1       0.074   9.436  21.426  0.00  0.00    +0.000 A 
ATOM      5  C   UNL     1       0.341  10.215  20.296  0.00  0.00    +0.000 A 
ATOM      6  C   UNL     1       1.148   9.665  19.285  0.00  0.00    +0.000 A 
ENDROOT
BRANCH   5   7
ATOM      7  N   UNL     1      -0.298  11.461  20.068  0.00  0.00    +0.000 N 
ATOM      8  C   UNL     1      -0.280  12.484  20.982  0.00  0.00    +0.000 C 
ATOM      9  O   UNL     1       0.591  12.904  21.720  0.00  0.00    +0.000 OA
ATOM     10  C   UNL     1      -1.652  12.983  21.002  0.00  0.00    +0.000 A 
ATOM     11  C   UNL     1      -2.338  13.446  22.104  0.00  0.00    +0.000 A 
ATOM     12  C   UNL     1      -3.732  13.351  22.062  0.00  0.00    +0.000 A 
ATOM     13  C   UNL     1      -4.399  12.858  20.921  0.00  0.00    +0.000 A 
ATOM     14  C   UNL     1      -3.681  12.417  19.806  0.00  0.00    +0.000 A 
ATOM     15  C   UNL     1      -2.306  12.467  19.901  0.00  0.00    +0.000 A 
ATOM     16  C   UNL     1      -1.366  11.598  19.210  0.00  0.00    +0.000 C 
ATOM     17  O   UNL     1      -1.595  11.074  18.135  0.00  0.00    +0.000 OA
ENDBRANCH   5   7
BRANCH   1  19
ATOM     18  O   UNL     1       2.403   8.292  17.193  0.00  0.00    +0.000 OA
ATOM     19  C   UNL     1       2.512   7.813  18.318  0.00  0.00    +0.000 C 
ATOM     20  N   UNL     1       3.276   6.693  18.635  0.00  0.00    +0.000 N 
ATOM     21  H   UNL     1       2.977   6.151  19.438  0.00  0.00    +0.000 HD
BRANCH  20  22
ATOM     22  C   UNL     1       3.913   5.974  17.609  0.00  0.00    +0.000 A 
ATOM     23  C   UNL     1       4.673   6.702  16.687  0.00  0.00    +0.000 A 
ATOM     24  C   UNL     1       5.443   6.025  15.736  0.00  0.00    +0.000 A 
ATOM     25  C   UNL     1       5.452   4.635  15.709  0.00  0.00    +0.000 A 
ATOM     26  C   UNL     1       4.684   3.907  16.617  0.00  0.00    +0.000 A 
ATOM     27  C   UNL     1       3.880   4.568  17.550  0.00  0.00    +0.000 A 
BRANCH  27  28
ATOM     28  N   UNL     1       2.947   3.816  18.296  0.00  0.00    +0.000 N 
ATOM     29  C   UNL     1       3.294   3.144  19.519  0.00  0.00    +0.000 C 
ATOM     30  C   UNL     1       2.137   2.192  19.747  0.00  0.00    +0.000 C 
ATOM     31  C   UNL     1       0.948   2.891  19.099  0.00  0.00    +0.000 C 
ATOM     32  C   UNL     1       1.577   3.749  18.030  0.00  0.00    +0.000 C 
ATOM     33  O   UNL     1       0.947   4.245  17.109  0.00  0.00    +0.000 OA
ENDBRANCH  27  28
ENDBRANCH  20  22
ENDBRANCH   1  19
TORSDOF 4
ENDMDL
MODEL 3
REMARK VINA RESULT:      -9.9      0.890      1.125
REMARK  Name = 
REMARK  4 active torsions:
REMARK  status: ('A' for Active; 'I' for Inactive)
REMARK    1  A    between atoms: C_2  and  C_16
REMARK    2  A    between atoms: N_3  and  C_4
REMARK    3  A    between atoms: C_9  and  N_10
REMARK    4  A    between atoms: C_20  and  N_21
REMARK                            x       y       z     vdW  Elec       q    Type
REMARK                         _______ _______ _______ _____ _____    ______ ____
ROOT
ATOM      1  C   UNL     1       1.705   8.513  19.190  0.00  0.00    +0.000 A 
ATOM      2  C   UNL     1       1.587   7.998  20.484  0.00  0.00    +0.000 A 
ATOM      3  C   UNL     1       0.619   8.512  21.349  0.00  0.00    +0.000 A 
ATOM      4  C   UNL     1      -0.191   9.577  20.945  0.00  0.00    +0.000 A 
ATOM      5  C   UNL     1      -0.004  10.179  19.698  0.00  0.00    +0.000 A 
ATOM      6  C   UNL     1       0.915   9.595  18.808  0.00  0.00    +0.000 A 
ENDROOT
BRANCH   5   7
ATOM      7  N   UNL     1      -0.815  11.252  19.245  0.00  0.00    +0.000 N 
ATOM      8  C   UNL     1      -1.103  12.346  20.022  0.00  0.00    +0.000 C 
ATOM      9  O   UNL     1      -0.427  12.996  20.798  0.00  0.00    +0.000 OA
ATOM     10  C   UNL     1      -2.531  12.573  19.823  0.00  0.00    +0.000 A 
ATOM     11  C   UNL     1      -3.431  13.005  20.773  0.00  0.00    +0.000 A 
ATOM     12  C   UNL     1      -4.767  12.643  20.584  0.00  0.00    +0.000 A 
ATOM     13  C   UNL     1      -5.175  11.920  19.443  0.00  0.00    +0.000 A 
ATOM     14  C   UNL     1      -4.247  11.514  18.481  0.00  0.00    +0.000 A 
ATOM     15  C   UNL     1      -2.928  11.835  18.726  0.00  0.00    +0.000 A 
ATOM     16  C   UNL     1      -1.764  11.096  18.261  0.00  0.00    +0.000 C 
ATOM     17  O   UNL     1      -1.750  10.432  17.239  0.00  0.00    +0.000 OA
ENDBRANCH   5   7
BRANCH   1  19
ATOM     18  O   UNL     1       2.697   8.321  17.076  0.00  0.00    +0.000 OA
ATOM     19  C   UNL     1       2.579   7.839  18.199  0.00  0.00    +0.000 C 
ATOM     20  N   UNL     1       3.189   6.663  18.628  0.00  0.00    +0.000 N 
ATOM     21  H   UNL     1       2.719   6.150  19.365  0.00  0.00    +0.000 HD
BRANCH  20  22
ATOM     22  C   UNL     1       3.929   5.891  17.715  0.00  0.00    +0.000 A 
ATOM     23  C   UNL     1       4.777   6.572  16.834  0.00  0.00    +0.000 A 
ATOM     24  C   UNL     1       5.641   5.848  16.006  0.00  0.00    +0.000 A 
ATOM     25  C   UNL     1       5.656   4.460  16.061  0.00  0.00    +0.000 A 
ATOM     26  C   UNL     1       4.802   3.778  16.927  0.00  0.00    +0.000 A 
ATOM     27  C   UNL     1       3.906   4.484  17.734  0.00  0.00    +0.000 A 
BRANCH  27  28
ATOM     28  N   UNL     1       2.904   3.768  18.425  0.00  0.00    +0.000 N 
ATOM     29  C   UNL     1       1.533   3.741  17.995  0.00  0.00    +0.000 C 
ATOM     30  C   UNL     1       0.789   3.199  19.199  0.00  0.00    +0.000 C 
ATOM     31  C   UNL     1       1.809   2.306  19.894  0.00  0.00    +0.000 C 
ATOM     32  C   UNL     1       3.136   2.904  19.498  0.00  0.00    +0.000 C 
ATOM     33  O   UNL     1       4.185   2.652  20.072  0.00  0.00    +0.000 OA
ENDBRANCH  27  28
ENDBRANCH  20  22
ENDBRANCH   1  19
TORSDOF 4
ENDMDL
MODEL 4
REMARK VINA RESULT:      -9.8      2.465      4.649
REMARK  Name = 
REMARK  4 active torsions:
REMARK  status: ('A' for Active; 'I' for Inactive)
REMARK    1  A    between atoms: C_2  and  C_16
REMARK    2  A    between atoms: N_3  and  C_4
REMARK    3  A    between atoms: C_9  and  N_10
REMARK    4  A    between atoms: C_20  and  N_21
REMARK                            x       y       z     vdW  Elec       q    Type
REMARK                         _______ _______ _______ _____ _____    ______ ____
ROOT
ATOM      1  C   UNL     1       3.139   5.047  18.818  0.00  0.00    +0.000 A 
ATOM      2  C   UNL     1       2.400   4.210  19.659  0.00  0.00    +0.000 A 
ATOM      3  C   UNL     1       1.430   4.754  20.501  0.00  0.00    +0.000 A 
ATOM      4  C   UNL     1       1.235   6.137  20.550  0.00  0.00    +0.000 A 
ATOM      5  C   UNL     1       2.048   6.995  19.803  0.00  0.00    +0.000 A 
ATOM      6  C   UNL     1       2.961   6.426  18.897  0.00  0.00    +0.000 A 
ENDROOT
BRANCH   5   7
ATOM      7  N   UNL     1       1.873   8.403  19.813  0.00  0.00    +0.000 N 
ATOM      8  C   UNL     1       1.415   9.088  20.910  0.00  0.00    +0.000 C 
ATOM      9  O   UNL     1       1.636   8.963  22.100  0.00  0.00    +0.000 OA
ATOM     10  C   UNL     1       0.438  10.030  20.374  0.00  0.00    +0.000 A 
ATOM     11  C   UNL     1      -0.738  10.422  20.978  0.00  0.00    +0.000 A 
ATOM     12  C   UNL     1      -1.764  10.855  20.134  0.00  0.00    +0.000 A 
ATOM     13  C   UNL     1      -1.578  10.940  18.738  0.00  0.00    +0.000 A 
ATOM     14  C   UNL     1      -0.368  10.560  18.152  0.00  0.00    +0.000 A 
ATOM     15  C   UNL     1       0.605  10.080  19.005  0.00  0.00    +0.000 A 
ATOM     16  C   UNL     1       1.651   9.129  18.664  0.00  0.00    +0.000 C 
ATOM     17  O   UNL     1       2.117   9.009  17.545  0.00  0.00    +0.000 OA
ENDBRANCH   5   7
BRANCH   1  19
ATOM     18  O   UNL     1       4.423   3.313  17.904  0.00  0.00    +0.000 OA
ATOM     19  C   UNL     1       4.018   4.465  17.774  0.00  0.00    +0.000 C 
ATOM     20  N   UNL     1       4.345   5.309  16.716  0.00  0.00    +0.000 N 
ATOM     21  H   UNL     1       4.324   6.304  16.906  0.00  0.00    +0.000 HD
BRANCH  20  22
ATOM     22  C   UNL     1       5.275   4.884  15.751  0.00  0.00    +0.000 A 
ATOM     23  C   UNL     1       4.775   4.238  14.615  0.00  0.00    +0.000 A 
ATOM     24  C   UNL     1       5.639   3.925  13.560  0.00  0.00    +0.000 A 
ATOM     25  C   UNL     1       6.986   4.256  13.643  0.00  0.00    +0.000 A 
ATOM     26  C   UNL     1       7.490   4.887  14.780  0.00  0.00    +0.000 A 
ATOM     27  C   UNL     1       6.648   5.172  15.859  0.00  0.00    +0.000 A 
BRANCH  27  28
ATOM     28  N   UNL     1       7.224   5.598  17.076  0.00  0.00    +0.000 N 
ATOM     29  C   UNL     1       7.762   4.679  18.042  0.00  0.00    +0.000 C 
ATOM     30  C   UNL     1       7.906   5.520  19.295  0.00  0.00    +0.000 C 
ATOM     31  C   UNL     1       8.144   6.930  18.771  0.00  0.00    +0.000 C 
ATOM     32  C   UNL     1       7.469   6.929  17.422  0.00  0.00    +0.000 C 
ATOM     33  O   UNL     1       7.190   7.948  16.809  0.00  0.00    +0.000 OA
ENDBRANCH  27  28
ENDBRANCH  20  22
ENDBRANCH   1  19
TORSDOF 4
ENDMDL
MODEL 5
REMARK VINA RESULT:      -9.6      1.645      2.179
REMARK  Name = 
REMARK  4 active torsions:
REMARK  status: ('A' for Active; 'I' for Inactive)
REMARK    1  A    between atoms: C_2  and  C_16
REMARK    2  A    between atoms: N_3  and  C_4
REMARK    3  A    between atoms: C_9  and  N_10
REMARK    4  A    between atoms: C_20  and  N_21
REMARK                            x       y       z     vdW  Elec       q    Type
REMARK                         _______ _______ _______ _____ _____    ______ ____
ROOT
ATOM      1  C   UNL     1       1.870   8.364  19.479  0.00  0.00    +0.000 A 
ATOM      2  C   UNL     1       1.652   7.595  20.627  0.00  0.00    +0.000 A 
ATOM      3  C   UNL     1       0.829   8.082  21.642  0.00  0.00    +0.000 A 
ATOM      4  C   UNL     1       0.268   9.358  21.543  0.00  0.00    +0.000 A 
ATOM      5  C   UNL     1       0.572  10.185  20.457  0.00  0.00    +0.000 A 
ATOM      6  C   UNL     1       1.333   9.648  19.404  0.00  0.00    +0.000 A 
ENDROOT
BRANCH   5   7
ATOM      7  N   UNL     1       0.012  11.481  20.312  0.00  0.00    +0.000 N 
ATOM      8  C   UNL     1       0.459  12.568  21.019  0.00  0.00    +0.000 C 
ATOM      9  O   UNL     1       1.576  12.931  21.337  0.00  0.00    +0.000 OA
ATOM     10  C   UNL     1      -0.756  13.245  21.462  0.00  0.00    +0.000 A 
ATOM     11  C   UNL     1      -0.941  13.889  22.666  0.00  0.00    +0.000 A 
ATOM     12  C   UNL     1      -2.254  13.977  23.137  0.00  0.00    +0.000 A 
ATOM     13  C   UNL     1      -3.337  13.480  22.383  0.00  0.00    +0.000 A 
ATOM     14  C   UNL     1      -3.126  12.852  21.153  0.00  0.00    +0.000 A 
ATOM     15  C   UNL     1      -1.815  12.727  20.743  0.00  0.00    +0.000 A 
ATOM     16  C   UNL     1      -1.280  11.684  19.882  0.00  0.00    +0.000 C 
ATOM     17  O   UNL     1      -1.938  11.102  19.037  0.00  0.00    +0.000 OA
ENDBRANCH   5   7
BRANCH   1  19
ATOM     18  O   UNL     1       2.366   8.244  17.193  0.00  0.00    +0.000 OA
ATOM     19  C   UNL     1       2.566   7.775  18.310  0.00  0.00    +0.000 C 
ATOM     20  N   UNL     1       3.391   6.686  18.580  0.00  0.00    +0.000 N 
ATOM     21  H   UNL     1       3.165   6.138  19.402  0.00  0.00    +0.000 HD
BRANCH  20  22
ATOM     22  C   UNL     1       3.987   5.987  17.516  0.00  0.00    +0.000 A 
ATOM     23  C   UNL     1       4.744   6.727  16.601  0.00  0.00    +0.000 A 
ATOM     24  C   UNL     1       5.475   6.063  15.610  0.00  0.00    +0.000 A 
ATOM     25  C   UNL     1       5.449   4.675  15.538  0.00  0.00    +0.000 A 
ATOM     26  C   UNL     1       4.684   3.936  16.440  0.00  0.00    +0.000 A 
ATOM     27  C   UNL     1       3.917   4.585  17.412  0.00  0.00    +0.000 A 
BRANCH  27  28
ATOM     28  N   UNL     1       2.984   3.831  18.155  0.00  0.00    +0.000 N 
ATOM     29  C   UNL     1       1.588   3.773  17.818  0.00  0.00    +0.000 C 
ATOM     30  C   UNL     1       0.942   3.191  19.059  0.00  0.00    +0.000 C 
ATOM     31  C   UNL     1       2.029   2.316  19.669  0.00  0.00    +0.000 C 
ATOM     32  C   UNL     1       3.310   2.956  19.195  0.00  0.00    +0.000 C 
ATOM     33  O   UNL     1       4.401   2.724  19.694  0.00  0.00    +0.000 OA
ENDBRANCH  27  28
ENDBRANCH  20  22
ENDBRANCH   1  19
TORSDOF 4
ENDMDL
MODEL 6
REMARK VINA RESULT:      -9.6      2.588      4.555
REMARK  Name = 
REMARK  4 active torsions:
REMARK  status: ('A' for Active; 'I' for Inactive)
REMARK    1  A    between atoms: C_2  and  C_16
REMARK    2  A    between atoms: N_3  and  C_4
REMARK    3  A    between atoms: C_9  and  N_10
REMARK    4  A    between atoms: C_20  and  N_21
REMARK                            x       y       z     vdW  Elec       q    Type
REMARK                         _______ _______ _______ _____ _____    ______ ____
ROOT
ATOM      1  C   UNL     1       3.143   5.398  18.990  0.00  0.00    +0.000 A 
ATOM      2  C   UNL     1       2.434   4.596  19.890  0.00  0.00    +0.000 A 
ATOM      3  C   UNL     1       1.463   5.169  20.713  0.00  0.00    +0.000 A 
ATOM      4  C   UNL     1       1.239   6.548  20.683  0.00  0.00    +0.000 A 
ATOM      5  C   UNL     1       2.023   7.378  19.875  0.00  0.00    +0.000 A 
ATOM      6  C   UNL     1       2.935   6.776  18.990  0.00  0.00    +0.000 A 
ENDROOT
BRANCH   5   7
ATOM      7  N   UNL     1       1.817   8.780  19.805  0.00  0.00    +0.000 N 
ATOM      8  C   UNL     1       1.411   9.527  20.881  0.00  0.00    +0.000 C 
ATOM      9  O   UNL     1       1.707   9.485  22.061  0.00  0.00    +0.000 OA
ATOM     10  C   UNL     1       0.381  10.413  20.348  0.00  0.00    +0.000 A 
ATOM     11  C   UNL     1      -0.764  10.822  20.997  0.00  0.00    +0.000 A 
ATOM     12  C   UNL     1      -1.849  11.179  20.193  0.00  0.00    +0.000 A 
ATOM     13  C   UNL     1      -1.750  11.175  18.785  0.00  0.00    +0.000 A 
ATOM     14  C   UNL     1      -0.570  10.780  18.150  0.00  0.00    +0.000 A 
ATOM     15  C   UNL     1       0.463  10.375  18.970  0.00  0.00    +0.000 A 
ATOM     16  C   UNL     1       1.508   9.424  18.627  0.00  0.00    +0.000 C 
ATOM     17  O   UNL     1       1.908   9.239  17.492  0.00  0.00    +0.000 OA
ENDBRANCH   5   7
BRANCH   1  19
ATOM     18  O   UNL     1       4.461   3.645  18.166  0.00  0.00    +0.000 OA
ATOM     19  C   UNL     1       4.020   4.774  17.970  0.00  0.00    +0.000 C 
ATOM     20  N   UNL     1       4.304   5.556  16.853  0.00  0.00    +0.000 N 
ATOM     21  H   UNL     1       4.257   6.561  16.978  0.00  0.00    +0.000 HD
BRANCH  20  22
ATOM     22  C   UNL     1       5.229   5.095  15.900  0.00  0.00    +0.000 A 
ATOM     23  C   UNL     1       4.744   4.273  14.876  0.00  0.00    +0.000 A 
ATOM     24  C   UNL     1       5.589   3.906  13.825  0.00  0.00    +0.000 A 
ATOM     25  C   UNL     1       6.904   4.359  13.798  0.00  0.00    +0.000 A 
ATOM     26  C   UNL     1       7.394   5.166  14.824  0.00  0.00    +0.000 A 
ATOM     27  C   UNL     1       6.573   5.510  15.902  0.00  0.00    +0.000 A 
BRANCH  27  28
ATOM     28  N   UNL     1       7.157   6.131  17.028  0.00  0.00    +0.000 N 
ATOM     29  C   UNL     1       7.157   7.557  17.215  0.00  0.00    +0.000 C 
ATOM     30  C   UNL     1       8.185   7.775  18.307  0.00  0.00    +0.000 C 
ATOM     31  C   UNL     1       8.132   6.494  19.128  0.00  0.00    +0.000 C 
ATOM     32  C   UNL     1       7.664   5.455  18.140  0.00  0.00    +0.000 C 
ATOM     33  O   UNL     1       7.764   4.252  18.331  0.00  0.00    +0.000 OA
ENDBRANCH  27  28
ENDBRANCH  20  22
ENDBRANCH   1  19
TORSDOF 4
ENDMDL
MODEL 7
REMARK VINA RESULT:      -9.6      1.578      2.115
REMARK  Name = 
REMARK  4 active torsions:
REMARK  status: ('A' for Active; 'I' for Inactive)
REMARK    1  A    between atoms: C_2  and  C_16
REMARK    2  A    between atoms: N_3  and  C_4
REMARK    3  A    between atoms: C_9  and  N_10
REMARK    4  A    between atoms: C_20  and  N_21
REMARK                            x       y       z     vdW  Elec       q    Type
REMARK                         _______ _______ _______ _____ _____    ______ ____
ROOT
ATOM      1  C   UNL     1       1.745   8.323  19.560  0.00  0.00    +0.000 A 
ATOM      2  C   UNL     1       1.473   7.672  20.767  0.00  0.00    +0.000 A 
ATOM      3  C   UNL     1       0.751   8.330  21.762  0.00  0.00    +0.000 A 
ATOM      4  C   UNL     1       0.349   9.657  21.581  0.00  0.00    +0.000 A 
ATOM      5  C   UNL     1       0.717  10.358  20.428  0.00  0.00    +0.000 A 
ATOM      6  C   UNL     1       1.369   9.654  19.400  0.00  0.00    +0.000 A 
ENDROOT
BRANCH   5   7
ATOM      7  N   UNL     1       0.316  11.700  20.199  0.00  0.00    +0.000 N 
ATOM      8  C   UNL     1       0.900  12.769  20.830  0.00  0.00    +0.000 C 
ATOM      9  O   UNL     1       2.057  13.013  21.119  0.00  0.00    +0.000 OA
ATOM     10  C   UNL     1      -0.218  13.616  21.231  0.00  0.00    +0.000 A 
ATOM     11  C   UNL     1      -0.310  14.356  22.391  0.00  0.00    +0.000 A 
ATOM     12  C   UNL     1      -1.596  14.635  22.859  0.00  0.00    +0.000 A 
ATOM     13  C   UNL     1      -2.741  14.224  22.143  0.00  0.00    +0.000 A 
ATOM     14  C   UNL     1      -2.622  13.496  20.957  0.00  0.00    +0.000 A 
ATOM     15  C   UNL     1      -1.340  13.185  20.552  0.00  0.00    +0.000 A 
ATOM     16  C   UNL     1      -0.947  12.030  19.761  0.00  0.00    +0.000 C 
ATOM     17  O   UNL     1      -1.680  11.479  18.959  0.00  0.00    +0.000 OA
ENDBRANCH   5   7
BRANCH   1  19
ATOM     18  O   UNL     1       1.754   7.592  17.334  0.00  0.00    +0.000 OA
ATOM     19  C   UNL     1       2.323   7.567  18.422  0.00  0.00    +0.000 C 
ATOM     20  N   UNL     1       3.482   6.847  18.697  0.00  0.00    +0.000 N 
ATOM     21  H   UNL     1       3.619   6.556  19.659  0.00  0.00    +0.000 HD
BRANCH  20  22
ATOM     22  C   UNL     1       4.024   6.001  17.714  0.00  0.00    +0.000 A 
ATOM     23  C   UNL     1       4.794   6.593  16.707  0.00  0.00    +0.000 A 
ATOM     24  C   UNL     1       5.474   5.786  15.790  0.00  0.00    +0.000 A 
ATOM     25  C   UNL     1       5.384   4.401  15.881  0.00  0.00    +0.000 A 
ATOM     26  C   UNL     1       4.606   3.808  16.875  0.00  0.00    +0.000 A 
ATOM     27  C   UNL     1       3.890   4.601  17.776  0.00  0.00    +0.000 A 
BRANCH  27  28
ATOM     28  N   UNL     1       2.940   3.983  18.618  0.00  0.00    +0.000 N 
ATOM     29  C   UNL     1       3.251   3.547  19.952  0.00  0.00    +0.000 C 
ATOM     30  C   UNL     1       2.095   2.637  20.311  0.00  0.00    +0.000 C 
ATOM     31  C   UNL     1       0.923   3.191  19.512  0.00  0.00    +0.000 C 
ATOM     32  C   UNL     1       1.580   3.851  18.326  0.00  0.00    +0.000 C 
ATOM     33  O   UNL     1       0.975   4.165  17.311  0.00  0.00    +0.000 OA
ENDBRANCH  27  28
ENDBRANCH  20  22
ENDBRANCH   1  19
TORSDOF 4
ENDMDL
MODEL 8
REMARK VINA RESULT:      -9.5      2.813      9.295
REMARK  Name = 
REMARK  4 active torsions:
REMARK  status: ('A' for Active; 'I' for Inactive)
REMARK    1  A    between atoms: C_2  and  C_16
REMARK    2  A    between atoms: N_3  and  C_4
REMARK    3  A    between atoms: C_9  and  N_10
REMARK    4  A    between atoms: C_20  and  N_21
REMARK                            x       y       z     vdW  Elec       q    Type
REMARK                         _______ _______ _______ _____ _____    ______ ____
ROOT
ATOM      1  C   UNL     1       1.297   9.166  19.376  0.00  0.00    +0.000 A 
ATOM      2  C   UNL     1       1.840   9.543  18.144  0.00  0.00    +0.000 A 
ATOM      3  C   UNL     1       2.645   8.649  17.438  0.00  0.00    +0.000 A 
ATOM      4  C   UNL     1       2.959   7.401  17.985  0.00  0.00    +0.000 A 
ATOM      5  C   UNL     1       2.522   7.058  19.268  0.00  0.00    +0.000 A 
ATOM      6  C   UNL     1       1.642   7.934  19.928  0.00  0.00    +0.000 A 
ENDROOT
BRANCH   5   7
ATOM      7  N   UNL     1       2.806   5.796  19.852  0.00  0.00    +0.000 N 
ATOM      8  C   UNL     1       4.000   5.145  19.671  0.00  0.00    +0.000 C 
ATOM      9  O   UNL     1       5.149   5.544  19.628  0.00  0.00    +0.000 OA
ATOM     10  C   UNL     1       3.627   3.758  19.413  0.00  0.00    +0.000 A 
ATOM     11  C   UNL     1       4.252   2.891  18.543  0.00  0.00    +0.000 A 
ATOM     12  C   UNL     1       3.475   1.854  18.021  0.00  0.00    +0.000 A 
ATOM     13  C   UNL     1       2.131   1.676  18.414  0.00  0.00    +0.000 A 
ATOM     14  C   UNL     1       1.526   2.555  19.317  0.00  0.00    +0.000 A 
ATOM     15  C   UNL     1       2.302   3.603  19.768  0.00  0.00    +0.000 A 
ATOM     16  C   UNL     1       1.818   4.904  20.202  0.00  0.00    +0.000 C 
ATOM     17  O   UNL     1       0.716   5.087  20.686  0.00  0.00    +0.000 OA
ENDBRANCH   5   7
BRANCH   1  19
ATOM     18  O   UNL     1      -0.816  10.171  19.492  0.00  0.00    +0.000 OA
ATOM     19  C   UNL     1       0.277  10.020  20.032  0.00  0.00    +0.000 C 
ATOM     20  N   UNL     1       0.664  10.621  21.226  0.00  0.00    +0.000 N 
ATOM     21  H   UNL     1       1.657  10.778  21.355  0.00  0.00    +0.000 HD
BRANCH  20  22
ATOM     22  C   UNL     1      -0.192  11.547  21.847  0.00  0.00    +0.000 A 
ATOM     23  C   UNL     1      -1.197  11.039  22.678  0.00  0.00    +0.000 A 
ATOM     24  C   UNL     1      -1.982  11.918  23.431  0.00  0.00    +0.000 A 
ATOM     25  C   UNL     1      -1.761  13.289  23.354  0.00  0.00    +0.000 A 
ATOM     26  C   UNL     1      -0.770  13.798  22.516  0.00  0.00    +0.000 A 
ATOM     27  C   UNL     1      -0.002  12.937  21.728  0.00  0.00    +0.000 A 
BRANCH  27  28
ATOM     28  N   UNL     1       0.828  13.489  20.729  0.00  0.00    +0.000 N 
ATOM     29  C   UNL     1       0.391  13.677  19.372  0.00  0.00    +0.000 C 
ATOM     30  C   UNL     1       1.678  13.920  18.610  0.00  0.00    +0.000 C 
ATOM     31  C   UNL     1       2.600  14.566  19.635  0.00  0.00    +0.000 C 
ATOM     32  C   UNL     1       2.092  14.041  20.954  0.00  0.00    +0.000 C 
ATOM     33  O   UNL     1       2.733  14.097  21.993  0.00  0.00    +0.000 OA
ENDBRANCH  27  28
ENDBRANCH  20  22
ENDBRANCH   1  19
TORSDOF 4
ENDMDL
MODEL 9
REMARK VINA RESULT:      -9.4      2.034      2.916
REMARK  Name = 
REMARK  4 active torsions:
REMARK  status: ('A' for Active; 'I' for Inactive)
REMARK    1  A    between atoms: C_2  and  C_16
REMARK    2  A    between atoms: N_3  and  C_4
REMARK    3  A    between atoms: C_9  and  N_10
REMARK    4  A    between atoms: C_20  and  N_21
REMARK                            x       y       z     vdW  Elec       q    Type
REMARK                         _______ _______ _______ _____ _____    ______ ____
ROOT
ATOM      1  C   UNL     1       0.929   9.211  18.450  0.00  0.00    +0.000 A 
ATOM      2  C   UNL     1      -0.150   9.379  17.578  0.00  0.00    +0.000 A 
ATOM      3  C   UNL     1      -1.194  10.239  17.924  0.00  0.00    +0.000 A 
ATOM      4  C   UNL     1      -1.192  10.886  19.163  0.00  0.00    +0.000 A 
ATOM      5  C   UNL     1      -0.179  10.635  20.094  0.00  0.00    +0.000 A 
ATOM      6  C   UNL     1       0.907   9.835  19.696  0.00  0.00    +0.000 A 
ENDROOT
BRANCH   5   7
ATOM      7  N   UNL     1      -0.132  11.283  21.355  0.00  0.00    +0.000 N 
ATOM      8  C   UNL     1      -0.792  10.808  22.460  0.00  0.00    +0.000 C 
ATOM      9  O   UNL     1      -0.964   9.680  22.885  0.00  0.00    +0.000 OA
ATOM     10  C   UNL     1      -1.406  11.989  23.059  0.00  0.00    +0.000 A 
ATOM     11  C   UNL     1      -2.635  12.047  23.680  0.00  0.00    +0.000 A 
ATOM     12  C   UNL     1      -3.278  13.287  23.686  0.00  0.00    +0.000 A 
ATOM     13  C   UNL     1      -2.667  14.432  23.132  0.00  0.00    +0.000 A 
ATOM     14  C   UNL     1      -1.408  14.353  22.530  0.00  0.00    +0.000 A 
ATOM     15  C   UNL     1      -0.825  13.103  22.487  0.00  0.00    +0.000 A 
ATOM     16  C   UNL     1       0.118  12.630  21.485  0.00  0.00    +0.000 C 
ATOM     17  O   UNL     1       0.877  13.361  20.875  0.00  0.00    +0.000 OA
ENDBRANCH   5   7
BRANCH   1  19
ATOM     18  O   UNL     1       2.803   8.914  17.075  0.00  0.00    +0.000 OA
ATOM     19  C   UNL     1       2.136   8.471  18.006  0.00  0.00    +0.000 C 
ATOM     20  N   UNL     1       2.403   7.284  18.682  0.00  0.00    +0.000 N 
ATOM     21  H   UNL     1       1.611   6.813  19.105  0.00  0.00    +0.000 HD
BRANCH  20  22
ATOM     22  C   UNL     1       3.449   6.455  18.242  0.00  0.00    +0.000 A 
ATOM     23  C   UNL     1       4.393   7.014  17.373  0.00  0.00    +0.000 A 
ATOM     24  C   UNL     1       5.530   6.280  17.021  0.00  0.00    +0.000 A 
ATOM     25  C   UNL     1       5.720   5.002  17.534  0.00  0.00    +0.000 A 
ATOM     26  C   UNL     1       4.774   4.436  18.388  0.00  0.00    +0.000 A 
ATOM     27  C   UNL     1       3.614   5.141  18.720  0.00  0.00    +0.000 A 
BRANCH  27  28
ATOM     28  N   UNL     1       2.576   4.462  19.395  0.00  0.00    +0.000 N 
ATOM     29  C   UNL     1       2.439   4.480  20.826  0.00  0.00    +0.000 C 
ATOM     30  C   UNL     1       1.468   3.352  21.108  0.00  0.00    +0.000 C 
ATOM     31  C   UNL     1       0.602   3.286  19.857  0.00  0.00    +0.000 C 
ATOM     32  C   UNL     1       1.500   3.825  18.772  0.00  0.00    +0.000 C 
ATOM     33  O   UNL     1       1.279   3.674  17.579  0.00  0.00    +0.000 OA
ENDBRANCH  27  28
ENDBRANCH  20  22
ENDBRANCH   1  19
TORSDOF 4
ENDMDL
