MODEL 1
REMARK VINA RESULT:      -8.5      0.000      0.000
REMARK  Name = 
REMARK  7 active torsions:
REMARK  status: ('A' for Active; 'I' for Inactive)
REMARK    1  A    between atoms: C_1  and  C_2
REMARK    2  A    between atoms: C_2  and  S_3
REMARK    3  A    between atoms: C_2  and  C_10
REMARK    4  A    between atoms: S_3  and  C_4
REMARK    5  A    between atoms: N_8  and  C_9
REMARK    6  A    between atoms: C_14  and  N_15
REMARK    7  A    between atoms: C_16  and  C_18
REMARK                            x       y       z     vdW  Elec       q    Type
REMARK                         _______ _______ _______ _____ _____    ______ ____
ROOT
ATOM      1  C   UNL     1       6.353   6.077  17.267  0.00  0.00    +0.000 A 
ATOM      2  C   UNL     1       6.907   5.275  18.277  0.00  0.00    +0.000 A 
ATOM      3  C   UNL     1       7.912   5.759  19.116  0.00  0.00    +0.000 A 
ATOM      4  C   UNL     1       8.405   7.052  18.954  0.00  0.00    +0.000 A 
ATOM      5  C   UNL     1       7.874   7.876  17.968  0.00  0.00    +0.000 A 
ATOM      6  C   UNL     1       6.814   7.406  17.169  0.00  0.00    +0.000 A 
ENDROOT
BRANCH   5   7
ATOM      7  N   UNL     1       8.361   9.171  17.708  0.00  0.00    +0.000 N 
ATOM      8  C   UNL     1       8.953  10.052  18.605  0.00  0.00    +0.000 C 
ATOM      9  O   UNL     1       9.217   9.878  19.787  0.00  0.00    +0.000 OA
ATOM     10  H   UNL     1       8.271   9.482  16.751  0.00  0.00    +0.000 HD
BRANCH   8  11
ATOM     11  C   UNL     1       9.165  11.387  17.990  0.00  0.00    +0.000 A 
ATOM     12  C   UNL     1       8.059  12.145  17.569  0.00  0.00    +0.000 A 
ATOM     13  C   UNL     1       8.123  13.545  17.574  0.00  0.00    +0.000 A 
ATOM     14  C   UNL     1       9.246  14.189  18.099  0.00  0.00    +0.000 A 
ATOM     15  C   UNL     1      10.320  13.411  18.502  0.00  0.00    +0.000 A 
ATOM     16  C   UNL     1      10.346  12.030  18.304  0.00  0.00    +0.000 A 
ATOM     17  C   UNL     1      11.661  11.486  18.762  0.00  0.00    +0.000 C 
ATOM     18  C   UNL     1      12.105  12.618  19.650  0.00  0.00    +0.000 C 
ATOM     19  C   UNL     1      11.388  13.736  19.442  0.00  0.00    +0.000 C 
ENDBRANCH   8  11
ENDBRANCH   5   7
BRANCH   1  21
ATOM     20  C   UNL     1       6.067   4.851  15.034  0.00  0.00    +0.000 C 
ATOM     21  C   UNL     1       5.375   5.529  16.221  0.00  0.00    +0.000 C 
BRANCH  21  22
ATOM     22  S   UNL     1       4.168   4.362  16.963  0.00  0.00    +0.000 S 
BRANCH  22  23
ATOM     23  C   UNL     1       3.358   5.373  18.126  0.00  0.00    +0.000 A 
ATOM     24  N   UNL     1       2.986   6.629  17.978  0.00  0.00    +0.000 NA
ATOM     25  N   UNL     1       2.345   7.023  19.127  0.00  0.00    +0.000 NA
ATOM     26  C   UNL     1       2.348   6.004  19.957  0.00  0.00    +0.000 A 
ATOM     27  N   UNL     1       2.984   4.947  19.372  0.00  0.00    +0.000 N 
ATOM     28  C   UNL     1       3.172   3.665  19.987  0.00  0.00    +0.000 C 
ENDBRANCH  22  23
ENDBRANCH  21  22
ENDBRANCH   1  21
TORSDOF 5
ENDMDL
MODEL 2
REMARK VINA RESULT:      -8.3      6.296      9.799
REMARK  Name = 
REMARK  7 active torsions:
REMARK  status: ('A' for Active; 'I' for Inactive)
REMARK    1  A    between atoms: C_1  and  C_2
REMARK    2  A    between atoms: C_2  and  S_3
REMARK    3  A    between atoms: C_2  and  C_10
REMARK    4  A    between atoms: S_3  and  C_4
REMARK    5  A    between atoms: N_8  and  C_9
REMARK    6  A    between atoms: C_14  and  N_15
REMARK    7  A    between atoms: C_16  and  C_18
REMARK                            x       y       z     vdW  Elec       q    Type
REMARK                         _______ _______ _______ _____ _____    ______ ____
ROOT
ATOM      1  C   UNL     1      -0.154  10.478  20.344  0.00  0.00    +0.000 A 
ATOM      2  C   UNL     1      -0.239  10.431  21.744  0.00  0.00    +0.000 A 
ATOM      3  C   UNL     1       0.464   9.475  22.480  0.00  0.00    +0.000 A 
ATOM      4  C   UNL     1       1.255   8.528  21.834  0.00  0.00    +0.000 A 
ATOM      5  C   UNL     1       1.368   8.551  20.448  0.00  0.00    +0.000 A 
ATOM      6  C   UNL     1       0.711   9.558  19.715  0.00  0.00    +0.000 A 
ENDROOT
BRANCH   5   7
ATOM      7  N   UNL     1       2.102   7.592  19.724  0.00  0.00    +0.000 N 
ATOM      8  C   UNL     1       2.178   6.225  19.961  0.00  0.00    +0.000 C 
ATOM      9  O   UNL     1       1.598   5.562  20.809  0.00  0.00    +0.000 OA
ATOM     10  H   UNL     1       2.623   7.952  18.937  0.00  0.00    +0.000 HD
BRANCH   8  11
ATOM     11  C   UNL     1       3.197   5.584  19.092  0.00  0.00    +0.000 A 
ATOM     12  C   UNL     1       4.563   5.801  19.340  0.00  0.00    +0.000 A 
ATOM     13  C   UNL     1       5.503   4.816  19.007  0.00  0.00    +0.000 A 
ATOM     14  C   UNL     1       5.074   3.576  18.527  0.00  0.00    +0.000 A 
ATOM     15  C   UNL     1       3.721   3.397  18.290  0.00  0.00    +0.000 A 
ATOM     16  C   UNL     1       2.804   4.442  18.420  0.00  0.00    +0.000 A 
ATOM     17  C   UNL     1       1.446   3.966  18.017  0.00  0.00    +0.000 C 
ATOM     18  C   UNL     1       1.655   2.479  18.141  0.00  0.00    +0.000 C 
ATOM     19  C   UNL     1       2.958   2.156  18.218  0.00  0.00    +0.000 C 
ENDBRANCH   8  11
ENDBRANCH   5   7
BRANCH   1  21
ATOM     20  C   UNL     1      -0.372  12.729  19.137  0.00  0.00    +0.000 C 
ATOM     21  C   UNL     1      -1.039  11.396  19.493  0.00  0.00    +0.000 C 
BRANCH  21  22
ATOM     22  S   UNL     1      -1.598  10.570  17.953  0.00  0.00    +0.000 S 
BRANCH  22  23
ATOM     23  C   UNL     1      -3.208  11.206  17.767  0.00  0.00    +0.000 A 
ATOM     24  N   UNL     1      -3.962  11.766  18.692  0.00  0.00    +0.000 NA
ATOM     25  N   UNL     1      -5.139  12.160  18.103  0.00  0.00    +0.000 NA
ATOM     26  C   UNL     1      -5.083  11.823  16.834  0.00  0.00    +0.000 A 
ATOM     27  N   UNL     1      -3.889  11.212  16.580  0.00  0.00    +0.000 N 
ATOM     28  C   UNL     1      -3.483  10.713  15.298  0.00  0.00    +0.000 C 
ENDBRANCH  22  23
ENDBRANCH  21  22
ENDBRANCH   1  21
TORSDOF 5
ENDMDL
MODEL 3
REMARK VINA RESULT:      -8.3      4.809      7.977
REMARK  Name = 
REMARK  7 active torsions:
REMARK  status: ('A' for Active; 'I' for Inactive)
REMARK    1  A    between atoms: C_1  and  C_2
REMARK    2  A    between atoms: C_2  and  S_3
REMARK    3  A    between atoms: C_2  and  C_10
REMARK    4  A    between atoms: S_3  and  C_4
REMARK    5  A    between atoms: N_8  and  C_9
REMARK    6  A    between atoms: C_14  and  N_15
REMARK    7  A    between atoms: C_16  and  C_18
REMARK                            x       y       z     vdW  Elec       q    Type
REMARK                         _______ _______ _______ _____ _____    ______ ____
ROOT
ATOM      1  C   UNL     1       4.787   5.853  17.001  0.00  0.00    +0.000 A 
ATOM      2  C   UNL     1       4.121   4.618  17.056  0.00  0.00    +0.000 A 
ATOM      3  C   UNL     1       2.846   4.508  17.614  0.00  0.00    +0.000 A 
ATOM      4  C   UNL     1       2.211   5.626  18.150  0.00  0.00    +0.000 A 
ATOM      5  C   UNL     1       2.839   6.866  18.105  0.00  0.00    +0.000 A 
ATOM      6  C   UNL     1       4.097   6.984  17.482  0.00  0.00    +0.000 A 
ENDROOT
BRANCH   5   7
ATOM      7  N   UNL     1       2.285   8.026  18.679  0.00  0.00    +0.000 N 
ATOM      8  C   UNL     1       1.615   8.138  19.891  0.00  0.00    +0.000 C 
ATOM      9  O   UNL     1       1.403   7.273  20.730  0.00  0.00    +0.000 OA
ATOM     10  H   UNL     1       2.403   8.872  18.139  0.00  0.00    +0.000 HD
BRANCH   8  11
ATOM     11  C   UNL     1       1.023   9.490  20.057  0.00  0.00    +0.000 A 
ATOM     12  C   UNL     1       0.345  10.092  18.984  0.00  0.00    +0.000 A 
ATOM     13  C   UNL     1      -0.698  10.996  19.229  0.00  0.00    +0.000 A 
ATOM     14  C   UNL     1      -1.135  11.216  20.538  0.00  0.00    +0.000 A 
ATOM     15  C   UNL     1      -0.442  10.609  21.572  0.00  0.00    +0.000 A 
ATOM     16  C   UNL     1       0.725   9.877  21.349  0.00  0.00    +0.000 A 
ATOM     17  C   UNL     1       1.286   9.422  22.658  0.00  0.00    +0.000 C 
ATOM     18  C   UNL     1       0.058   9.562  23.518  0.00  0.00    +0.000 C 
ATOM     19  C   UNL     1      -0.893  10.305  22.926  0.00  0.00    +0.000 C 
ENDBRANCH   8  11
ENDBRANCH   5   7
BRANCH   1  21
ATOM     20  C   UNL     1       7.185   6.473  17.665  0.00  0.00    +0.000 C 
ATOM     21  C   UNL     1       6.249   5.983  16.555  0.00  0.00    +0.000 C 
BRANCH  21  22
ATOM     22  S   UNL     1       6.896   4.407  15.873  0.00  0.00    +0.000 S 
BRANCH  22  23
ATOM     23  C   UNL     1       7.316   4.866  14.246  0.00  0.00    +0.000 A 
ATOM     24  N   UNL     1       8.239   5.727  13.867  0.00  0.00    +0.000 NA
ATOM     25  N   UNL     1       8.262   5.753  12.494  0.00  0.00    +0.000 NA
ATOM     26  C   UNL     1       7.345   4.916  12.063  0.00  0.00    +0.000 A 
ATOM     27  N   UNL     1       6.719   4.341  13.131  0.00  0.00    +0.000 N 
ATOM     28  C   UNL     1       5.663   3.375  13.037  0.00  0.00    +0.000 C 
ENDBRANCH  22  23
ENDBRANCH  21  22
ENDBRANCH   1  21
TORSDOF 5
ENDMDL
MODEL 4
REMARK VINA RESULT:      -8.3      6.247      9.746
REMARK  Name = 
REMARK  7 active torsions:
REMARK  status: ('A' for Active; 'I' for Inactive)
REMARK    1  A    between atoms: C_1  and  C_2
REMARK    2  A    between atoms: C_2  and  S_3
REMARK    3  A    between atoms: C_2  and  C_10
REMARK    4  A    between atoms: S_3  and  C_4
REMARK    5  A    between atoms: N_8  and  C_9
REMARK    6  A    between atoms: C_14  and  N_15
REMARK    7  A    between atoms: C_16  and  C_18
REMARK                            x       y       z     vdW  Elec       q    Type
REMARK                         _______ _______ _______ _____ _____    ______ ____
ROOT
ATOM      1  C   UNL     1      -0.226  10.887  20.523  0.00  0.00    +0.000 A 
ATOM      2  C   UNL     1      -0.621  11.246  21.821  0.00  0.00    +0.000 A 
ATOM      3  C   UNL     1      -0.362  10.415  22.913  0.00  0.00    +0.000 A 
ATOM      4  C   UNL     1       0.282   9.192  22.732  0.00  0.00    +0.000 A 
ATOM      5  C   UNL     1       0.693   8.809  21.460  0.00  0.00    +0.000 A 
ATOM      6  C   UNL     1       0.489   9.681  20.373  0.00  0.00    +0.000 A 
ENDROOT
BRANCH   5   7
ATOM      7  N   UNL     1       1.295   7.565  21.193  0.00  0.00    +0.000 N 
ATOM      8  C   UNL     1       1.949   7.170  20.032  0.00  0.00    +0.000 C 
ATOM      9  O   UNL     1       2.179   7.823  19.024  0.00  0.00    +0.000 OA
ATOM     10  H   UNL     1       1.247   6.892  21.945  0.00  0.00    +0.000 HD
BRANCH   8  11
ATOM     11  C   UNL     1       2.286   5.724  20.069  0.00  0.00    +0.000 A 
ATOM     12  C   UNL     1       1.373   4.808  20.618  0.00  0.00    +0.000 A 
ATOM     13  C   UNL     1       1.334   3.488  20.150  0.00  0.00    +0.000 A 
ATOM     14  C   UNL     1       2.128   3.110  19.064  0.00  0.00    +0.000 A 
ATOM     15  C   UNL     1       3.020   4.037  18.549  0.00  0.00    +0.000 A 
ATOM     16  C   UNL     1       3.214   5.284  19.144  0.00  0.00    +0.000 A 
ATOM     17  C   UNL     1       4.292   6.021  18.417  0.00  0.00    +0.000 C 
ATOM     18  C   UNL     1       4.287   5.255  17.120  0.00  0.00    +0.000 C 
ATOM     19  C   UNL     1       3.627   4.088  17.224  0.00  0.00    +0.000 C 
ENDBRANCH   8  11
ENDBRANCH   5   7
BRANCH   1  21
ATOM     20  C   UNL     1       0.471  12.584  18.733  0.00  0.00    +0.000 C 
ATOM     21  C   UNL     1      -0.643  11.687  19.283  0.00  0.00    +0.000 C 
BRANCH  21  22
ATOM     22  S   UNL     1      -1.256  10.595  17.942  0.00  0.00    +0.000 S 
BRANCH  22  23
ATOM     23  C   UNL     1      -2.897  11.147  17.751  0.00  0.00    +0.000 A 
ATOM     24  N   UNL     1      -3.695  11.631  18.681  0.00  0.00    +0.000 NA
ATOM     25  N   UNL     1      -4.883  11.981  18.086  0.00  0.00    +0.000 NA
ATOM     26  C   UNL     1      -4.789  11.694  16.807  0.00  0.00    +0.000 A 
ATOM     27  N   UNL     1      -3.559  11.159  16.552  0.00  0.00    +0.000 N 
ATOM     28  C   UNL     1      -3.105  10.730  15.261  0.00  0.00    +0.000 C 
ENDBRANCH  22  23
ENDBRANCH  21  22
ENDBRANCH   1  21
TORSDOF 5
ENDMDL
MODEL 5
REMARK VINA RESULT:      -8.2      5.940      9.614
REMARK  Name = 
REMARK  7 active torsions:
REMARK  status: ('A' for Active; 'I' for Inactive)
REMARK    1  A    between atoms: C_1  and  C_2
REMARK    2  A    between atoms: C_2  and  S_3
REMARK    3  A    between atoms: C_2  and  C_10
REMARK    4  A    between atoms: S_3  and  C_4
REMARK    5  A    between atoms: N_8  and  C_9
REMARK    6  A    between atoms: C_14  and  N_15
REMARK    7  A    between atoms: C_16  and  C_18
REMARK                            x       y       z     vdW  Elec       q    Type
REMARK                         _______ _______ _______ _____ _____    ______ ____
ROOT
ATOM      1  C   UNL     1      -0.247  10.459  20.899  0.00  0.00    +0.000 A 
ATOM      2  C   UNL     1      -0.105  11.558  20.037  0.00  0.00    +0.000 A 
ATOM      3  C   UNL     1       0.686  11.478  18.888  0.00  0.00    +0.000 A 
ATOM      4  C   UNL     1       1.371  10.304  18.583  0.00  0.00    +0.000 A 
ATOM      5  C   UNL     1       1.246   9.195  19.412  0.00  0.00    +0.000 A 
ATOM      6  C   UNL     1       0.395   9.259  20.533  0.00  0.00    +0.000 A 
ENDROOT
BRANCH   5   7
ATOM      7  N   UNL     1       1.953   7.997  19.199  0.00  0.00    +0.000 N 
ATOM      8  C   UNL     1       2.648   7.611  18.059  0.00  0.00    +0.000 C 
ATOM      9  O   UNL     1       2.829   8.239  17.025  0.00  0.00    +0.000 OA
ATOM     10  H   UNL     1       1.956   7.353  19.978  0.00  0.00    +0.000 HD
BRANCH   8  11
ATOM     11  C   UNL     1       3.105   6.202  18.157  0.00  0.00    +0.000 A 
ATOM     12  C   UNL     1       2.170   5.178  18.386  0.00  0.00    +0.000 A 
ATOM     13  C   UNL     1       2.405   3.887  17.894  0.00  0.00    +0.000 A 
ATOM     14  C   UNL     1       3.517   3.642  17.084  0.00  0.00    +0.000 A 
ATOM     15  C   UNL     1       4.421   4.673  16.882  0.00  0.00    +0.000 A 
ATOM     16  C   UNL     1       4.303   5.898  17.539  0.00  0.00    +0.000 A 
ATOM     17  C   UNL     1       5.465   6.768  17.184  0.00  0.00    +0.000 C 
ATOM     18  C   UNL     1       5.920   6.076  15.926  0.00  0.00    +0.000 C 
ATOM     19  C   UNL     1       5.381   4.851  15.799  0.00  0.00    +0.000 C 
ENDBRANCH   8  11
ENDBRANCH   5   7
BRANCH   1  21
ATOM     20  C   UNL     1      -0.267   9.778  23.371  0.00  0.00    +0.000 C 
ATOM     21  C   UNL     1      -0.963  10.560  22.252  0.00  0.00    +0.000 C 
BRANCH  21  22
ATOM     22  S   UNL     1      -1.180  12.304  22.779  0.00  0.00    +0.000 S 
BRANCH  22  23
ATOM     23  C   UNL     1      -2.913  12.428  22.906  0.00  0.00    +0.000 A 
ATOM     24  N   UNL     1      -3.665  12.135  23.948  0.00  0.00    +0.000 NA
ATOM     25  N   UNL     1      -4.970  12.420  23.627  0.00  0.00    +0.000 NA
ATOM     26  C   UNL     1      -4.989  12.870  22.392  0.00  0.00    +0.000 A 
ATOM     27  N   UNL     1      -3.717  12.884  21.896  0.00  0.00    +0.000 N 
ATOM     28  C   UNL     1      -3.359  13.318  20.577  0.00  0.00    +0.000 C 
ENDBRANCH  22  23
ENDBRANCH  21  22
ENDBRANCH   1  21
TORSDOF 5
ENDMDL
MODEL 6
REMARK VINA RESULT:      -8.2      1.259      1.487
REMARK  Name = 
REMARK  7 active torsions:
REMARK  status: ('A' for Active; 'I' for Inactive)
REMARK    1  A    between atoms: C_1  and  C_2
REMARK    2  A    between atoms: C_2  and  S_3
REMARK    3  A    between atoms: C_2  and  C_10
REMARK    4  A    between atoms: S_3  and  C_4
REMARK    5  A    between atoms: N_8  and  C_9
REMARK    6  A    between atoms: C_14  and  N_15
REMARK    7  A    between atoms: C_16  and  C_18
REMARK                            x       y       z     vdW  Elec       q    Type
REMARK                         _______ _______ _______ _____ _____    ______ ____
ROOT
ATOM      1  C   UNL     1       5.796   6.187  17.706  0.00  0.00    +0.000 A 
ATOM      2  C   UNL     1       6.536   5.254  18.449  0.00  0.00    +0.000 A 
ATOM      3  C   UNL     1       7.788   5.576  18.975  0.00  0.00    +0.000 A 
ATOM      4  C   UNL     1       8.344   6.834  18.754  0.00  0.00    +0.000 A 
ATOM      5  C   UNL     1       7.635   7.786  18.029  0.00  0.00    +0.000 A 
ATOM      6  C   UNL     1       6.344   7.478  17.558  0.00  0.00    +0.000 A 
ENDROOT
BRANCH   5   7
ATOM      7  N   UNL     1       8.157   9.055  17.717  0.00  0.00    +0.000 N 
ATOM      8  C   UNL     1       8.829   9.929  18.563  0.00  0.00    +0.000 C 
ATOM      9  O   UNL     1       9.148   9.767  19.732  0.00  0.00    +0.000 OA
ATOM     10  H   UNL     1       8.028   9.351  16.759  0.00  0.00    +0.000 HD
BRANCH   8  11
ATOM     11  C   UNL     1       9.059  11.242  17.909  0.00  0.00    +0.000 A 
ATOM     12  C   UNL     1       7.963  12.054  17.570  0.00  0.00    +0.000 A 
ATOM     13  C   UNL     1       8.102  13.448  17.546  0.00  0.00    +0.000 A 
ATOM     14  C   UNL     1       9.298  14.037  17.964  0.00  0.00    +0.000 A 
ATOM     15  C   UNL     1      10.359  13.207  18.288  0.00  0.00    +0.000 A 
ATOM     16  C   UNL     1      10.295  11.824  18.112  0.00  0.00    +0.000 A 
ATOM     17  C   UNL     1      11.613  11.215  18.467  0.00  0.00    +0.000 C 
ATOM     18  C   UNL     1      12.190  12.333  19.296  0.00  0.00    +0.000 C 
ATOM     19  C   UNL     1      11.518  13.485  19.130  0.00  0.00    +0.000 C 
ENDBRANCH   8  11
ENDBRANCH   5   7
BRANCH   1  21
ATOM     20  C   UNL     1       4.431   4.342  16.563  0.00  0.00    +0.000 C 
ATOM     21  C   UNL     1       4.502   5.818  16.972  0.00  0.00    +0.000 C 
BRANCH  21  22
ATOM     22  S   UNL     1       3.014   6.243  17.957  0.00  0.00    +0.000 S 
BRANCH  22  23
ATOM     23  C   UNL     1       2.276   4.683  18.186  0.00  0.00    +0.000 A 
ATOM     24  N   UNL     1       1.326   4.129  17.460  0.00  0.00    +0.000 NA
ATOM     25  N   UNL     1       1.073   2.878  17.969  0.00  0.00    +0.000 NA
ATOM     26  C   UNL     1       1.866   2.699  19.002  0.00  0.00    +0.000 A 
ATOM     27  N   UNL     1       2.634   3.813  19.181  0.00  0.00    +0.000 N 
ATOM     28  C   UNL     1       3.617   3.970  20.214  0.00  0.00    +0.000 C 
ENDBRANCH  22  23
ENDBRANCH  21  22
ENDBRANCH   1  21
TORSDOF 5
ENDMDL
MODEL 7
REMARK VINA RESULT:      -8.1      5.664      8.055
REMARK  Name = 
REMARK  7 active torsions:
REMARK  status: ('A' for Active; 'I' for Inactive)
REMARK    1  A    between atoms: C_1  and  C_2
REMARK    2  A    between atoms: C_2  and  S_3
REMARK    3  A    between atoms: C_2  and  C_10
REMARK    4  A    between atoms: S_3  and  C_4
REMARK    5  A    between atoms: N_8  and  C_9
REMARK    6  A    between atoms: C_14  and  N_15
REMARK    7  A    between atoms: C_16  and  C_18
REMARK                            x       y       z     vdW  Elec       q    Type
REMARK                         _______ _______ _______ _____ _____    ______ ____
ROOT
ATOM      1  C   UNL     1       2.630   6.749  19.334  0.00  0.00    +0.000 A 
ATOM      2  C   UNL     1       3.051   6.992  18.017  0.00  0.00    +0.000 A 
ATOM      3  C   UNL     1       2.738   8.186  17.365  0.00  0.00    +0.000 A 
ATOM      4  C   UNL     1       1.978   9.162  18.006  0.00  0.00    +0.000 A 
ATOM      5  C   UNL     1       1.551   8.957  19.314  0.00  0.00    +0.000 A 
ATOM      6  C   UNL     1       1.926   7.780  19.990  0.00  0.00    +0.000 A 
ENDROOT
BRANCH   5   7
ATOM      7  N   UNL     1       0.732   9.871  20.004  0.00  0.00    +0.000 N 
ATOM      8  C   UNL     1      -0.552  10.282  19.668  0.00  0.00    +0.000 C 
ATOM      9  O   UNL     1      -1.255   9.910  18.739  0.00  0.00    +0.000 OA
ATOM     10  H   UNL     1       1.133  10.260  20.846  0.00  0.00    +0.000 HD
BRANCH   8  11
ATOM     11  C   UNL     1      -1.009  11.391  20.543  0.00  0.00    +0.000 A 
ATOM     12  C   UNL     1      -1.145  11.181  21.925  0.00  0.00    +0.000 A 
ATOM     13  C   UNL     1      -0.962  12.244  22.820  0.00  0.00    +0.000 A 
ATOM     14  C   UNL     1      -0.541  13.489  22.346  0.00  0.00    +0.000 A 
ATOM     15  C   UNL     1      -0.421  13.663  20.977  0.00  0.00    +0.000 A 
ATOM     16  C   UNL     1      -0.803  12.673  20.071  0.00  0.00    +0.000 A 
ATOM     17  C   UNL     1      -0.637  13.184  18.675  0.00  0.00    +0.000 C 
ATOM     18  C   UNL     1       0.312  14.323  18.938  0.00  0.00    +0.000 C 
ATOM     19  C   UNL     1       0.372  14.642  20.242  0.00  0.00    +0.000 C 
ENDBRANCH   8  11
ENDBRANCH   5   7
BRANCH   1  21
ATOM     20  C   UNL     1       1.525   4.866  20.678  0.00  0.00    +0.000 C 
ATOM     21  C   UNL     1       2.806   5.389  20.019  0.00  0.00    +0.000 C 
BRANCH  21  22
ATOM     22  S   UNL     1       3.449   4.120  18.859  0.00  0.00    +0.000 S 
BRANCH  22  23
ATOM     23  C   UNL     1       5.135   4.543  18.762  0.00  0.00    +0.000 A 
ATOM     24  N   UNL     1       5.916   4.959  19.738  0.00  0.00    +0.000 NA
ATOM     25  N   UNL     1       7.180   5.136  19.229  0.00  0.00    +0.000 NA
ATOM     26  C   UNL     1       7.141   4.835  17.950  0.00  0.00    +0.000 A 
ATOM     27  N   UNL     1       5.872   4.465  17.611  0.00  0.00    +0.000 N 
ATOM     28  C   UNL     1       5.461   4.067  16.295  0.00  0.00    +0.000 C 
ENDBRANCH  22  23
ENDBRANCH  21  22
ENDBRANCH   1  21
TORSDOF 5
ENDMDL
MODEL 8
REMARK VINA RESULT:      -8.1      5.456      8.315
REMARK  Name = 
REMARK  7 active torsions:
REMARK  status: ('A' for Active; 'I' for Inactive)
REMARK    1  A    between atoms: C_1  and  C_2
REMARK    2  A    between atoms: C_2  and  S_3
REMARK    3  A    between atoms: C_2  and  C_10
REMARK    4  A    between atoms: S_3  and  C_4
REMARK    5  A    between atoms: N_8  and  C_9
REMARK    6  A    between atoms: C_14  and  N_15
REMARK    7  A    between atoms: C_16  and  C_18
REMARK                            x       y       z     vdW  Elec       q    Type
REMARK                         _______ _______ _______ _____ _____    ______ ____
ROOT
ATOM      1  C   UNL     1       2.847   6.573  19.369  0.00  0.00    +0.000 A 
ATOM      2  C   UNL     1       3.362   6.880  18.099  0.00  0.00    +0.000 A 
ATOM      3  C   UNL     1       2.985   8.044  17.428  0.00  0.00    +0.000 A 
ATOM      4  C   UNL     1       2.067   8.924  17.999  0.00  0.00    +0.000 A 
ATOM      5  C   UNL     1       1.544   8.654  19.259  0.00  0.00    +0.000 A 
ATOM      6  C   UNL     1       1.978   7.512  19.960  0.00  0.00    +0.000 A 
ENDROOT
BRANCH   5   7
ATOM      7  N   UNL     1       0.570   9.465  19.873  0.00  0.00    +0.000 N 
ATOM      8  C   UNL     1       0.705  10.228  21.025  0.00  0.00    +0.000 C 
ATOM      9  O   UNL     1       1.698  10.395  21.721  0.00  0.00    +0.000 OA
ATOM     10  H   UNL     1      -0.325   9.492  19.406  0.00  0.00    +0.000 HD
BRANCH   8  11
ATOM     11  C   UNL     1      -0.599  10.796  21.452  0.00  0.00    +0.000 A 
ATOM     12  C   UNL     1      -1.049  10.600  22.768  0.00  0.00    +0.000 A 
ATOM     13  C   UNL     1      -1.875  11.554  23.378  0.00  0.00    +0.000 A 
ATOM     14  C   UNL     1      -2.165  12.750  22.717  0.00  0.00    +0.000 A 
ATOM     15  C   UNL     1      -1.708  12.909  21.418  0.00  0.00    +0.000 A 
ATOM     16  C   UNL     1      -1.065  11.879  20.731  0.00  0.00    +0.000 A 
ATOM     17  C   UNL     1      -0.770  12.320  19.333  0.00  0.00    +0.000 C 
ATOM     18  C   UNL     1      -0.874  13.811  19.515  0.00  0.00    +0.000 C 
ATOM     19  C   UNL     1      -1.480  14.140  20.670  0.00  0.00    +0.000 C 
ENDBRANCH   8  11
ENDBRANCH   5   7
BRANCH   1  21
ATOM     20  C   UNL     1       1.869   4.664  20.773  0.00  0.00    +0.000 C 
ATOM     21  C   UNL     1       3.103   5.228  20.060  0.00  0.00    +0.000 C 
BRANCH  21  22
ATOM     22  S   UNL     1       3.750   3.973  18.889  0.00  0.00    +0.000 S 
BRANCH  22  23
ATOM     23  C   UNL     1       5.414   4.460  18.722  0.00  0.00    +0.000 A 
ATOM     24  N   UNL     1       6.222   4.895  19.668  0.00  0.00    +0.000 NA
ATOM     25  N   UNL     1       7.454   5.126  19.105  0.00  0.00    +0.000 NA
ATOM     26  C   UNL     1       7.369   4.838  17.825  0.00  0.00    +0.000 A 
ATOM     27  N   UNL     1       6.100   4.424  17.538  0.00  0.00    +0.000 N 
ATOM     28  C   UNL     1       5.645   4.026  16.237  0.00  0.00    +0.000 C 
ENDBRANCH  22  23
ENDBRANCH  21  22
ENDBRANCH   1  21
TORSDOF 5
ENDMDL
MODEL 9
REMARK VINA RESULT:      -8.0      4.705      7.921
REMARK  Name = 
REMARK  7 active torsions:
REMARK  status: ('A' for Active; 'I' for Inactive)
REMARK    1  A    between atoms: C_1  and  C_2
REMARK    2  A    between atoms: C_2  and  S_3
REMARK    3  A    between atoms: C_2  and  C_10
REMARK    4  A    between atoms: S_3  and  C_4
REMARK    5  A    between atoms: N_8  and  C_9
REMARK    6  A    between atoms: C_14  and  N_15
REMARK    7  A    between atoms: C_16  and  C_18
REMARK                            x       y       z     vdW  Elec       q    Type
REMARK                         _______ _______ _______ _____ _____    ______ ____
ROOT
ATOM      1  C   UNL     1       4.724   6.140  17.607  0.00  0.00    +0.000 A 
ATOM      2  C   UNL     1       4.524   5.205  18.635  0.00  0.00    +0.000 A 
ATOM      3  C   UNL     1       3.456   5.328  19.526  0.00  0.00    +0.000 A 
ATOM      4  C   UNL     1       2.571   6.400  19.426  0.00  0.00    +0.000 A 
ATOM      5  C   UNL     1       2.737   7.340  18.415  0.00  0.00    +0.000 A 
ATOM      6  C   UNL     1       3.776   7.176  17.478  0.00  0.00    +0.000 A 
ENDROOT
BRANCH   5   7
ATOM      7  N   UNL     1       1.919   8.479  18.288  0.00  0.00    +0.000 N 
ATOM      8  C   UNL     1       1.237   9.152  19.294  0.00  0.00    +0.000 C 
ATOM      9  O   UNL     1       1.236   8.930  20.497  0.00  0.00    +0.000 OA
ATOM     10  H   UNL     1       1.834   8.846  17.350  0.00  0.00    +0.000 HD
BRANCH   8  11
ATOM     11  C   UNL     1       0.339  10.193  18.733  0.00  0.00    +0.000 A 
ATOM     12  C   UNL     1      -0.625   9.841  17.774  0.00  0.00    +0.000 A 
ATOM     13  C   UNL     1      -1.822  10.563  17.682  0.00  0.00    +0.000 A 
ATOM     14  C   UNL     1      -2.105  11.565  18.614  0.00  0.00    +0.000 A 
ATOM     15  C   UNL     1      -1.130  11.889  19.544  0.00  0.00    +0.000 A 
ATOM     16  C   UNL     1       0.143  11.320  19.508  0.00  0.00    +0.000 A 
ATOM     17  C   UNL     1       0.991  11.927  20.579  0.00  0.00    +0.000 C 
ATOM     18  C   UNL     1      -0.090  12.489  21.465  0.00  0.00    +0.000 C 
ATOM     19  C   UNL     1      -1.280  12.537  20.843  0.00  0.00    +0.000 C 
ENDBRANCH   8  11
ENDBRANCH   5   7
BRANCH   1  21
ATOM     20  C   UNL     1       7.229   6.658  17.432  0.00  0.00    +0.000 C 
ATOM     21  C   UNL     1       5.975   6.136  16.721  0.00  0.00    +0.000 C 
BRANCH  21  22
ATOM     22  S   UNL     1       6.320   4.469  16.036  0.00  0.00    +0.000 S 
BRANCH  22  23
ATOM     23  C   UNL     1       7.006   4.854  14.482  0.00  0.00    +0.000 A 
ATOM     24  N   UNL     1       8.016   5.661  14.228  0.00  0.00    +0.000 NA
ATOM     25  N   UNL     1       8.251   5.639  12.874  0.00  0.00    +0.000 NA
ATOM     26  C   UNL     1       7.371   4.828  12.329  0.00  0.00    +0.000 A 
ATOM     27  N   UNL     1       6.562   4.318  13.303  0.00  0.00    +0.000 N 
ATOM     28  C   UNL     1       5.489   3.395  13.073  0.00  0.00    +0.000 C 
ENDBRANCH  22  23
ENDBRANCH  21  22
ENDBRANCH   1  21
TORSDOF 5
ENDMDL
