MODEL 1
REMARK VINA RESULT:      -8.9      0.000      0.000
REMARK  Name = 
REMARK  7 active torsions:
REMARK  status: ('A' for Active; 'I' for Inactive)
REMARK    1  A    between atoms: C_1  and  C_2
REMARK    2  A    between atoms: C_2  and  C_3
REMARK    3  A    between atoms: C_7  and  C_8
REMARK    4  A    between atoms: N_16  and  C_17
REMARK    5  A    between atoms: C_17  and  C_18
REMARK    6  A    between atoms: C_18  and  C_19
REMARK    7  A    between atoms: N_21  and  C_22
REMARK                            x       y       z     vdW  Elec       q    Type
REMARK                         _______ _______ _______ _____ _____    ______ ____
ROOT
ATOM      1  C   UNL     1       4.022   3.986  16.387  0.00  0.00    +0.000 C 
ATOM      2  C   UNL     1       5.427   4.542  16.206  0.00  0.00    +0.000 C 
ATOM      3  N   UNL     1       6.390   3.934  17.095  0.00  0.00    +0.000 N 
ATOM      4  C   UNL     1       7.321   4.856  17.530  0.00  0.00    +0.000 C 
ATOM      5  O   UNL     1       8.364   4.552  18.081  0.00  0.00    +0.000 OA
ATOM      6  N   UNL     1       6.857   6.100  17.238  0.00  0.00    +0.000 N 
ATOM      7  C   UNL     1       5.606   6.002  16.692  0.00  0.00    +0.000 C 
ATOM      8  O   UNL     1       4.827   6.926  16.502  0.00  0.00    +0.000 OA
ATOM      9  H   UNL     1       6.615   2.950  17.131  0.00  0.00    +0.000 HD
ENDROOT
BRANCH   2  10
ATOM     10  C   UNL     1       5.839   4.427  14.727  0.00  0.00    +0.000 A 
ATOM     11  C   UNL     1       7.157   4.677  14.318  0.00  0.00    +0.000 A 
ATOM     12  C   UNL     1       7.544   4.484  12.991  0.00  0.00    +0.000 A 
ATOM     13  C   UNL     1       6.629   4.012  12.053  0.00  0.00    +0.000 A 
ATOM     14  C   UNL     1       5.310   3.736  12.428  0.00  0.00    +0.000 A 
ATOM     15  C   UNL     1       4.919   3.975  13.757  0.00  0.00    +0.000 A 
BRANCH  14  16
ATOM     16  C   UNL     1       4.331   3.116  11.459  0.00  0.00    +0.000 C 
ATOM     17  F   UNL     1       4.764   1.937  10.930  0.00  0.00    +0.000 F 
ATOM     18  F   UNL     1       3.136   2.836  12.053  0.00  0.00    +0.000 F 
ATOM     19  F   UNL     1       4.043   3.922  10.401  0.00  0.00    +0.000 F 
ENDBRANCH  14  16
ENDBRANCH   2  10
BRANCH   6  20
ATOM     20  C   UNL     1       7.660   7.308  17.227  0.00  0.00    +0.000 C 
BRANCH  20  21
ATOM     21  C   UNL     1       8.162   7.767  18.588  0.00  0.00    +0.000 C 
BRANCH  21  22
ATOM     22  C   UNL     1       8.528   9.239  18.517  0.00  0.00    +0.000 C 
ATOM     23  O   UNL     1       8.091   9.945  17.615  0.00  0.00    +0.000 OA
ATOM     24  N   UNL     1       9.387   9.646  19.528  0.00  0.00    +0.000 N 
ATOM     25  H   UNL     1       9.799   8.937  20.116  0.00  0.00    +0.000 HD
BRANCH  24  26
ATOM     26  C   UNL     1       9.870  10.971  19.684  0.00  0.00    +0.000 A 
ATOM     27  C   UNL     1      10.622  11.615  18.695  0.00  0.00    +0.000 A 
ATOM     28  C   UNL     1      11.113  12.904  18.887  0.00  0.00    +0.000 A 
ATOM     29  C   UNL     1      10.846  13.562  20.072  0.00  0.00    +0.000 A 
ATOM     30  F   UNL     1      11.326  14.802  20.263  0.00  0.00    +0.000 F 
ATOM     31  C   UNL     1      10.086  12.960  21.066  0.00  0.00    +0.000 A 
ATOM     32  C   UNL     1       9.583  11.661  20.868  0.00  0.00    +0.000 A 
ENDBRANCH  24  26
ENDBRANCH  21  22
ENDBRANCH  20  21
ENDBRANCH   6  20
TORSDOF 6
ENDMDL
MODEL 2
REMARK VINA RESULT:      -8.9      5.909      7.286
REMARK  Name = 
REMARK  7 active torsions:
REMARK  status: ('A' for Active; 'I' for Inactive)
REMARK    1  A    between atoms: C_1  and  C_2
REMARK    2  A    between atoms: C_2  and  C_3
REMARK    3  A    between atoms: C_7  and  C_8
REMARK    4  A    between atoms: N_16  and  C_17
REMARK    5  A    between atoms: C_17  and  C_18
REMARK    6  A    between atoms: C_18  and  C_19
REMARK    7  A    between atoms: N_21  and  C_22
REMARK                            x       y       z     vdW  Elec       q    Type
REMARK                         _______ _______ _______ _____ _____    ______ ____
ROOT
ATOM      1  C   UNL     1       2.911   1.819  17.827  0.00  0.00    +0.000 C 
ATOM      2  C   UNL     1       3.088   3.005  18.764  0.00  0.00    +0.000 C 
ATOM      3  N   UNL     1       3.119   2.619  20.155  0.00  0.00    +0.000 N 
ATOM      4  C   UNL     1       2.488   3.556  20.948  0.00  0.00    +0.000 C 
ATOM      5  O   UNL     1       2.587   3.592  22.162  0.00  0.00    +0.000 OA
ATOM      6  N   UNL     1       1.767   4.380  20.141  0.00  0.00    +0.000 N 
ATOM      7  C   UNL     1       1.860   3.944  18.847  0.00  0.00    +0.000 C 
ATOM      8  O   UNL     1       1.181   4.329  17.905  0.00  0.00    +0.000 OA
ATOM      9  H   UNL     1       3.788   1.988  20.575  0.00  0.00    +0.000 HD
ENDROOT
BRANCH   2  10
ATOM     10  C   UNL     1       4.335   3.807  18.349  0.00  0.00    +0.000 A 
ATOM     11  C   UNL     1       5.229   4.307  19.306  0.00  0.00    +0.000 A 
ATOM     12  C   UNL     1       6.403   4.956  18.920  0.00  0.00    +0.000 A 
ATOM     13  C   UNL     1       6.719   5.093  17.570  0.00  0.00    +0.000 A 
ATOM     14  C   UNL     1       5.860   4.591  16.588  0.00  0.00    +0.000 A 
ATOM     15  C   UNL     1       4.660   3.978  16.986  0.00  0.00    +0.000 A 
BRANCH  14  16
ATOM     16  C   UNL     1       6.235   4.625  15.124  0.00  0.00    +0.000 C 
ATOM     17  F   UNL     1       7.479   5.132  14.894  0.00  0.00    +0.000 F 
ATOM     18  F   UNL     1       6.238   3.378  14.572  0.00  0.00    +0.000 F 
ATOM     19  F   UNL     1       5.379   5.366  14.370  0.00  0.00    +0.000 F 
ENDBRANCH  14  16
ENDBRANCH   2  10
BRANCH   6  20
ATOM     20  C   UNL     1       1.233   5.672  20.531  0.00  0.00    +0.000 C 
BRANCH  20  21
ATOM     21  C   UNL     1       2.136   6.862  20.243  0.00  0.00    +0.000 C 
BRANCH  21  22
ATOM     22  C   UNL     1       1.414   8.142  20.620  0.00  0.00    +0.000 C 
ATOM     23  O   UNL     1       1.116   8.367  21.789  0.00  0.00    +0.000 OA
ATOM     24  N   UNL     1       1.129   8.959  19.535  0.00  0.00    +0.000 N 
ATOM     25  H   UNL     1       1.285   8.590  18.609  0.00  0.00    +0.000 HD
BRANCH  24  26
ATOM     26  C   UNL     1       0.468  10.211  19.626  0.00  0.00    +0.000 A 
ATOM     27  C   UNL     1       1.066  11.332  20.212  0.00  0.00    +0.000 A 
ATOM     28  C   UNL     1       0.382  12.541  20.320  0.00  0.00    +0.000 A 
ATOM     29  C   UNL     1      -0.907  12.636  19.832  0.00  0.00    +0.000 A 
ATOM     30  F   UNL     1      -1.572  13.799  19.942  0.00  0.00    +0.000 F 
ATOM     31  C   UNL     1      -1.523  11.549  19.226  0.00  0.00    +0.000 A 
ATOM     32  C   UNL     1      -0.828  10.331  19.111  0.00  0.00    +0.000 A 
ENDBRANCH  24  26
ENDBRANCH  21  22
ENDBRANCH  20  21
ENDBRANCH   6  20
TORSDOF 6
ENDMDL
MODEL 3
REMARK VINA RESULT:      -8.7      5.801      7.142
REMARK  Name = 
REMARK  7 active torsions:
REMARK  status: ('A' for Active; 'I' for Inactive)
REMARK    1  A    between atoms: C_1  and  C_2
REMARK    2  A    between atoms: C_2  and  C_3
REMARK    3  A    between atoms: C_7  and  C_8
REMARK    4  A    between atoms: N_16  and  C_17
REMARK    5  A    between atoms: C_17  and  C_18
REMARK    6  A    between atoms: C_18  and  C_19
REMARK    7  A    between atoms: N_21  and  C_22
REMARK                            x       y       z     vdW  Elec       q    Type
REMARK                         _______ _______ _______ _____ _____    ______ ____
ROOT
ATOM      1  C   UNL     1       2.690   2.011  17.615  0.00  0.00    +0.000 C 
ATOM      2  C   UNL     1       2.964   3.115  18.625  0.00  0.00    +0.000 C 
ATOM      3  N   UNL     1       2.944   2.644  19.991  0.00  0.00    +0.000 N 
ATOM      4  C   UNL     1       2.391   3.584  20.837  0.00  0.00    +0.000 C 
ATOM      5  O   UNL     1       2.480   3.536  22.051  0.00  0.00    +0.000 OA
ATOM      6  N   UNL     1       1.758   4.519  20.078  0.00  0.00    +0.000 N 
ATOM      7  C   UNL     1       1.825   4.156  18.760  0.00  0.00    +0.000 C 
ATOM      8  O   UNL     1       1.195   4.659  17.840  0.00  0.00    +0.000 OA
ATOM      9  H   UNL     1       3.547   1.929  20.374  0.00  0.00    +0.000 HD
ENDROOT
BRANCH   2  10
ATOM     10  C   UNL     1       4.284   3.824  18.268  0.00  0.00    +0.000 A 
ATOM     11  C   UNL     1       5.189   4.218  19.264  0.00  0.00    +0.000 A 
ATOM     12  C   UNL     1       6.423   4.779  18.928  0.00  0.00    +0.000 A 
ATOM     13  C   UNL     1       6.785   4.931  17.592  0.00  0.00    +0.000 A 
ATOM     14  C   UNL     1       5.915   4.534  16.572  0.00  0.00    +0.000 A 
ATOM     15  C   UNL     1       4.658   4.011  16.920  0.00  0.00    +0.000 A 
BRANCH  14  16
ATOM     16  C   UNL     1       6.331   4.582  15.121  0.00  0.00    +0.000 C 
ATOM     17  F   UNL     1       6.178   3.395  14.471  0.00  0.00    +0.000 F 
ATOM     18  F   UNL     1       5.598   5.487  14.412  0.00  0.00    +0.000 F 
ATOM     19  F   UNL     1       7.633   4.941  14.950  0.00  0.00    +0.000 F 
ENDBRANCH  14  16
ENDBRANCH   2  10
BRANCH   6  20
ATOM     20  C   UNL     1       1.339   5.827  20.545  0.00  0.00    +0.000 C 
BRANCH  20  21
ATOM     21  C   UNL     1       2.225   6.986  20.110  0.00  0.00    +0.000 C 
BRANCH  21  22
ATOM     22  C   UNL     1       1.535   8.296  20.443  0.00  0.00    +0.000 C 
ATOM     23  O   UNL     1       1.206   8.549  21.597  0.00  0.00    +0.000 OA
ATOM     24  N   UNL     1       1.318   9.106  19.337  0.00  0.00    +0.000 N 
ATOM     25  H   UNL     1       1.493   8.717  18.423  0.00  0.00    +0.000 HD
BRANCH  24  26
ATOM     26  C   UNL     1       0.698  10.381  19.387  0.00  0.00    +0.000 A 
ATOM     27  C   UNL     1      -0.512  10.600  20.055  0.00  0.00    +0.000 A 
ATOM     28  C   UNL     1      -1.117  11.854  20.060  0.00  0.00    +0.000 A 
ATOM     29  C   UNL     1      -0.507  12.904  19.400  0.00  0.00    +0.000 A 
ATOM     30  F   UNL     1      -1.093  14.113  19.396  0.00  0.00    +0.000 F 
ATOM     31  C   UNL     1       0.704  12.726  18.744  0.00  0.00    +0.000 A 
ATOM     32  C   UNL     1       1.319  11.460  18.747  0.00  0.00    +0.000 A 
ENDBRANCH  24  26
ENDBRANCH  21  22
ENDBRANCH  20  21
ENDBRANCH   6  20
TORSDOF 6
ENDMDL
MODEL 4
REMARK VINA RESULT:      -8.6      6.223      7.642
REMARK  Name = 
REMARK  7 active torsions:
REMARK  status: ('A' for Active; 'I' for Inactive)
REMARK    1  A    between atoms: C_1  and  C_2
REMARK    2  A    between atoms: C_2  and  C_3
REMARK    3  A    between atoms: C_7  and  C_8
REMARK    4  A    between atoms: N_16  and  C_17
REMARK    5  A    between atoms: C_17  and  C_18
REMARK    6  A    between atoms: C_18  and  C_19
REMARK    7  A    between atoms: N_21  and  C_22
REMARK                            x       y       z     vdW  Elec       q    Type
REMARK                         _______ _______ _______ _____ _____    ______ ____
ROOT
ATOM      1  C   UNL     1       2.742   1.897  17.823  0.00  0.00    +0.000 C 
ATOM      2  C   UNL     1       3.109   3.261  18.392  0.00  0.00    +0.000 C 
ATOM      3  N   UNL     1       3.168   3.269  19.835  0.00  0.00    +0.000 N 
ATOM      4  C   UNL     1       2.695   4.459  20.348  0.00  0.00    +0.000 C 
ATOM      5  O   UNL     1       2.862   4.811  21.503  0.00  0.00    +0.000 OA
ATOM      6  N   UNL     1       2.035   5.118  19.358  0.00  0.00    +0.000 N 
ATOM      7  C   UNL     1       2.007   4.337  18.234  0.00  0.00    +0.000 C 
ATOM      8  O   UNL     1       1.329   4.536  17.235  0.00  0.00    +0.000 OA
ATOM      9  H   UNL     1       3.777   2.694  20.401  0.00  0.00    +0.000 HD
ENDROOT
BRANCH   2  10
ATOM     10  C   UNL     1       4.419   3.751  17.748  0.00  0.00    +0.000 A 
ATOM     11  C   UNL     1       4.576   3.783  16.355  0.00  0.00    +0.000 A 
ATOM     12  C   UNL     1       5.732   4.312  15.777  0.00  0.00    +0.000 A 
ATOM     13  C   UNL     1       6.739   4.842  16.579  0.00  0.00    +0.000 A 
ATOM     14  C   UNL     1       6.609   4.843  17.971  0.00  0.00    +0.000 A 
ATOM     15  C   UNL     1       5.462   4.270  18.545  0.00  0.00    +0.000 A 
BRANCH  14  16
ATOM     16  C   UNL     1       7.633   5.516  18.855  0.00  0.00    +0.000 C 
ATOM     17  F   UNL     1       7.197   5.727  20.129  0.00  0.00    +0.000 F 
ATOM     18  F   UNL     1       8.769   4.771  18.973  0.00  0.00    +0.000 F 
ATOM     19  F   UNL     1       8.029   6.730  18.385  0.00  0.00    +0.000 F 
ENDBRANCH  14  16
ENDBRANCH   2  10
BRANCH   6  20
ATOM     20  C   UNL     1       1.680   6.524  19.384  0.00  0.00    +0.000 C 
BRANCH  20  21
ATOM     21  C   UNL     1       2.546   7.429  18.519  0.00  0.00    +0.000 C 
BRANCH  21  22
ATOM     22  C   UNL     1       1.884   8.790  18.399  0.00  0.00    +0.000 C 
ATOM     23  O   UNL     1       2.101   9.503  17.425  0.00  0.00    +0.000 OA
ATOM     24  N   UNL     1       1.074   9.110  19.480  0.00  0.00    +0.000 N 
ATOM     25  H   UNL     1       1.102   8.508  20.289  0.00  0.00    +0.000 HD
BRANCH  24  26
ATOM     26  C   UNL     1       0.342  10.319  19.602  0.00  0.00    +0.000 A 
ATOM     27  C   UNL     1       0.832  11.423  20.310  0.00  0.00    +0.000 A 
ATOM     28  C   UNL     1       0.079  12.586  20.444  0.00  0.00    +0.000 A 
ATOM     29  C   UNL     1      -1.172  12.655  19.861  0.00  0.00    +0.000 A 
ATOM     30  F   UNL     1      -1.905  13.774  19.996  0.00  0.00    +0.000 F 
ATOM     31  C   UNL     1      -1.680  11.586  19.135  0.00  0.00    +0.000 A 
ATOM     32  C   UNL     1      -0.915  10.414  18.993  0.00  0.00    +0.000 A 
ENDBRANCH  24  26
ENDBRANCH  21  22
ENDBRANCH  20  21
ENDBRANCH   6  20
TORSDOF 6
ENDMDL
MODEL 5
REMARK VINA RESULT:      -8.6      0.427      1.195
REMARK  Name = 
REMARK  7 active torsions:
REMARK  status: ('A' for Active; 'I' for Inactive)
REMARK    1  A    between atoms: C_1  and  C_2
REMARK    2  A    between atoms: C_2  and  C_3
REMARK    3  A    between atoms: C_7  and  C_8
REMARK    4  A    between atoms: N_16  and  C_17
REMARK    5  A    between atoms: C_17  and  C_18
REMARK    6  A    between atoms: C_18  and  C_19
REMARK    7  A    between atoms: N_21  and  C_22
REMARK                            x       y       z     vdW  Elec       q    Type
REMARK                         _______ _______ _______ _____ _____    ______ ____
ROOT
ATOM      1  C   UNL     1       4.126   3.678  16.579  0.00  0.00    +0.000 C 
ATOM      2  C   UNL     1       5.407   4.489  16.444  0.00  0.00    +0.000 C 
ATOM      3  N   UNL     1       6.439   4.064  17.360  0.00  0.00    +0.000 N 
ATOM      4  C   UNL     1       7.168   5.139  17.826  0.00  0.00    +0.000 C 
ATOM      5  O   UNL     1       8.232   5.032  18.409  0.00  0.00    +0.000 OA
ATOM      6  N   UNL     1       6.488   6.278  17.524  0.00  0.00    +0.000 N 
ATOM      7  C   UNL     1       5.294   5.952  16.939  0.00  0.00    +0.000 C 
ATOM      8  O   UNL     1       4.362   6.715  16.728  0.00  0.00    +0.000 OA
ATOM      9  H   UNL     1       6.844   3.139  17.400  0.00  0.00    +0.000 HD
ENDROOT
BRANCH   2  10
ATOM     10  C   UNL     1       5.877   4.466  14.978  0.00  0.00    +0.000 A 
ATOM     11  C   UNL     1       7.173   4.870  14.624  0.00  0.00    +0.000 A 
ATOM     12  C   UNL     1       7.622   4.763  13.306  0.00  0.00    +0.000 A 
ATOM     13  C   UNL     1       6.795   4.224  12.324  0.00  0.00    +0.000 A 
ATOM     14  C   UNL     1       5.503   3.795  12.643  0.00  0.00    +0.000 A 
ATOM     15  C   UNL     1       5.045   3.947  13.963  0.00  0.00    +0.000 A 
BRANCH  14  16
ATOM     16  C   UNL     1       4.630   3.102  11.622  0.00  0.00    +0.000 C 
ATOM     17  F   UNL     1       3.348   2.914  12.041  0.00  0.00    +0.000 F 
ATOM     18  F   UNL     1       4.538   3.818  10.465  0.00  0.00    +0.000 F 
ATOM     19  F   UNL     1       5.096   1.874  11.266  0.00  0.00    +0.000 F 
ENDBRANCH  14  16
ENDBRANCH   2  10
BRANCH   6  20
ATOM     20  C   UNL     1       7.050   7.615  17.542  0.00  0.00    +0.000 C 
BRANCH  20  21
ATOM     21  C   UNL     1       8.258   7.800  18.450  0.00  0.00    +0.000 C 
BRANCH  21  22
ATOM     22  C   UNL     1       8.572   9.279  18.570  0.00  0.00    +0.000 C 
ATOM     23  O   UNL     1       8.131  10.077  17.749  0.00  0.00    +0.000 OA
ATOM     24  N   UNL     1       9.392   9.587  19.647  0.00  0.00    +0.000 N 
ATOM     25  H   UNL     1       9.815   8.824  20.155  0.00  0.00    +0.000 HD
BRANCH  24  26
ATOM     26  C   UNL     1       9.822  10.898  19.978  0.00  0.00    +0.000 A 
ATOM     27  C   UNL     1       9.243  11.635  21.017  0.00  0.00    +0.000 A 
ATOM     28  C   UNL     1       9.661  12.933  21.300  0.00  0.00    +0.000 A 
ATOM     29  C   UNL     1      10.670  13.500  20.546  0.00  0.00    +0.000 A 
ATOM     30  F   UNL     1      11.069  14.756  20.811  0.00  0.00    +0.000 F 
ATOM     31  C   UNL     1      11.280  12.789  19.521  0.00  0.00    +0.000 A 
ATOM     32  C   UNL     1      10.863  11.475  19.241  0.00  0.00    +0.000 A 
ENDBRANCH  24  26
ENDBRANCH  21  22
ENDBRANCH  20  21
ENDBRANCH   6  20
TORSDOF 6
ENDMDL
MODEL 6
REMARK VINA RESULT:      -8.6      3.712      5.205
REMARK  Name = 
REMARK  7 active torsions:
REMARK  status: ('A' for Active; 'I' for Inactive)
REMARK    1  A    between atoms: C_1  and  C_2
REMARK    2  A    between atoms: C_2  and  C_3
REMARK    3  A    between atoms: C_7  and  C_8
REMARK    4  A    between atoms: N_16  and  C_17
REMARK    5  A    between atoms: C_17  and  C_18
REMARK    6  A    between atoms: C_18  and  C_19
REMARK    7  A    between atoms: N_21  and  C_22
REMARK                            x       y       z     vdW  Elec       q    Type
REMARK                         _______ _______ _______ _____ _____    ______ ____
ROOT
ATOM      1  C   UNL     1       4.950   3.228  19.063  0.00  0.00    +0.000 C 
ATOM      2  C   UNL     1       4.868   4.612  18.436  0.00  0.00    +0.000 C 
ATOM      3  N   UNL     1       4.855   4.574  16.993  0.00  0.00    +0.000 N 
ATOM      4  C   UNL     1       5.562   5.633  16.458  0.00  0.00    +0.000 C 
ATOM      5  O   UNL     1       5.499   5.964  15.287  0.00  0.00    +0.000 OA
ATOM      6  N   UNL     1       6.304   6.193  17.450  0.00  0.00    +0.000 N 
ATOM      7  C   UNL     1       6.149   5.466  18.599  0.00  0.00    +0.000 C 
ATOM      8  O   UNL     1       6.822   5.572  19.616  0.00  0.00    +0.000 OA
ATOM      9  H   UNL     1       4.165   4.104  16.424  0.00  0.00    +0.000 HD
ENDROOT
BRANCH   2  10
ATOM     10  C   UNL     1       3.656   5.367  19.014  0.00  0.00    +0.000 A 
ATOM     11  C   UNL     1       2.997   4.909  20.164  0.00  0.00    +0.000 A 
ATOM     12  C   UNL     1       1.956   5.646  20.733  0.00  0.00    +0.000 A 
ATOM     13  C   UNL     1       1.574   6.865  20.181  0.00  0.00    +0.000 A 
ATOM     14  C   UNL     1       2.221   7.361  19.044  0.00  0.00    +0.000 A 
ATOM     15  C   UNL     1       3.237   6.592  18.453  0.00  0.00    +0.000 A 
BRANCH  14  16
ATOM     16  C   UNL     1       1.902   8.733  18.495  0.00  0.00    +0.000 C 
ATOM     17  F   UNL     1       2.962   9.333  17.885  0.00  0.00    +0.000 F 
ATOM     18  F   UNL     1       0.914   8.687  17.557  0.00  0.00    +0.000 F 
ATOM     19  F   UNL     1       1.473   9.603  19.449  0.00  0.00    +0.000 F 
ENDBRANCH  14  16
ENDBRANCH   2  10
BRANCH   6  20
ATOM     20  C   UNL     1       6.922   7.505  17.391  0.00  0.00    +0.000 C 
BRANCH  20  21
ATOM     21  C   UNL     1       8.166   7.677  18.250  0.00  0.00    +0.000 C 
BRANCH  21  22
ATOM     22  C   UNL     1       8.452   9.156  18.427  0.00  0.00    +0.000 C 
ATOM     23  O   UNL     1       7.930   9.983  17.686  0.00  0.00    +0.000 OA
ATOM     24  N   UNL     1       9.345   9.431  19.453  0.00  0.00    +0.000 N 
ATOM     25  H   UNL     1       9.825   8.655  19.885  0.00  0.00    +0.000 HD
BRANCH  24  26
ATOM     26  C   UNL     1       9.768  10.734  19.821  0.00  0.00    +0.000 A 
ATOM     27  C   UNL     1      10.767  11.422  19.123  0.00  0.00    +0.000 A 
ATOM     28  C   UNL     1      11.188  12.687  19.526  0.00  0.00    +0.000 A 
ATOM     29  C   UNL     1      10.602  13.277  20.629  0.00  0.00    +0.000 A 
ATOM     30  F   UNL     1      11.012  14.494  21.025  0.00  0.00    +0.000 F 
ATOM     31  C   UNL     1       9.594  12.631  21.332  0.00  0.00    +0.000 A 
ATOM     32  C   UNL     1       9.164  11.356  20.920  0.00  0.00    +0.000 A 
ENDBRANCH  24  26
ENDBRANCH  21  22
ENDBRANCH  20  21
ENDBRANCH   6  20
TORSDOF 6
ENDMDL
MODEL 7
REMARK VINA RESULT:      -8.6      8.509     11.020
REMARK  Name = 
REMARK  7 active torsions:
REMARK  status: ('A' for Active; 'I' for Inactive)
REMARK    1  A    between atoms: C_1  and  C_2
REMARK    2  A    between atoms: C_2  and  C_3
REMARK    3  A    between atoms: C_7  and  C_8
REMARK    4  A    between atoms: N_16  and  C_17
REMARK    5  A    between atoms: C_17  and  C_18
REMARK    6  A    between atoms: C_18  and  C_19
REMARK    7  A    between atoms: N_21  and  C_22
REMARK                            x       y       z     vdW  Elec       q    Type
REMARK                         _______ _______ _______ _____ _____    ______ ____
ROOT
ATOM      1  C   UNL     1      -0.872  13.780  20.527  0.00  0.00    +0.000 C 
ATOM      2  C   UNL     1      -0.783  12.269  20.684  0.00  0.00    +0.000 C 
ATOM      3  N   UNL     1      -1.352  11.800  21.926  0.00  0.00    +0.000 N 
ATOM      4  C   UNL     1      -0.627  10.743  22.440  0.00  0.00    +0.000 C 
ATOM      5  O   UNL     1      -1.030  10.020  23.334  0.00  0.00    +0.000 OA
ATOM      6  N   UNL     1       0.563  10.684  21.784  0.00  0.00    +0.000 N 
ATOM      7  C   UNL     1       0.652  11.732  20.909  0.00  0.00    +0.000 C 
ATOM      8  O   UNL     1       1.658  12.091  20.313  0.00  0.00    +0.000 OA
ATOM      9  H   UNL     1      -2.309  11.931  22.220  0.00  0.00    +0.000 HD
ENDROOT
BRANCH   2  10
ATOM     10  C   UNL     1      -1.413  11.587  19.455  0.00  0.00    +0.000 A 
ATOM     11  C   UNL     1      -0.720  10.602  18.737  0.00  0.00    +0.000 A 
ATOM     12  C   UNL     1      -1.330   9.925  17.679  0.00  0.00    +0.000 A 
ATOM     13  C   UNL     1      -2.652  10.200  17.338  0.00  0.00    +0.000 A 
ATOM     14  C   UNL     1      -3.379  11.164  18.043  0.00  0.00    +0.000 A 
ATOM     15  C   UNL     1      -2.743  11.870  19.077  0.00  0.00    +0.000 A 
BRANCH  14  16
ATOM     16  C   UNL     1      -4.846  11.398  17.768  0.00  0.00    +0.000 C 
ATOM     17  F   UNL     1      -5.149  11.442  16.440  0.00  0.00    +0.000 F 
ATOM     18  F   UNL     1      -5.625  10.408  18.290  0.00  0.00    +0.000 F 
ATOM     19  F   UNL     1      -5.311  12.560  18.300  0.00  0.00    +0.000 F 
ENDBRANCH  14  16
ENDBRANCH   2  10
BRANCH   6  20
ATOM     20  C   UNL     1       1.461   9.544  21.787  0.00  0.00    +0.000 C 
BRANCH  20  21
ATOM     21  C   UNL     1       0.844   8.230  21.332  0.00  0.00    +0.000 C 
BRANCH  21  22
ATOM     22  C   UNL     1       1.669   7.658  20.193  0.00  0.00    +0.000 C 
ATOM     23  O   UNL     1       1.950   8.350  19.220  0.00  0.00    +0.000 OA
ATOM     24  N   UNL     1       2.019   6.327  20.375  0.00  0.00    +0.000 N 
ATOM     25  H   UNL     1       1.595   5.825  21.141  0.00  0.00    +0.000 HD
BRANCH  24  26
ATOM     26  C   UNL     1       2.792   5.569  19.458  0.00  0.00    +0.000 A 
ATOM     27  C   UNL     1       4.187   5.492  19.541  0.00  0.00    +0.000 A 
ATOM     28  C   UNL     1       4.926   4.769  18.608  0.00  0.00    +0.000 A 
ATOM     29  C   UNL     1       4.269   4.109  17.587  0.00  0.00    +0.000 A 
ATOM     30  F   UNL     1       4.980   3.417  16.681  0.00  0.00    +0.000 F 
ATOM     31  C   UNL     1       2.884   4.148  17.488  0.00  0.00    +0.000 A 
ATOM     32  C   UNL     1       2.138   4.872  18.436  0.00  0.00    +0.000 A 
ENDBRANCH  24  26
ENDBRANCH  21  22
ENDBRANCH  20  21
ENDBRANCH   6  20
TORSDOF 6
ENDMDL
MODEL 8
REMARK VINA RESULT:      -8.5      5.900      7.242
REMARK  Name = 
REMARK  7 active torsions:
REMARK  status: ('A' for Active; 'I' for Inactive)
REMARK    1  A    between atoms: C_1  and  C_2
REMARK    2  A    between atoms: C_2  and  C_3
REMARK    3  A    between atoms: C_7  and  C_8
REMARK    4  A    between atoms: N_16  and  C_17
REMARK    5  A    between atoms: C_17  and  C_18
REMARK    6  A    between atoms: C_18  and  C_19
REMARK    7  A    between atoms: N_21  and  C_22
REMARK                            x       y       z     vdW  Elec       q    Type
REMARK                         _______ _______ _______ _____ _____    ______ ____
ROOT
ATOM      1  C   UNL     1       2.657   2.022  17.581  0.00  0.00    +0.000 C 
ATOM      2  C   UNL     1       2.957   3.188  18.512  0.00  0.00    +0.000 C 
ATOM      3  N   UNL     1       2.918   2.816  19.907  0.00  0.00    +0.000 N 
ATOM      4  C   UNL     1       2.388   3.830  20.680  0.00  0.00    +0.000 C 
ATOM      5  O   UNL     1       2.470   3.866  21.895  0.00  0.00    +0.000 OA
ATOM      6  N   UNL     1       1.784   4.725  19.853  0.00  0.00    +0.000 N 
ATOM      7  C   UNL     1       1.847   4.267  18.564  0.00  0.00    +0.000 C 
ATOM      8  O   UNL     1       1.235   4.720  17.607  0.00  0.00    +0.000 OA
ATOM      9  H   UNL     1       3.499   2.115  20.344  0.00  0.00    +0.000 HD
ENDROOT
BRANCH   2  10
ATOM     10  C   UNL     1       4.297   3.832  18.113  0.00  0.00    +0.000 A 
ATOM     11  C   UNL     1       5.259   4.165  19.078  0.00  0.00    +0.000 A 
ATOM     12  C   UNL     1       6.506   4.666  18.703  0.00  0.00    +0.000 A 
ATOM     13  C   UNL     1       6.827   4.819  17.356  0.00  0.00    +0.000 A 
ATOM     14  C   UNL     1       5.899   4.481  16.365  0.00  0.00    +0.000 A 
ATOM     15  C   UNL     1       4.631   4.018  16.754  0.00  0.00    +0.000 A 
BRANCH  14  16
ATOM     16  C   UNL     1       6.263   4.528  14.900  0.00  0.00    +0.000 C 
ATOM     17  F   UNL     1       7.496   5.058  14.663  0.00  0.00    +0.000 F 
ATOM     18  F   UNL     1       6.283   3.284  14.341  0.00  0.00    +0.000 F 
ATOM     19  F   UNL     1       5.389   5.258  14.155  0.00  0.00    +0.000 F 
ENDBRANCH  14  16
ENDBRANCH   2  10
BRANCH   6  20
ATOM     20  C   UNL     1       1.400   6.074  20.222  0.00  0.00    +0.000 C 
BRANCH  20  21
ATOM     21  C   UNL     1       2.441   7.147  19.935  0.00  0.00    +0.000 C 
BRANCH  21  22
ATOM     22  C   UNL     1       1.740   8.425  19.513  0.00  0.00    +0.000 C 
ATOM     23  O   UNL     1       1.951   8.915  18.409  0.00  0.00    +0.000 OA
ATOM     24  N   UNL     1       0.901   8.946  20.489  0.00  0.00    +0.000 N 
ATOM     25  H   UNL     1       0.934   8.537  21.411  0.00  0.00    +0.000 HD
BRANCH  24  26
ATOM     26  C   UNL     1       0.130  10.127  20.336  0.00  0.00    +0.000 A 
ATOM     27  C   UNL     1      -0.917  10.222  19.413  0.00  0.00    +0.000 A 
ATOM     28  C   UNL     1      -1.637  11.404  19.258  0.00  0.00    +0.000 A 
ATOM     29  C   UNL     1      -1.317  12.500  20.036  0.00  0.00    +0.000 A 
ATOM     30  F   UNL     1      -2.004  13.645  19.883  0.00  0.00    +0.000 F 
ATOM     31  C   UNL     1      -0.297  12.433  20.976  0.00  0.00    +0.000 A 
ATOM     32  C   UNL     1       0.425  11.236  21.137  0.00  0.00    +0.000 A 
ENDBRANCH  24  26
ENDBRANCH  21  22
ENDBRANCH  20  21
ENDBRANCH   6  20
TORSDOF 6
ENDMDL
MODEL 9
REMARK VINA RESULT:      -8.5      5.580      6.906
REMARK  Name = 
REMARK  7 active torsions:
REMARK  status: ('A' for Active; 'I' for Inactive)
REMARK    1  A    between atoms: C_1  and  C_2
REMARK    2  A    between atoms: C_2  and  C_3
REMARK    3  A    between atoms: C_7  and  C_8
REMARK    4  A    between atoms: N_16  and  C_17
REMARK    5  A    between atoms: C_17  and  C_18
REMARK    6  A    between atoms: C_18  and  C_19
REMARK    7  A    between atoms: N_21  and  C_22
REMARK                            x       y       z     vdW  Elec       q    Type
REMARK                         _______ _______ _______ _____ _____    ______ ____
ROOT
ATOM      1  C   UNL     1       3.692   1.987  18.620  0.00  0.00    +0.000 C 
ATOM      2  C   UNL     1       3.676   3.508  18.553  0.00  0.00    +0.000 C 
ATOM      3  N   UNL     1       3.492   4.124  19.846  0.00  0.00    +0.000 N 
ATOM      4  C   UNL     1       2.710   5.258  19.753  0.00  0.00    +0.000 C 
ATOM      5  O   UNL     1       2.609   6.084  20.643  0.00  0.00    +0.000 OA
ATOM      6  N   UNL     1       2.104   5.258  18.535  0.00  0.00    +0.000 N 
ATOM      7  C   UNL     1       2.421   4.105  17.870  0.00  0.00    +0.000 C 
ATOM      8  O   UNL     1       1.892   3.694  16.846  0.00  0.00    +0.000 OA
ATOM      9  H   UNL     1       4.103   4.010  20.643  0.00  0.00    +0.000 HD
ENDROOT
BRANCH   2  10
ATOM     10  C   UNL     1       4.947   4.004  17.841  0.00  0.00    +0.000 A 
ATOM     11  C   UNL     1       6.100   4.342  18.564  0.00  0.00    +0.000 A 
ATOM     12  C   UNL     1       7.277   4.706  17.907  0.00  0.00    +0.000 A 
ATOM     13  C   UNL     1       7.332   4.713  16.516  0.00  0.00    +0.000 A 
ATOM     14  C   UNL     1       6.206   4.366  15.761  0.00  0.00    +0.000 A 
ATOM     15  C   UNL     1       5.015   4.043  16.431  0.00  0.00    +0.000 A 
BRANCH  14  16
ATOM     16  C   UNL     1       6.274   4.254  14.256  0.00  0.00    +0.000 C 
ATOM     17  F   UNL     1       5.179   4.761  13.624  0.00  0.00    +0.000 F 
ATOM     18  F   UNL     1       7.341   4.932  13.744  0.00  0.00    +0.000 F 
ATOM     19  F   UNL     1       6.402   2.972  13.820  0.00  0.00    +0.000 F 
ENDBRANCH  14  16
ENDBRANCH   2  10
BRANCH   6  20
ATOM     20  C   UNL     1       1.472   6.410  17.918  0.00  0.00    +0.000 C 
BRANCH  20  21
ATOM     21  C   UNL     1       2.298   7.688  17.931  0.00  0.00    +0.000 C 
BRANCH  21  22
ATOM     22  C   UNL     1       1.503   8.791  18.604  0.00  0.00    +0.000 C 
ATOM     23  O   UNL     1       1.018   9.702  17.940  0.00  0.00    +0.000 OA
ATOM     24  N   UNL     1       1.423   8.657  19.983  0.00  0.00    +0.000 N 
ATOM     25  H   UNL     1       1.995   7.953  20.425  0.00  0.00    +0.000 HD
BRANCH  24  26
ATOM     26  C   UNL     1       0.730   9.553  20.837  0.00  0.00    +0.000 A 
ATOM     27  C   UNL     1       0.733  10.937  20.630  0.00  0.00    +0.000 A 
ATOM     28  C   UNL     1       0.073  11.798  21.503  0.00  0.00    +0.000 A 
ATOM     29  C   UNL     1      -0.602  11.276  22.589  0.00  0.00    +0.000 A 
ATOM     30  F   UNL     1      -1.233  12.106  23.438  0.00  0.00    +0.000 F 
ATOM     31  C   UNL     1      -0.642   9.906  22.813  0.00  0.00    +0.000 A 
ATOM     32  C   UNL     1       0.018   9.036  21.926  0.00  0.00    +0.000 A 
ENDBRANCH  24  26
ENDBRANCH  21  22
ENDBRANCH  20  21
ENDBRANCH   6  20
TORSDOF 6
ENDMDL
