MODEL 1
REMARK VINA RESULT:      -9.5      0.000      0.000
REMARK  Name = 
REMARK  5 active torsions:
REMARK  status: ('A' for Active; 'I' for Inactive)
REMARK    1  A    between atoms: C_1  and  C_2
REMARK    2  A    between atoms: C_10  and  N_11
REMARK    3  A    between atoms: C_12  and  C_14
REMARK    4  A    between atoms: C_17  and  C_18
REMARK    5  A    between atoms: C_18  and  N_19
REMARK                            x       y       z     vdW  Elec       q    Type
REMARK                         _______ _______ _______ _____ _____    ______ ____
ROOT
ATOM      1  C   UNL     1       2.734   7.684  18.227  0.00  0.00    +0.000 A 
ATOM      2  C   UNL     1       3.611   7.323  17.194  0.00  0.00    +0.000 A 
ATOM      3  C   UNL     1       4.474   6.243  17.366  0.00  0.00    +0.000 A 
ATOM      4  C   UNL     1       4.462   5.512  18.561  0.00  0.00    +0.000 A 
ATOM      5  C   UNL     1       3.572   5.865  19.581  0.00  0.00    +0.000 A 
ATOM      6  C   UNL     1       2.721   6.950  19.421  0.00  0.00    +0.000 A 
ENDROOT
BRANCH   1   8
ATOM      7  N   UNL     1       2.183   9.975  18.778  0.00  0.00    +0.000 N 
ATOM      8  C   UNL     1       1.807   8.826  18.129  0.00  0.00    +0.000 C 
ATOM      9  O   UNL     1       0.790   8.738  17.450  0.00  0.00    +0.000 OA
ATOM     10  H   UNL     1       2.993  10.000  19.379  0.00  0.00    +0.000 HD
BRANCH   7  20
ATOM     11  C   UNL     1      -0.868  10.418  23.075  0.00  0.00    +0.000 C 
ATOM     12  C   UNL     1      -0.229  11.077  21.921  0.00  0.00    +0.000 A 
ATOM     13  N   UNL     1       0.242  10.368  20.846  0.00  0.00    +0.000 NA
ATOM     14  C   UNL     1       0.711  11.309  20.051  0.00  0.00    +0.000 A 
ATOM     15  N   UNL     1       0.543  12.522  20.648  0.00  0.00    +0.000 N 
ATOM     16  N   UNL     1      -0.045  12.404  21.850  0.00  0.00    +0.000 NA
ATOM     17  C   UNL     1       1.055  13.784  20.159  0.00  0.00    +0.000 C 
ATOM     18  C   UNL     1       1.435  13.702  18.680  0.00  0.00    +0.000 C 
ATOM     19  C   UNL     1       2.215  12.419  18.391  0.00  0.00    +0.000 C 
ATOM     20  C   UNL     1       1.374  11.171  18.721  0.00  0.00    +0.000 C 
ENDBRANCH   7  20
ENDBRANCH   1   8
BRANCH   4  21
ATOM     21  C   UNL     1       5.350   4.319  18.705  0.00  0.00    +0.000 C 
BRANCH  21  22
ATOM     22  N   UNL     1       4.720   3.015  18.578  0.00  0.00    +0.000 N 
ATOM     23  C   UNL     1       3.543   3.114  17.865  0.00  0.00    +0.000 C 
ATOM     24  O   UNL     1       3.382   3.424  16.700  0.00  0.00    +0.000 OA
ATOM     25  C   UNL     1       2.463   2.978  18.833  0.00  0.00    +0.000 A 
ATOM     26  C   UNL     1       1.225   3.584  18.808  0.00  0.00    +0.000 A 
ATOM     27  C   UNL     1       0.538   3.663  20.020  0.00  0.00    +0.000 A 
ATOM     28  C   UNL     1       1.082   3.113  21.202  0.00  0.00    +0.000 A 
ATOM     29  C   UNL     1       2.339   2.503  21.199  0.00  0.00    +0.000 A 
ATOM     30  C   UNL     1       3.014   2.483  19.995  0.00  0.00    +0.000 A 
ATOM     31  C   UNL     1       4.452   2.369  19.770  0.00  0.00    +0.000 C 
ATOM     32  O   UNL     1       5.213   1.877  20.581  0.00  0.00    +0.000 OA
ENDBRANCH  21  22
ENDBRANCH   4  21
TORSDOF 4
ENDMDL
MODEL 2
REMARK VINA RESULT:      -9.3      1.222      2.050
REMARK  Name = 
REMARK  5 active torsions:
REMARK  status: ('A' for Active; 'I' for Inactive)
REMARK    1  A    between atoms: C_1  and  C_2
REMARK    2  A    between atoms: C_10  and  N_11
REMARK    3  A    between atoms: C_12  and  C_14
REMARK    4  A    between atoms: C_17  and  C_18
REMARK    5  A    between atoms: C_18  and  N_19
REMARK                            x       y       z     vdW  Elec       q    Type
REMARK                         _______ _______ _______ _____ _____    ______ ____
ROOT
ATOM      1  C   UNL     1       2.453   7.864  18.616  0.00  0.00    +0.000 A 
ATOM      2  C   UNL     1       2.480   7.031  19.745  0.00  0.00    +0.000 A 
ATOM      3  C   UNL     1       3.378   5.968  19.797  0.00  0.00    +0.000 A 
ATOM      4  C   UNL     1       4.259   5.735  18.734  0.00  0.00    +0.000 A 
ATOM      5  C   UNL     1       4.241   6.579  17.619  0.00  0.00    +0.000 A 
ATOM      6  C   UNL     1       3.337   7.631  17.555  0.00  0.00    +0.000 A 
ENDROOT
BRANCH   1   8
ATOM      7  N   UNL     1       0.667   9.216  19.531  0.00  0.00    +0.000 N 
ATOM      8  C   UNL     1       1.518   8.995  18.478  0.00  0.00    +0.000 C 
ATOM      9  O   UNL     1       1.562   9.714  17.485  0.00  0.00    +0.000 OA
ATOM     10  H   UNL     1       0.610   8.574  20.306  0.00  0.00    +0.000 HD
BRANCH   7  20
ATOM     11  C   UNL     1       3.035  13.727  20.949  0.00  0.00    +0.000 C 
ATOM     12  C   UNL     1       1.899  13.067  20.278  0.00  0.00    +0.000 A 
ATOM     13  N   UNL     1       1.591  11.748  20.495  0.00  0.00    +0.000 NA
ATOM     14  C   UNL     1       0.529  11.562  19.736  0.00  0.00    +0.000 A 
ATOM     15  N   UNL     1       0.241  12.721  19.081  0.00  0.00    +0.000 N 
ATOM     16  N   UNL     1       1.106  13.698  19.399  0.00  0.00    +0.000 NA
ATOM     17  C   UNL     1      -0.763  12.884  18.051  0.00  0.00    +0.000 C 
ATOM     18  C   UNL     1      -1.774  11.737  18.064  0.00  0.00    +0.000 C 
ATOM     19  C   UNL     1      -1.064  10.390  18.207  0.00  0.00    +0.000 C 
ATOM     20  C   UNL     1      -0.268  10.319  19.525  0.00  0.00    +0.000 C 
ENDBRANCH   7  20
ENDBRANCH   1   8
BRANCH   4  21
ATOM     21  C   UNL     1       5.259   4.628  18.833  0.00  0.00    +0.000 C 
BRANCH  21  22
ATOM     22  N   UNL     1       4.766   3.278  18.616  0.00  0.00    +0.000 N 
ATOM     23  C   UNL     1       3.648   3.297  17.807  0.00  0.00    +0.000 C 
ATOM     24  O   UNL     1       3.557   3.632  16.641  0.00  0.00    +0.000 OA
ATOM     25  C   UNL     1       2.509   3.029  18.673  0.00  0.00    +0.000 A 
ATOM     26  C   UNL     1       1.226   3.522  18.558  0.00  0.00    +0.000 A 
ATOM     27  C   UNL     1       0.436   3.496  19.708  0.00  0.00    +0.000 A 
ATOM     28  C   UNL     1       0.928   2.954  20.917  0.00  0.00    +0.000 A 
ATOM     29  C   UNL     1       2.231   2.461  21.005  0.00  0.00    +0.000 A 
ATOM     30  C   UNL     1       3.004   2.544  19.864  0.00  0.00    +0.000 A 
ATOM     31  C   UNL     1       4.460   2.568  19.761  0.00  0.00    +0.000 C 
ATOM     32  O   UNL     1       5.193   2.119  20.621  0.00  0.00    +0.000 OA
ENDBRANCH  21  22
ENDBRANCH   4  21
TORSDOF 4
ENDMDL
MODEL 3
REMARK VINA RESULT:      -9.3      1.543      2.426
REMARK  Name = 
REMARK  5 active torsions:
REMARK  status: ('A' for Active; 'I' for Inactive)
REMARK    1  A    between atoms: C_1  and  C_2
REMARK    2  A    between atoms: C_10  and  N_11
REMARK    3  A    between atoms: C_12  and  C_14
REMARK    4  A    between atoms: C_17  and  C_18
REMARK    5  A    between atoms: C_18  and  N_19
REMARK                            x       y       z     vdW  Elec       q    Type
REMARK                         _______ _______ _______ _____ _____    ______ ____
ROOT
ATOM      1  C   UNL     1       2.248   7.303  19.418  0.00  0.00    +0.000 A 
ATOM      2  C   UNL     1       2.444   7.123  18.041  0.00  0.00    +0.000 A 
ATOM      3  C   UNL     1       3.288   6.112  17.588  0.00  0.00    +0.000 A 
ATOM      4  C   UNL     1       3.932   5.268  18.502  0.00  0.00    +0.000 A 
ATOM      5  C   UNL     1       3.719   5.439  19.874  0.00  0.00    +0.000 A 
ATOM      6  C   UNL     1       2.890   6.456  20.330  0.00  0.00    +0.000 A 
ENDROOT
BRANCH   1   8
ATOM      7  N   UNL     1       1.127   9.430  19.152  0.00  0.00    +0.000 N 
ATOM      8  C   UNL     1       1.388   8.363  19.974  0.00  0.00    +0.000 C 
ATOM      9  O   UNL     1       0.904   8.240  21.094  0.00  0.00    +0.000 OA
ATOM     10  H   UNL     1       1.587   9.534  18.261  0.00  0.00    +0.000 HD
BRANCH   7  20
ATOM     11  C   UNL     1       3.410  14.125  18.306  0.00  0.00    +0.000 C 
ATOM     12  C   UNL     1       2.169  13.360  18.537  0.00  0.00    +0.000 A 
ATOM     13  N   UNL     1       2.183  12.089  19.053  0.00  0.00    +0.000 NA
ATOM     14  C   UNL     1       0.903  11.778  19.111  0.00  0.00    +0.000 A 
ATOM     15  N   UNL     1       0.170  12.818  18.626  0.00  0.00    +0.000 N 
ATOM     16  N   UNL     1       0.952  13.839  18.240  0.00  0.00    +0.000 NA
ATOM     17  C   UNL     1      -1.259  12.810  18.394  0.00  0.00    +0.000 C 
ATOM     18  C   UNL     1      -1.946  11.671  19.149  0.00  0.00    +0.000 C 
ATOM     19  C   UNL     1      -1.158  10.369  18.999  0.00  0.00    +0.000 C 
ATOM     20  C   UNL     1       0.265  10.511  19.573  0.00  0.00    +0.000 C 
ENDBRANCH   7  20
ENDBRANCH   1   8
BRANCH   4  21
ATOM     21  C   UNL     1       4.785   4.149  17.999  0.00  0.00    +0.000 C 
BRANCH  21  22
ATOM     22  N   UNL     1       4.252   2.804  18.143  0.00  0.00    +0.000 N 
ATOM     23  C   UNL     1       2.947   2.752  17.698  0.00  0.00    +0.000 C 
ATOM     24  O   UNL     1       2.519   2.916  16.572  0.00  0.00    +0.000 OA
ATOM     25  C   UNL     1       2.111   2.664  18.887  0.00  0.00    +0.000 A 
ATOM     26  C   UNL     1       0.850   3.189  19.073  0.00  0.00    +0.000 A 
ATOM     27  C   UNL     1       0.430   3.365  20.393  0.00  0.00    +0.000 A 
ATOM     28  C   UNL     1       1.254   2.987  21.476  0.00  0.00    +0.000 A 
ATOM     29  C   UNL     1       2.528   2.456  21.258  0.00  0.00    +0.000 A 
ATOM     30  C   UNL     1       2.934   2.338  19.944  0.00  0.00    +0.000 A 
ATOM     31  C   UNL     1       4.296   2.284  19.422  0.00  0.00    +0.000 C 
ATOM     32  O   UNL     1       5.249   1.934  20.092  0.00  0.00    +0.000 OA
ENDBRANCH  21  22
ENDBRANCH   4  21
TORSDOF 4
ENDMDL
MODEL 4
REMARK VINA RESULT:      -9.2      3.034      4.145
REMARK  Name = 
REMARK  5 active torsions:
REMARK  status: ('A' for Active; 'I' for Inactive)
REMARK    1  A    between atoms: C_1  and  C_2
REMARK    2  A    between atoms: C_10  and  N_11
REMARK    3  A    between atoms: C_12  and  C_14
REMARK    4  A    between atoms: C_17  and  C_18
REMARK    5  A    between atoms: C_18  and  N_19
REMARK                            x       y       z     vdW  Elec       q    Type
REMARK                         _______ _______ _______ _____ _____    ______ ____
ROOT
ATOM      1  C   UNL     1       0.973  10.010  19.257  0.00  0.00    +0.000 A 
ATOM      2  C   UNL     1       1.524   9.536  18.058  0.00  0.00    +0.000 A 
ATOM      3  C   UNL     1       2.113   8.275  18.018  0.00  0.00    +0.000 A 
ATOM      4  C   UNL     1       2.147   7.475  19.168  0.00  0.00    +0.000 A 
ATOM      5  C   UNL     1       1.579   7.944  20.357  0.00  0.00    +0.000 A 
ATOM      6  C   UNL     1       1.005   9.207  20.405  0.00  0.00    +0.000 A 
ENDROOT
BRANCH   1   8
ATOM      7  N   UNL     1      -0.860  11.390  20.027  0.00  0.00    +0.000 N 
ATOM      8  C   UNL     1       0.352  11.340  19.383  0.00  0.00    +0.000 C 
ATOM      9  O   UNL     1       0.938  12.336  18.974  0.00  0.00    +0.000 OA
ATOM     10  H   UNL     1      -1.347  10.550  20.299  0.00  0.00    +0.000 HD
BRANCH   7  20
ATOM     11  C   UNL     1      -5.660  11.344  17.809  0.00  0.00    +0.000 C 
ATOM     12  C   UNL     1      -4.744  11.943  18.798  0.00  0.00    +0.000 A 
ATOM     13  N   UNL     1      -3.386  11.766  18.733  0.00  0.00    +0.000 NA
ATOM     14  C   UNL     1      -2.947  12.459  19.766  0.00  0.00    +0.000 A 
ATOM     15  N   UNL     1      -4.009  13.002  20.423  0.00  0.00    +0.000 N 
ATOM     16  N   UNL     1      -5.172  12.680  19.834  0.00  0.00    +0.000 NA
ATOM     17  C   UNL     1      -3.951  13.711  21.683  0.00  0.00    +0.000 C 
ATOM     18  C   UNL     1      -2.530  14.177  22.002  0.00  0.00    +0.000 C 
ATOM     19  C   UNL     1      -1.520  13.063  21.727  0.00  0.00    +0.000 C 
ATOM     20  C   UNL     1      -1.545  12.644  20.244  0.00  0.00    +0.000 C 
ENDBRANCH   7  20
ENDBRANCH   1   8
BRANCH   4  21
ATOM     21  C   UNL     1       2.727   6.099  19.093  0.00  0.00    +0.000 C 
BRANCH  21  22
ATOM     22  N   UNL     1       1.825   4.993  19.368  0.00  0.00    +0.000 N 
ATOM     23  C   UNL     1       2.261   4.276  20.464  0.00  0.00    +0.000 C 
ATOM     24  O   UNL     1       2.347   4.634  21.623  0.00  0.00    +0.000 OA
ATOM     25  C   UNL     1       2.815   3.032  19.948  0.00  0.00    +0.000 A 
ATOM     26  C   UNL     1       3.871   2.304  20.453  0.00  0.00    +0.000 A 
ATOM     27  C   UNL     1       4.498   1.416  19.578  0.00  0.00    +0.000 A 
ATOM     28  C   UNL     1       4.041   1.255  18.251  0.00  0.00    +0.000 A 
ATOM     29  C   UNL     1       2.968   2.006  17.766  0.00  0.00    +0.000 A 
ATOM     30  C   UNL     1       2.398   2.910  18.639  0.00  0.00    +0.000 A 
ATOM     31  C   UNL     1       1.633   4.112  18.321  0.00  0.00    +0.000 C 
ATOM     32  O   UNL     1       1.054   4.269  17.264  0.00  0.00    +0.000 OA
ENDBRANCH  21  22
ENDBRANCH   4  21
TORSDOF 4
ENDMDL
MODEL 5
REMARK VINA RESULT:      -9.1      2.056      2.647
REMARK  Name = 
REMARK  5 active torsions:
REMARK  status: ('A' for Active; 'I' for Inactive)
REMARK    1  A    between atoms: C_1  and  C_2
REMARK    2  A    between atoms: C_10  and  N_11
REMARK    3  A    between atoms: C_12  and  C_14
REMARK    4  A    between atoms: C_17  and  C_18
REMARK    5  A    between atoms: C_18  and  N_19
REMARK                            x       y       z     vdW  Elec       q    Type
REMARK                         _______ _______ _______ _____ _____    ______ ____
ROOT
ATOM      1  C   UNL     1       2.646   7.914  17.836  0.00  0.00    +0.000 A 
ATOM      2  C   UNL     1       1.872   6.762  18.042  0.00  0.00    +0.000 A 
ATOM      3  C   UNL     1       2.412   5.508  17.766  0.00  0.00    +0.000 A 
ATOM      4  C   UNL     1       3.726   5.393  17.294  0.00  0.00    +0.000 A 
ATOM      5  C   UNL     1       4.500   6.543  17.108  0.00  0.00    +0.000 A 
ATOM      6  C   UNL     1       3.961   7.796  17.367  0.00  0.00    +0.000 A 
ENDROOT
BRANCH   1   8
ATOM      7  N   UNL     1       1.224   9.410  19.098  0.00  0.00    +0.000 N 
ATOM      8  C   UNL     1       2.139   9.275  18.084  0.00  0.00    +0.000 C 
ATOM      9  O   UNL     1       2.574  10.223  17.439  0.00  0.00    +0.000 OA
ATOM     10  H   UNL     1       0.839   8.607  19.571  0.00  0.00    +0.000 HD
BRANCH   7  20
ATOM     11  C   UNL     1      -3.288  10.381  16.516  0.00  0.00    +0.000 C 
ATOM     12  C   UNL     1      -2.410  10.689  17.661  0.00  0.00    +0.000 A 
ATOM     13  N   UNL     1      -1.086  10.331  17.680  0.00  0.00    +0.000 NA
ATOM     14  C   UNL     1      -0.671  10.792  18.844  0.00  0.00    +0.000 A 
ATOM     15  N   UNL     1      -1.717  11.377  19.491  0.00  0.00    +0.000 N 
ATOM     16  N   UNL     1      -2.845  11.316  18.765  0.00  0.00    +0.000 NA
ATOM     17  C   UNL     1      -1.700  11.874  20.850  0.00  0.00    +0.000 C 
ATOM     18  C   UNL     1      -0.271  12.080  21.356  0.00  0.00    +0.000 C 
ATOM     19  C   UNL     1       0.612  10.887  20.987  0.00  0.00    +0.000 C 
ATOM     20  C   UNL     1       0.685  10.702  19.459  0.00  0.00    +0.000 C 
ENDBRANCH   7  20
ENDBRANCH   1   8
BRANCH   4  21
ATOM     21  C   UNL     1       4.311   4.037  17.062  0.00  0.00    +0.000 C 
BRANCH  21  22
ATOM     22  N   UNL     1       4.667   3.267  18.242  0.00  0.00    +0.000 N 
ATOM     23  C   UNL     1       3.814   2.193  18.394  0.00  0.00    +0.000 C 
ATOM     24  O   UNL     1       3.675   1.223  17.673  0.00  0.00    +0.000 OA
ATOM     25  C   UNL     1       2.928   2.524  19.500  0.00  0.00    +0.000 A 
ATOM     26  C   UNL     1       1.606   2.166  19.659  0.00  0.00    +0.000 A 
ATOM     27  C   UNL     1       0.847   2.938  20.541  0.00  0.00    +0.000 A 
ATOM     28  C   UNL     1       1.427   4.009  21.256  0.00  0.00    +0.000 A 
ATOM     29  C   UNL     1       2.769   4.350  21.075  0.00  0.00    +0.000 A 
ATOM     30  C   UNL     1       3.482   3.599  20.162  0.00  0.00    +0.000 A 
ATOM     31  C   UNL     1       4.686   3.977  19.428  0.00  0.00    +0.000 C 
ATOM     32  O   UNL     1       5.451   4.841  19.810  0.00  0.00    +0.000 OA
ENDBRANCH  21  22
ENDBRANCH   4  21
TORSDOF 4
ENDMDL
MODEL 6
REMARK VINA RESULT:      -9.1      2.959      9.534
REMARK  Name = 
REMARK  5 active torsions:
REMARK  status: ('A' for Active; 'I' for Inactive)
REMARK    1  A    between atoms: C_1  and  C_2
REMARK    2  A    between atoms: C_10  and  N_11
REMARK    3  A    between atoms: C_12  and  C_14
REMARK    4  A    between atoms: C_17  and  C_18
REMARK    5  A    between atoms: C_18  and  N_19
REMARK                            x       y       z     vdW  Elec       q    Type
REMARK                         _______ _______ _______ _____ _____    ______ ____
ROOT
ATOM      1  C   UNL     1       1.641   8.792  19.134  0.00  0.00    +0.000 A 
ATOM      2  C   UNL     1       1.297  10.090  18.730  0.00  0.00    +0.000 A 
ATOM      3  C   UNL     1       0.720  10.969  19.644  0.00  0.00    +0.000 A 
ATOM      4  C   UNL     1       0.492  10.564  20.965  0.00  0.00    +0.000 A 
ATOM      5  C   UNL     1       0.853   9.274  21.369  0.00  0.00    +0.000 A 
ATOM      6  C   UNL     1       1.415   8.390  20.457  0.00  0.00    +0.000 A 
ENDROOT
BRANCH   1   8
ATOM      7  N   UNL     1       2.221   6.495  18.646  0.00  0.00    +0.000 N 
ATOM      8  C   UNL     1       2.235   7.800  18.221  0.00  0.00    +0.000 C 
ATOM      9  O   UNL     1       2.660   8.147  17.124  0.00  0.00    +0.000 OA
ATOM     10  H   UNL     1       1.922   6.246  19.576  0.00  0.00    +0.000 HD
BRANCH   7  20
ATOM     11  C   UNL     1       7.374   5.722  19.550  0.00  0.00    +0.000 C 
ATOM     12  C   UNL     1       6.102   5.189  19.029  0.00  0.00    +0.000 A 
ATOM     13  N   UNL     1       5.041   6.003  18.725  0.00  0.00    +0.000 NA
ATOM     14  C   UNL     1       4.130   5.155  18.289  0.00  0.00    +0.000 A 
ATOM     15  N   UNL     1       4.631   3.890  18.357  0.00  0.00    +0.000 N 
ATOM     16  N   UNL     1       5.885   3.879  18.837  0.00  0.00    +0.000 NA
ATOM     17  C   UNL     1       3.891   2.673  18.102  0.00  0.00    +0.000 C 
ATOM     18  C   UNL     1       2.603   2.949  17.325  0.00  0.00    +0.000 C 
ATOM     19  C   UNL     1       1.870   4.160  17.903  0.00  0.00    +0.000 C 
ATOM     20  C   UNL     1       2.741   5.429  17.819  0.00  0.00    +0.000 C 
ENDBRANCH   7  20
ENDBRANCH   1   8
BRANCH   4  21
ATOM     21  C   UNL     1      -0.071  11.538  21.949  0.00  0.00    +0.000 C 
BRANCH  21  22
ATOM     22  N   UNL     1      -0.585  12.787  21.413  0.00  0.00    +0.000 N 
ATOM     23  C   UNL     1      -0.172  13.852  22.187  0.00  0.00    +0.000 C 
ATOM     24  O   UNL     1       0.956  14.270  22.367  0.00  0.00    +0.000 OA
ATOM     25  C   UNL     1      -1.337  14.286  22.945  0.00  0.00    +0.000 A 
ATOM     26  C   UNL     1      -1.367  14.814  24.218  0.00  0.00    +0.000 A 
ATOM     27  C   UNL     1      -2.584  14.746  24.899  0.00  0.00    +0.000 A 
ATOM     28  C   UNL     1      -3.730  14.192  24.288  0.00  0.00    +0.000 A 
ATOM     29  C   UNL     1      -3.671  13.664  22.996  0.00  0.00    +0.000 A 
ATOM     30  C   UNL     1      -2.443  13.703  22.366  0.00  0.00    +0.000 A 
ATOM     31  C   UNL     1      -1.959  12.854  21.282  0.00  0.00    +0.000 C 
ATOM     32  O   UNL     1      -2.701  12.267  20.518  0.00  0.00    +0.000 OA
ENDBRANCH  21  22
ENDBRANCH   4  21
TORSDOF 4
ENDMDL
MODEL 7
REMARK VINA RESULT:      -9.0      3.321      4.361
REMARK  Name = 
REMARK  5 active torsions:
REMARK  status: ('A' for Active; 'I' for Inactive)
REMARK    1  A    between atoms: C_1  and  C_2
REMARK    2  A    between atoms: C_10  and  N_11
REMARK    3  A    between atoms: C_12  and  C_14
REMARK    4  A    between atoms: C_17  and  C_18
REMARK    5  A    between atoms: C_18  and  N_19
REMARK                            x       y       z     vdW  Elec       q    Type
REMARK                         _______ _______ _______ _____ _____    ______ ____
ROOT
ATOM      1  C   UNL     1       0.669  10.410  19.546  0.00  0.00    +0.000 A 
ATOM      2  C   UNL     1       1.078  10.132  18.233  0.00  0.00    +0.000 A 
ATOM      3  C   UNL     1       1.756   8.947  17.956  0.00  0.00    +0.000 A 
ATOM      4  C   UNL     1       2.022   8.031  18.981  0.00  0.00    +0.000 A 
ATOM      5  C   UNL     1       1.597   8.303  20.285  0.00  0.00    +0.000 A 
ATOM      6  C   UNL     1       0.933   9.490  20.568  0.00  0.00    +0.000 A 
ENDROOT
BRANCH   1   8
ATOM      7  N   UNL     1      -1.367  11.527  20.225  0.00  0.00    +0.000 N 
ATOM      8  C   UNL     1      -0.034  11.650  19.921  0.00  0.00    +0.000 C 
ATOM      9  O   UNL     1       0.581  12.708  20.000  0.00  0.00    +0.000 OA
ATOM     10  H   UNL     1      -1.860  10.658  20.092  0.00  0.00    +0.000 HD
BRANCH   7  20
ATOM     11  C   UNL     1      -6.097  11.557  17.860  0.00  0.00    +0.000 C 
ATOM     12  C   UNL     1      -5.252  12.025  18.975  0.00  0.00    +0.000 A 
ATOM     13  N   UNL     1      -3.883  11.959  18.930  0.00  0.00    +0.000 NA
ATOM     14  C   UNL     1      -3.522  12.477  20.087  0.00  0.00    +0.000 A 
ATOM     15  N   UNL     1      -4.638  12.812  20.793  0.00  0.00    +0.000 N 
ATOM     16  N   UNL     1      -5.759  12.524  20.113  0.00  0.00    +0.000 NA
ATOM     17  C   UNL     1      -4.664  13.277  22.164  0.00  0.00    +0.000 C 
ATOM     18  C   UNL     1      -3.290  13.774  22.616  0.00  0.00    +0.000 C 
ATOM     19  C   UNL     1      -2.192  12.804  22.178  0.00  0.00    +0.000 C 
ATOM     20  C   UNL     1      -2.151  12.667  20.643  0.00  0.00    +0.000 C 
ENDBRANCH   7  20
ENDBRANCH   1   8
BRANCH   4  21
ATOM     21  C   UNL     1       2.696   6.736  18.656  0.00  0.00    +0.000 C 
BRANCH  21  22
ATOM     22  N   UNL     1       3.053   5.884  19.779  0.00  0.00    +0.000 N 
ATOM     23  C   UNL     1       4.198   5.168  19.497  0.00  0.00    +0.000 C 
ATOM     24  O   UNL     1       5.328   5.580  19.313  0.00  0.00    +0.000 OA
ATOM     25  C   UNL     1       3.775   3.798  19.246  0.00  0.00    +0.000 A 
ATOM     26  C   UNL     1       4.332   2.889  18.372  0.00  0.00    +0.000 A 
ATOM     27  C   UNL     1       3.525   1.821  17.975  0.00  0.00    +0.000 A 
ATOM     28  C   UNL     1       2.214   1.673  18.479  0.00  0.00    +0.000 A 
ATOM     29  C   UNL     1       1.675   2.609  19.364  0.00  0.00    +0.000 A 
ATOM     30  C   UNL     1       2.479   3.678  19.701  0.00  0.00    +0.000 A 
ATOM     31  C   UNL     1       2.074   4.996  20.182  0.00  0.00    +0.000 C 
ATOM     32  O   UNL     1       1.008   5.203  20.729  0.00  0.00    +0.000 OA
ENDBRANCH  21  22
ENDBRANCH   4  21
TORSDOF 4
ENDMDL
MODEL 8
REMARK VINA RESULT:      -8.9      2.976      8.871
REMARK  Name = 
REMARK  5 active torsions:
REMARK  status: ('A' for Active; 'I' for Inactive)
REMARK    1  A    between atoms: C_1  and  C_2
REMARK    2  A    between atoms: C_10  and  N_11
REMARK    3  A    between atoms: C_12  and  C_14
REMARK    4  A    between atoms: C_17  and  C_18
REMARK    5  A    between atoms: C_18  and  N_19
REMARK                            x       y       z     vdW  Elec       q    Type
REMARK                         _______ _______ _______ _____ _____    ______ ____
ROOT
ATOM      1  C   UNL     1       2.715   7.521  18.401  0.00  0.00    +0.000 A 
ATOM      2  C   UNL     1       2.343   7.235  19.723  0.00  0.00    +0.000 A 
ATOM      3  C   UNL     1       1.440   8.065  20.382  0.00  0.00    +0.000 A 
ATOM      4  C   UNL     1       0.895   9.176  19.727  0.00  0.00    +0.000 A 
ATOM      5  C   UNL     1       1.254   9.447  18.403  0.00  0.00    +0.000 A 
ATOM      6  C   UNL     1       2.167   8.631  17.747  0.00  0.00    +0.000 A 
ENDROOT
BRANCH   1   8
ATOM      7  N   UNL     1       4.639   7.387  16.940  0.00  0.00    +0.000 N 
ATOM      8  C   UNL     1       3.680   6.703  17.645  0.00  0.00    +0.000 C 
ATOM      9  O   UNL     1       3.635   5.479  17.708  0.00  0.00    +0.000 OA
ATOM     10  H   UNL     1       4.616   8.391  16.856  0.00  0.00    +0.000 HD
BRANCH   7  20
ATOM     11  C   UNL     1       8.403   5.515  20.149  0.00  0.00    +0.000 C 
ATOM     12  C   UNL     1       7.731   5.451  18.837  0.00  0.00    +0.000 A 
ATOM     13  N   UNL     1       6.944   6.473  18.371  0.00  0.00    +0.000 NA
ATOM     14  C   UNL     1       6.556   6.034  17.190  0.00  0.00    +0.000 A 
ATOM     15  N   UNL     1       7.077   4.793  16.982  0.00  0.00    +0.000 N 
ATOM     16  N   UNL     1       7.824   4.389  18.022  0.00  0.00    +0.000 NA
ATOM     17  C   UNL     1       6.770   3.922  15.867  0.00  0.00    +0.000 C 
ATOM     18  C   UNL     1       6.133   4.693  14.710  0.00  0.00    +0.000 C 
ATOM     19  C   UNL     1       5.061   5.655  15.223  0.00  0.00    +0.000 C 
ATOM     20  C   UNL     1       5.662   6.691  16.192  0.00  0.00    +0.000 C 
ENDBRANCH   7  20
ENDBRANCH   1   8
BRANCH   4  21
ATOM     21  C   UNL     1      -0.121  10.021  20.427  0.00  0.00    +0.000 C 
BRANCH  21  22
ATOM     22  N   UNL     1       0.357  10.843  21.526  0.00  0.00    +0.000 N 
ATOM     23  C   UNL     1      -0.390  10.613  22.662  0.00  0.00    +0.000 C 
ATOM     24  O   UNL     1      -0.479   9.595  23.322  0.00  0.00    +0.000 OA
ATOM     25  C   UNL     1      -1.249  11.776  22.833  0.00  0.00    +0.000 A 
ATOM     26  C   UNL     1      -2.526  11.815  23.352  0.00  0.00    +0.000 A 
ATOM     27  C   UNL     1      -3.306  12.924  23.022  0.00  0.00    +0.000 A 
ATOM     28  C   UNL     1      -2.788  13.966  22.221  0.00  0.00    +0.000 A 
ATOM     29  C   UNL     1      -1.490  13.901  21.709  0.00  0.00    +0.000 A 
ATOM     30  C   UNL     1      -0.759  12.771  22.014  0.00  0.00    +0.000 A 
ATOM     31  C   UNL     1       0.371  12.204  21.284  0.00  0.00    +0.000 C 
ATOM     32  O   UNL     1       1.075  12.859  20.541  0.00  0.00    +0.000 OA
ENDBRANCH  21  22
ENDBRANCH   4  21
TORSDOF 4
ENDMDL
MODEL 9
REMARK VINA RESULT:      -8.9      3.527      5.402
REMARK  Name = 
REMARK  5 active torsions:
REMARK  status: ('A' for Active; 'I' for Inactive)
REMARK    1  A    between atoms: C_1  and  C_2
REMARK    2  A    between atoms: C_10  and  N_11
REMARK    3  A    between atoms: C_12  and  C_14
REMARK    4  A    between atoms: C_17  and  C_18
REMARK    5  A    between atoms: C_18  and  N_19
REMARK                            x       y       z     vdW  Elec       q    Type
REMARK                         _______ _______ _______ _____ _____    ______ ____
ROOT
ATOM      1  C   UNL     1      -0.594  11.536  19.397  0.00  0.00    +0.000 A 
ATOM      2  C   UNL     1      -1.183  10.463  18.714  0.00  0.00    +0.000 A 
ATOM      3  C   UNL     1      -0.376   9.497  18.117  0.00  0.00    +0.000 A 
ATOM      4  C   UNL     1       1.019   9.590  18.206  0.00  0.00    +0.000 A 
ATOM      5  C   UNL     1       1.601  10.653  18.904  0.00  0.00    +0.000 A 
ATOM      6  C   UNL     1       0.801  11.626  19.488  0.00  0.00    +0.000 A 
ENDROOT
BRANCH   1   8
ATOM      7  N   UNL     1      -2.239  12.221  21.034  0.00  0.00    +0.000 N 
ATOM      8  C   UNL     1      -1.380  12.607  20.036  0.00  0.00    +0.000 C 
ATOM      9  O   UNL     1      -1.210  13.777  19.708  0.00  0.00    +0.000 OA
ATOM     10  H   UNL     1      -2.404  11.249  21.241  0.00  0.00    +0.000 HD
BRANCH   7  20
ATOM     11  C   UNL     1      -7.397  11.550  20.078  0.00  0.00    +0.000 C 
ATOM     12  C   UNL     1      -6.349  12.102  20.958  0.00  0.00    +0.000 A 
ATOM     13  N   UNL     1      -5.057  12.275  20.530  0.00  0.00    +0.000 NA
ATOM     14  C   UNL     1      -4.461  12.791  21.587  0.00  0.00    +0.000 A 
ATOM     15  N   UNL     1      -5.364  12.894  22.602  0.00  0.00    +0.000 N 
ATOM     16  N   UNL     1      -6.577  12.450  22.233  0.00  0.00    +0.000 NA
ATOM     17  C   UNL     1      -5.065  13.281  23.964  0.00  0.00    +0.000 C 
ATOM     18  C   UNL     1      -3.711  13.985  24.065  0.00  0.00    +0.000 C 
ATOM     19  C   UNL     1      -2.651  13.241  23.251  0.00  0.00    +0.000 C 
ATOM     20  C   UNL     1      -3.033  13.188  21.759  0.00  0.00    +0.000 C 
ENDBRANCH   7  20
ENDBRANCH   1   8
BRANCH   4  21
ATOM     21  C   UNL     1       1.869   8.513  17.613  0.00  0.00    +0.000 C 
BRANCH  21  22
ATOM     22  N   UNL     1       2.812   7.858  18.505  0.00  0.00    +0.000 N 
ATOM     23  C   UNL     1       3.569   6.935  17.814  0.00  0.00    +0.000 C 
ATOM     24  O   UNL     1       4.378   7.124  16.925  0.00  0.00    +0.000 OA
ATOM     25  C   UNL     1       3.072   5.622  18.201  0.00  0.00    +0.000 A 
ATOM     26  C   UNL     1       3.004   4.483  17.428  0.00  0.00    +0.000 A 
ATOM     27  C   UNL     1       2.111   3.493  17.843  0.00  0.00    +0.000 A 
ATOM     28  C   UNL     1       1.346   3.649  19.019  0.00  0.00    +0.000 A 
ATOM     29  C   UNL     1       1.435   4.815  19.784  0.00  0.00    +0.000 A 
ATOM     30  C   UNL     1       2.290   5.795  19.324  0.00  0.00    +0.000 A 
ATOM     31  C   UNL     1       2.252   7.228  19.599  0.00  0.00    +0.000 C 
ATOM     32  O   UNL     1       1.712   7.700  20.581  0.00  0.00    +0.000 OA
ENDBRANCH  21  22
ENDBRANCH   4  21
TORSDOF 4
ENDMDL
