MODEL 1
REMARK VINA RESULT:      -8.3      0.000      0.000
REMARK  Name = 
REMARK  7 active torsions:
REMARK  status: ('A' for Active; 'I' for Inactive)
REMARK    1  A    between atoms: C_1  and  N_2
REMARK    2  A    between atoms: C_6  and  C_7
REMARK    3  A    between atoms: C_7  and  C_8
REMARK    4  A    between atoms: C_8  and  C_9
REMARK    5  A    between atoms: C_13  and  N_14
REMARK    6  A    between atoms: C_19  and  C_20
REMARK    7  A    between atoms: C_23  and  C_24
REMARK                            x       y       z     vdW  Elec       q    Type
REMARK                         _______ _______ _______ _____ _____    ______ ____
ROOT
ATOM      1  C   UNL     1       2.165   5.616  19.192  0.00  0.00    +0.000 A 
ATOM      2  C   UNL     1       2.173   6.352  17.988  0.00  0.00    +0.000 A 
ATOM      3  C   UNL     1       2.191   7.745  17.975  0.00  0.00    +0.000 A 
ATOM      4  C   UNL     1       2.085   8.439  19.170  0.00  0.00    +0.000 A 
ATOM      5  C   UNL     1       1.803   7.734  20.351  0.00  0.00    +0.000 A 
ATOM      6  C   UNL     1       1.963   6.351  20.373  0.00  0.00    +0.000 A 
ENDROOT
BRANCH   5   7
ATOM      7  N   UNL     1       0.799   8.252  21.247  0.00  0.00    +0.000 N 
ATOM      8  C   UNL     1      -0.433   8.533  20.468  0.00  0.00    +0.000 C 
ATOM      9  C   UNL     1      -0.336  10.008  20.228  0.00  0.00    +0.000 A 
ATOM     10  C   UNL     1       0.463  10.545  21.243  0.00  0.00    +0.000 A 
ATOM     11  C   UNL     1       0.877  11.860  21.272  0.00  0.00    +0.000 A 
ATOM     12  C   UNL     1       0.494  12.663  20.199  0.00  0.00    +0.000 A 
ATOM     13  C   UNL     1      -0.275  12.128  19.139  0.00  0.00    +0.000 A 
ATOM     14  C   UNL     1      -0.703  10.783  19.132  0.00  0.00    +0.000 A 
ATOM     15  C   UNL     1       1.126   9.428  21.945  0.00  0.00    +0.000 C 
ATOM     16  O   UNL     1       1.926   9.582  22.848  0.00  0.00    +0.000 OA
BRANCH  14  17
ATOM     17  C   UNL     1      -1.396  10.238  17.907  0.00  0.00    +0.000 C 
ATOM     18  F   UNL     1      -0.649   9.369  17.176  0.00  0.00    +0.000 F 
ATOM     19  F   UNL     1      -2.540   9.574  18.218  0.00  0.00    +0.000 F 
ATOM     20  F   UNL     1      -1.761  11.228  17.045  0.00  0.00    +0.000 F 
ENDBRANCH  14  17
BRANCH  12  21
ATOM     21  C   UNL     1       0.972  14.008  20.119  0.00  0.00    +0.000 C 
ATOM     22  N   UNL     1       1.341  15.108  20.059  0.00  0.00    +0.000 NA
ENDBRANCH  12  21
ENDBRANCH   5   7
BRANCH   1  23
ATOM     23  C   UNL     1       2.380   4.031  19.224  0.00  0.00    +0.000 C 
ATOM     24  C   UNL     1       1.519   3.282  20.283  0.00  0.00    +0.000 C 
ATOM     25  O   UNL     1       0.821   2.524  19.279  0.00  0.00    +0.000 OA
ATOM     26  C   UNL     1       1.525   3.207  18.218  0.00  0.00    +0.000 C 
BRANCH  23  27
ATOM     27  C   UNL     1       3.872   3.640  19.327  0.00  0.00    +0.000 C 
BRANCH  27  33
ATOM     28  C   UNL     1       6.448   5.422  19.307  0.00  0.00    +0.000 C 
ATOM     29  N   UNL     1       5.874   4.735  18.175  0.00  0.00    +0.000 N 
ATOM     30  C   UNL     1       6.433   4.719  16.924  0.00  0.00    +0.000 A 
ATOM     31  C   UNL     1       5.567   3.988  16.152  0.00  0.00    +0.000 A 
ATOM     32  N   UNL     1       4.527   3.523  16.908  0.00  0.00    +0.000 NA
ATOM     33  C   UNL     1       4.719   3.978  18.133  0.00  0.00    +0.000 A 
ENDBRANCH  27  33
ENDBRANCH  23  27
ENDBRANCH   1  23
TORSDOF 6
ENDMDL
MODEL 2
REMARK VINA RESULT:      -8.2      0.746      1.170
REMARK  Name = 
REMARK  7 active torsions:
REMARK  status: ('A' for Active; 'I' for Inactive)
REMARK    1  A    between atoms: C_1  and  N_2
REMARK    2  A    between atoms: C_6  and  C_7
REMARK    3  A    between atoms: C_7  and  C_8
REMARK    4  A    between atoms: C_8  and  C_9
REMARK    5  A    between atoms: C_13  and  N_14
REMARK    6  A    between atoms: C_19  and  C_20
REMARK    7  A    between atoms: C_23  and  C_24
REMARK                            x       y       z     vdW  Elec       q    Type
REMARK                         _______ _______ _______ _____ _____    ______ ____
ROOT
ATOM      1  C   UNL     1       2.299   5.746  19.035  0.00  0.00    +0.000 A 
ATOM      2  C   UNL     1       2.240   6.504  17.848  0.00  0.00    +0.000 A 
ATOM      3  C   UNL     1       2.183   7.896  17.863  0.00  0.00    +0.000 A 
ATOM      4  C   UNL     1       2.070   8.560  19.074  0.00  0.00    +0.000 A 
ATOM      5  C   UNL     1       1.855   7.817  20.246  0.00  0.00    +0.000 A 
ATOM      6  C   UNL     1       2.089   6.445  20.236  0.00  0.00    +0.000 A 
ENDROOT
BRANCH   5   7
ATOM      7  N   UNL     1       0.847   8.264  21.177  0.00  0.00    +0.000 N 
ATOM      8  C   UNL     1      -0.409   8.522  20.428  0.00  0.00    +0.000 C 
ATOM      9  C   UNL     1      -0.374  10.007  20.239  0.00  0.00    +0.000 A 
ATOM     10  C   UNL     1       0.421  10.540  21.259  0.00  0.00    +0.000 A 
ATOM     11  C   UNL     1       0.783  11.869  21.328  0.00  0.00    +0.000 A 
ATOM     12  C   UNL     1       0.350  12.693  20.290  0.00  0.00    +0.000 A 
ATOM     13  C   UNL     1      -0.416  12.165  19.225  0.00  0.00    +0.000 A 
ATOM     14  C   UNL     1      -0.790  10.804  19.177  0.00  0.00    +0.000 A 
ATOM     15  C   UNL     1       1.139   9.428  21.910  0.00  0.00    +0.000 C 
ATOM     16  O   UNL     1       1.948   9.582  22.805  0.00  0.00    +0.000 OA
BRANCH  14  17
ATOM     17  C   UNL     1      -1.483  10.275  17.945  0.00  0.00    +0.000 C 
ATOM     18  F   UNL     1      -0.729   9.429  17.194  0.00  0.00    +0.000 F 
ATOM     19  F   UNL     1      -2.617   9.591  18.248  0.00  0.00    +0.000 F 
ATOM     20  F   UNL     1      -1.864  11.277  17.103  0.00  0.00    +0.000 F 
ENDBRANCH  14  17
BRANCH  12  21
ATOM     21  C   UNL     1       0.773  14.058  20.250  0.00  0.00    +0.000 C 
ATOM     22  N   UNL     1       1.098  15.173  20.226  0.00  0.00    +0.000 NA
ENDBRANCH  12  21
ENDBRANCH   5   7
BRANCH   1  23
ATOM     23  C   UNL     1       2.599   4.173  19.030  0.00  0.00    +0.000 C 
ATOM     24  C   UNL     1       2.776   3.543  20.442  0.00  0.00    +0.000 C 
ATOM     25  O   UNL     1       1.638   2.679  20.273  0.00  0.00    +0.000 OA
ATOM     26  C   UNL     1       1.353   3.243  18.974  0.00  0.00    +0.000 C 
BRANCH  23  27
ATOM     27  C   UNL     1       3.769   3.799  18.092  0.00  0.00    +0.000 C 
BRANCH  27  33
ATOM     28  C   UNL     1       5.234   5.618  16.005  0.00  0.00    +0.000 C 
ATOM     29  N   UNL     1       5.640   5.386  17.371  0.00  0.00    +0.000 N 
ATOM     30  C   UNL     1       6.710   5.999  17.968  0.00  0.00    +0.000 A 
ATOM     31  C   UNL     1       6.758   5.482  19.237  0.00  0.00    +0.000 A 
ATOM     32  N   UNL     1       5.722   4.614  19.441  0.00  0.00    +0.000 NA
ATOM     33  C   UNL     1       5.047   4.560  18.306  0.00  0.00    +0.000 A 
ENDBRANCH  27  33
ENDBRANCH  23  27
ENDBRANCH   1  23
TORSDOF 6
ENDMDL
MODEL 3
REMARK VINA RESULT:      -8.1      5.521      9.169
REMARK  Name = 
REMARK  7 active torsions:
REMARK  status: ('A' for Active; 'I' for Inactive)
REMARK    1  A    between atoms: C_1  and  N_2
REMARK    2  A    between atoms: C_6  and  C_7
REMARK    3  A    between atoms: C_7  and  C_8
REMARK    4  A    between atoms: C_8  and  C_9
REMARK    5  A    between atoms: C_13  and  N_14
REMARK    6  A    between atoms: C_19  and  C_20
REMARK    7  A    between atoms: C_23  and  C_24
REMARK                            x       y       z     vdW  Elec       q    Type
REMARK                         _______ _______ _______ _____ _____    ______ ____
ROOT
ATOM      1  C   UNL     1      -3.902  11.206  17.862  0.00  0.00    +0.000 A 
ATOM      2  C   UNL     1      -3.893  10.708  16.542  0.00  0.00    +0.000 A 
ATOM      3  C   UNL     1      -2.833   9.952  16.046  0.00  0.00    +0.000 A 
ATOM      4  C   UNL     1      -1.701   9.771  16.825  0.00  0.00    +0.000 A 
ATOM      5  C   UNL     1      -1.578  10.481  18.030  0.00  0.00    +0.000 A 
ATOM      6  C   UNL     1      -2.704  11.083  18.586  0.00  0.00    +0.000 A 
ENDROOT
BRANCH   5   7
ATOM      7  N   UNL     1      -0.323  11.127  18.331  0.00  0.00    +0.000 N 
ATOM      8  C   UNL     1       0.386  10.328  19.362  0.00  0.00    +0.000 C 
ATOM      9  C   UNL     1       0.064  11.066  20.624  0.00  0.00    +0.000 A 
ATOM     10  C   UNL     1      -0.226  12.389  20.273  0.00  0.00    +0.000 A 
ATOM     11  C   UNL     1      -0.692  13.330  21.166  0.00  0.00    +0.000 A 
ATOM     12  C   UNL     1      -0.913  12.901  22.473  0.00  0.00    +0.000 A 
ATOM     13  C   UNL     1      -0.671  11.556  22.839  0.00  0.00    +0.000 A 
ATOM     14  C   UNL     1      -0.180  10.608  21.915  0.00  0.00    +0.000 A 
ATOM     15  C   UNL     1      -0.395  12.448  18.808  0.00  0.00    +0.000 C 
ATOM     16  O   UNL     1      -0.703  13.460  18.207  0.00  0.00    +0.000 OA
BRANCH  14  17
ATOM     17  C   UNL     1      -0.080   9.160  22.331  0.00  0.00    +0.000 C 
ATOM     18  F   UNL     1      -0.353   8.930  23.642  0.00  0.00    +0.000 F 
ATOM     19  F   UNL     1      -0.932   8.366  21.630  0.00  0.00    +0.000 F 
ATOM     20  F   UNL     1       1.166   8.652  22.117  0.00  0.00    +0.000 F 
ENDBRANCH  14  17
BRANCH  12  21
ATOM     21  C   UNL     1      -1.489  13.801  23.424  0.00  0.00    +0.000 C 
ATOM     22  N   UNL     1      -1.974  14.519  24.196  0.00  0.00    +0.000 NA
ENDBRANCH  12  21
ENDBRANCH   5   7
BRANCH   1  23
ATOM     23  C   UNL     1      -5.204  11.869  18.515  0.00  0.00    +0.000 C 
ATOM     24  C   UNL     1      -5.976  12.841  17.576  0.00  0.00    +0.000 C 
ATOM     25  O   UNL     1      -7.162  12.028  17.596  0.00  0.00    +0.000 OA
ATOM     26  C   UNL     1      -6.514  11.034  18.420  0.00  0.00    +0.000 C 
BRANCH  23  27
ATOM     27  C   UNL     1      -4.911  12.518  19.886  0.00  0.00    +0.000 C 
BRANCH  27  33
ATOM     28  C   UNL     1      -6.709  15.042  20.337  0.00  0.00    +0.000 C 
ATOM     29  N   UNL     1      -6.877  13.751  20.959  0.00  0.00    +0.000 N 
ATOM     30  C   UNL     1      -7.911  13.433  21.800  0.00  0.00    +0.000 A 
ATOM     31  C   UNL     1      -7.678  12.136  22.183  0.00  0.00    +0.000 A 
ATOM     32  N   UNL     1      -6.564  11.647  21.561  0.00  0.00    +0.000 NA
ATOM     33  C   UNL     1      -6.082  12.629  20.821  0.00  0.00    +0.000 A 
ENDBRANCH  27  33
ENDBRANCH  23  27
ENDBRANCH   1  23
TORSDOF 6
ENDMDL
MODEL 4
REMARK VINA RESULT:      -8.1      2.023      3.131
REMARK  Name = 
REMARK  7 active torsions:
REMARK  status: ('A' for Active; 'I' for Inactive)
REMARK    1  A    between atoms: C_1  and  N_2
REMARK    2  A    between atoms: C_6  and  C_7
REMARK    3  A    between atoms: C_7  and  C_8
REMARK    4  A    between atoms: C_8  and  C_9
REMARK    5  A    between atoms: C_13  and  N_14
REMARK    6  A    between atoms: C_19  and  C_20
REMARK    7  A    between atoms: C_23  and  C_24
REMARK                            x       y       z     vdW  Elec       q    Type
REMARK                         _______ _______ _______ _____ _____    ______ ____
ROOT
ATOM      1  C   UNL     1       2.436   7.437  18.668  0.00  0.00    +0.000 A 
ATOM      2  C   UNL     1       2.350   8.424  17.664  0.00  0.00    +0.000 A 
ATOM      3  C   UNL     1       1.972   9.734  17.947  0.00  0.00    +0.000 A 
ATOM      4  C   UNL     1       1.558  10.062  19.228  0.00  0.00    +0.000 A 
ATOM      5  C   UNL     1       1.378   9.040  20.174  0.00  0.00    +0.000 A 
ATOM      6  C   UNL     1       1.922   7.782  19.930  0.00  0.00    +0.000 A 
ENDROOT
BRANCH   5   7
ATOM      7  N   UNL     1       0.187   9.049  20.987  0.00  0.00    +0.000 N 
ATOM      8  C   UNL     1      -0.967   9.432  20.135  0.00  0.00    +0.000 C 
ATOM      9  C   UNL     1      -1.127  10.889  20.441  0.00  0.00    +0.000 A 
ATOM     10  C   UNL     1      -0.582  11.112  21.710  0.00  0.00    +0.000 A 
ATOM     11  C   UNL     1      -0.437  12.365  22.269  0.00  0.00    +0.000 A 
ATOM     12  C   UNL     1      -0.828  13.450  21.486  0.00  0.00    +0.000 A 
ATOM     13  C   UNL     1      -1.338  13.250  20.182  0.00  0.00    +0.000 A 
ATOM     14  C   UNL     1      -1.494  11.959  19.631  0.00  0.00    +0.000 A 
ATOM     15  C   UNL     1       0.189   9.914  22.096  0.00  0.00    +0.000 C 
ATOM     16  O   UNL     1       0.823   9.826  23.131  0.00  0.00    +0.000 OA
BRANCH  14  17
ATOM     17  C   UNL     1      -1.907  11.822  18.186  0.00  0.00    +0.000 C 
ATOM     18  F   UNL     1      -3.241  11.961  17.966  0.00  0.00    +0.000 F 
ATOM     19  F   UNL     1      -1.302  12.743  17.391  0.00  0.00    +0.000 F 
ATOM     20  F   UNL     1      -1.571  10.606  17.672  0.00  0.00    +0.000 F 
ENDBRANCH  14  17
BRANCH  12  21
ATOM     21  C   UNL     1      -0.612  14.780  21.966  0.00  0.00    +0.000 C 
ATOM     22  N   UNL     1      -0.416  15.858  22.349  0.00  0.00    +0.000 NA
ENDBRANCH  12  21
ENDBRANCH   5   7
BRANCH   1  23
ATOM     23  C   UNL     1       3.090   6.000  18.401  0.00  0.00    +0.000 C 
ATOM     24  C   UNL     1       4.249   6.000  17.363  0.00  0.00    +0.000 C 
ATOM     25  O   UNL     1       5.209   5.547  18.334  0.00  0.00    +0.000 OA
ATOM     26  C   UNL     1       4.217   5.572  19.383  0.00  0.00    +0.000 C 
BRANCH  23  27
ATOM     27  C   UNL     1       2.032   4.924  18.070  0.00  0.00    +0.000 C 
BRANCH  27  33
ATOM     28  C   UNL     1       3.090   1.979  18.205  0.00  0.00    +0.000 C 
ATOM     29  N   UNL     1       2.280   2.643  19.198  0.00  0.00    +0.000 N 
ATOM     30  C   UNL     1       1.914   2.078  20.391  0.00  0.00    +0.000 A 
ATOM     31  C   UNL     1       1.137   3.022  21.013  0.00  0.00    +0.000 A 
ATOM     32  N   UNL     1       1.063   4.157  20.254  0.00  0.00    +0.000 NA
ATOM     33  C   UNL     1       1.758   3.921  19.156  0.00  0.00    +0.000 A 
ENDBRANCH  27  33
ENDBRANCH  23  27
ENDBRANCH   1  23
TORSDOF 6
ENDMDL
MODEL 5
REMARK VINA RESULT:      -8.0      2.726      3.548
REMARK  Name = 
REMARK  7 active torsions:
REMARK  status: ('A' for Active; 'I' for Inactive)
REMARK    1  A    between atoms: C_1  and  N_2
REMARK    2  A    between atoms: C_6  and  C_7
REMARK    3  A    between atoms: C_7  and  C_8
REMARK    4  A    between atoms: C_8  and  C_9
REMARK    5  A    between atoms: C_13  and  N_14
REMARK    6  A    between atoms: C_19  and  C_20
REMARK    7  A    between atoms: C_23  and  C_24
REMARK                            x       y       z     vdW  Elec       q    Type
REMARK                         _______ _______ _______ _____ _____    ______ ____
ROOT
ATOM      1  C   UNL     1       2.704   4.319  19.044  0.00  0.00    +0.000 A 
ATOM      2  C   UNL     1       2.403   4.017  20.389  0.00  0.00    +0.000 A 
ATOM      3  C   UNL     1       1.692   4.896  21.202  0.00  0.00    +0.000 A 
ATOM      4  C   UNL     1       1.361   6.153  20.721  0.00  0.00    +0.000 A 
ATOM      5  C   UNL     1       1.882   6.574  19.488  0.00  0.00    +0.000 A 
ATOM      6  C   UNL     1       2.435   5.633  18.623  0.00  0.00    +0.000 A 
ENDROOT
BRANCH   5   7
ATOM      7  N   UNL     1       2.434   7.904  19.384  0.00  0.00    +0.000 N 
ATOM      8  C   UNL     1       2.100   8.653  20.622  0.00  0.00    +0.000 C 
ATOM      9  C   UNL     1       0.907   9.455  20.204  0.00  0.00    +0.000 A 
ATOM     10  C   UNL     1       0.972   9.610  18.815  0.00  0.00    +0.000 A 
ATOM     11  C   UNL     1      -0.030  10.187  18.064  0.00  0.00    +0.000 A 
ATOM     12  C   UNL     1      -1.174  10.593  18.750  0.00  0.00    +0.000 A 
ATOM     13  C   UNL     1      -1.280  10.404  20.147  0.00  0.00    +0.000 A 
ATOM     14  C   UNL     1      -0.238   9.824  20.903  0.00  0.00    +0.000 A 
ATOM     15  C   UNL     1       1.997   8.683  18.298  0.00  0.00    +0.000 C 
ATOM     16  O   UNL     1       2.249   8.551  17.115  0.00  0.00    +0.000 OA
BRANCH  14  17
ATOM     17  C   UNL     1      -0.471   9.520  22.363  0.00  0.00    +0.000 C 
ATOM     18  F   UNL     1      -1.341  10.360  22.983  0.00  0.00    +0.000 F 
ATOM     19  F   UNL     1      -0.966   8.268  22.552  0.00  0.00    +0.000 F 
ATOM     20  F   UNL     1       0.682   9.579  23.087  0.00  0.00    +0.000 F 
ENDBRANCH  14  17
BRANCH  12  21
ATOM     21  C   UNL     1      -2.290  11.108  18.017  0.00  0.00    +0.000 C 
ATOM     22  N   UNL     1      -3.205  11.531  17.442  0.00  0.00    +0.000 NA
ENDBRANCH  12  21
ENDBRANCH   5   7
BRANCH   1  23
ATOM     23  C   UNL     1       3.309   3.231  18.039  0.00  0.00    +0.000 C 
ATOM     24  C   UNL     1       4.248   2.185  18.707  0.00  0.00    +0.000 C 
ATOM     25  O   UNL     1       3.384   1.088  18.361  0.00  0.00    +0.000 OA
ATOM     26  C   UNL     1       2.418   1.984  17.769  0.00  0.00    +0.000 C 
BRANCH  23  27
ATOM     27  C   UNL     1       3.969   3.876  16.800  0.00  0.00    +0.000 C 
BRANCH  27  33
ATOM     28  C   UNL     1       6.095   3.886  14.500  0.00  0.00    +0.000 C 
ATOM     29  N   UNL     1       6.329   4.233  15.881  0.00  0.00    +0.000 N 
ATOM     30  C   UNL     1       7.526   4.687  16.366  0.00  0.00    +0.000 A 
ATOM     31  C   UNL     1       7.325   4.867  17.711  0.00  0.00    +0.000 A 
ATOM     32  N   UNL     1       6.030   4.583  18.044  0.00  0.00    +0.000 NA
ATOM     33  C   UNL     1       5.431   4.199  16.931  0.00  0.00    +0.000 A 
ENDBRANCH  27  33
ENDBRANCH  23  27
ENDBRANCH   1  23
TORSDOF 6
ENDMDL
MODEL 6
REMARK VINA RESULT:      -8.0      2.741      3.546
REMARK  Name = 
REMARK  7 active torsions:
REMARK  status: ('A' for Active; 'I' for Inactive)
REMARK    1  A    between atoms: C_1  and  N_2
REMARK    2  A    between atoms: C_6  and  C_7
REMARK    3  A    between atoms: C_7  and  C_8
REMARK    4  A    between atoms: C_8  and  C_9
REMARK    5  A    between atoms: C_13  and  N_14
REMARK    6  A    between atoms: C_19  and  C_20
REMARK    7  A    between atoms: C_23  and  C_24
REMARK                            x       y       z     vdW  Elec       q    Type
REMARK                         _______ _______ _______ _____ _____    ______ ____
ROOT
ATOM      1  C   UNL     1       2.932   4.290  19.131  0.00  0.00    +0.000 A 
ATOM      2  C   UNL     1       2.537   4.028  20.460  0.00  0.00    +0.000 A 
ATOM      3  C   UNL     1       1.743   4.916  21.182  0.00  0.00    +0.000 A 
ATOM      4  C   UNL     1       1.419   6.145  20.629  0.00  0.00    +0.000 A 
ATOM      5  C   UNL     1       2.024   6.536  19.423  0.00  0.00    +0.000 A 
ATOM      6  C   UNL     1       2.665   5.580  18.640  0.00  0.00    +0.000 A 
ENDROOT
BRANCH   5   7
ATOM      7  N   UNL     1       2.548   7.875  19.311  0.00  0.00    +0.000 N 
ATOM      8  C   UNL     1       2.182   8.632  20.535  0.00  0.00    +0.000 C 
ATOM      9  C   UNL     1       0.978   9.404  20.091  0.00  0.00    +0.000 A 
ATOM     10  C   UNL     1       1.059   9.543  18.701  0.00  0.00    +0.000 A 
ATOM     11  C   UNL     1       0.056  10.090  17.930  0.00  0.00    +0.000 A 
ATOM     12  C   UNL     1      -1.106  10.480  18.595  0.00  0.00    +0.000 A 
ATOM     13  C   UNL     1      -1.227  10.305  19.993  0.00  0.00    +0.000 A 
ATOM     14  C   UNL     1      -0.184   9.757  20.770  0.00  0.00    +0.000 A 
ATOM     15  C   UNL     1       2.111   8.632  18.209  0.00  0.00    +0.000 C 
ATOM     16  O   UNL     1       2.382   8.491  17.032  0.00  0.00    +0.000 OA
BRANCH  14  17
ATOM     17  C   UNL     1      -0.431   9.464  22.230  0.00  0.00    +0.000 C 
ATOM     18  F   UNL     1       0.678   9.531  23.014  0.00  0.00    +0.000 F 
ATOM     19  F   UNL     1      -1.326  10.326  22.781  0.00  0.00    +0.000 F 
ATOM     20  F   UNL     1      -0.946   8.217  22.421  0.00  0.00    +0.000 F 
ENDBRANCH  14  17
BRANCH  12  21
ATOM     21  C   UNL     1      -2.221  10.962  17.841  0.00  0.00    +0.000 C 
ATOM     22  N   UNL     1      -3.141  11.343  17.243  0.00  0.00    +0.000 NA
ENDBRANCH  12  21
ENDBRANCH   5   7
BRANCH   1  23
ATOM     23  C   UNL     1       3.641   3.183  18.217  0.00  0.00    +0.000 C 
ATOM     24  C   UNL     1       4.425   2.096  19.008  0.00  0.00    +0.000 C 
ATOM     25  O   UNL     1       3.581   1.037  18.523  0.00  0.00    +0.000 OA
ATOM     26  C   UNL     1       2.753   1.974  17.801  0.00  0.00    +0.000 C 
BRANCH  23  27
ATOM     27  C   UNL     1       4.506   3.807  17.099  0.00  0.00    +0.000 C 
BRANCH  27  33
ATOM     28  C   UNL     1       5.195   6.662  16.011  0.00  0.00    +0.000 C 
ATOM     29  N   UNL     1       5.871   5.969  17.081  0.00  0.00    +0.000 N 
ATOM     30  C   UNL     1       6.887   6.510  17.824  0.00  0.00    +0.000 A 
ATOM     31  C   UNL     1       7.258   5.522  18.701  0.00  0.00    +0.000 A 
ATOM     32  N   UNL     1       6.466   4.420  18.542  0.00  0.00    +0.000 NA
ATOM     33  C   UNL     1       5.627   4.696  17.560  0.00  0.00    +0.000 A 
ENDBRANCH  27  33
ENDBRANCH  23  27
ENDBRANCH   1  23
TORSDOF 6
ENDMDL
MODEL 7
REMARK VINA RESULT:      -7.9      2.004      2.897
REMARK  Name = 
REMARK  7 active torsions:
REMARK  status: ('A' for Active; 'I' for Inactive)
REMARK    1  A    between atoms: C_1  and  N_2
REMARK    2  A    between atoms: C_6  and  C_7
REMARK    3  A    between atoms: C_7  and  C_8
REMARK    4  A    between atoms: C_8  and  C_9
REMARK    5  A    between atoms: C_13  and  N_14
REMARK    6  A    between atoms: C_19  and  C_20
REMARK    7  A    between atoms: C_23  and  C_24
REMARK                            x       y       z     vdW  Elec       q    Type
REMARK                         _______ _______ _______ _____ _____    ______ ____
ROOT
ATOM      1  C   UNL     1       2.432   7.584  18.654  0.00  0.00    +0.000 A 
ATOM      2  C   UNL     1       2.293   8.593  17.678  0.00  0.00    +0.000 A 
ATOM      3  C   UNL     1       1.872   9.880  18.001  0.00  0.00    +0.000 A 
ATOM      4  C   UNL     1       1.468  10.160  19.297  0.00  0.00    +0.000 A 
ATOM      5  C   UNL     1       1.341   9.108  20.218  0.00  0.00    +0.000 A 
ATOM      6  C   UNL     1       1.926   7.877  19.933  0.00  0.00    +0.000 A 
ENDROOT
BRANCH   5   7
ATOM      7  N   UNL     1       0.163   9.051  21.050  0.00  0.00    +0.000 N 
ATOM      8  C   UNL     1      -1.021   9.388  20.220  0.00  0.00    +0.000 C 
ATOM      9  C   UNL     1      -1.245  10.832  20.544  0.00  0.00    +0.000 A 
ATOM     10  C   UNL     1      -0.691  11.068  21.808  0.00  0.00    +0.000 A 
ATOM     11  C   UNL     1      -0.596  12.320  22.377  0.00  0.00    +0.000 A 
ATOM     12  C   UNL     1      -1.050  13.394  21.613  0.00  0.00    +0.000 A 
ATOM     13  C   UNL     1      -1.571  13.183  20.315  0.00  0.00    +0.000 A 
ATOM     14  C   UNL     1      -1.674  11.892  19.752  0.00  0.00    +0.000 A 
ATOM     15  C   UNL     1       0.142   9.904  22.168  0.00  0.00    +0.000 C 
ATOM     16  O   UNL     1       0.796   9.836  23.192  0.00  0.00    +0.000 OA
BRANCH  14  17
ATOM     17  C   UNL     1      -2.103  11.751  18.312  0.00  0.00    +0.000 C 
ATOM     18  F   UNL     1      -1.919  10.510  17.789  0.00  0.00    +0.000 F 
ATOM     19  F   UNL     1      -3.422  12.034  18.141  0.00  0.00    +0.000 F 
ATOM     20  F   UNL     1      -1.428  12.603  17.492  0.00  0.00    +0.000 F 
ENDBRANCH  14  17
BRANCH  12  21
ATOM     21  C   UNL     1      -0.890  14.727  22.105  0.00  0.00    +0.000 C 
ATOM     22  N   UNL     1      -0.744  15.803  22.517  0.00  0.00    +0.000 NA
ENDBRANCH  12  21
ENDBRANCH   5   7
BRANCH   1  23
ATOM     23  C   UNL     1       3.133   6.180  18.339  0.00  0.00    +0.000 C 
ATOM     24  C   UNL     1       4.381   6.273  17.414  0.00  0.00    +0.000 C 
ATOM     25  O   UNL     1       5.257   5.757  18.432  0.00  0.00    +0.000 OA
ATOM     26  C   UNL     1       4.174   5.689  19.385  0.00  0.00    +0.000 C 
BRANCH  23  27
ATOM     27  C   UNL     1       2.129   5.121  17.831  0.00  0.00    +0.000 C 
BRANCH  27  33
ATOM     28  C   UNL     1       0.941   3.716  20.365  0.00  0.00    +0.000 C 
ATOM     29  N   UNL     1       1.808   3.114  19.382  0.00  0.00    +0.000 N 
ATOM     30  C   UNL     1       2.181   1.796  19.393  0.00  0.00    +0.000 A 
ATOM     31  C   UNL     1       3.018   1.649  18.316  0.00  0.00    +0.000 A 
ATOM     32  N   UNL     1       3.122   2.825  17.627  0.00  0.00    +0.000 NA
ATOM     33  C   UNL     1       2.386   3.709  18.277  0.00  0.00    +0.000 A 
ENDBRANCH  27  33
ENDBRANCH  23  27
ENDBRANCH   1  23
TORSDOF 6
ENDMDL
MODEL 8
REMARK VINA RESULT:      -7.8      3.137      8.418
REMARK  Name = 
REMARK  7 active torsions:
REMARK  status: ('A' for Active; 'I' for Inactive)
REMARK    1  A    between atoms: C_1  and  N_2
REMARK    2  A    between atoms: C_6  and  C_7
REMARK    3  A    between atoms: C_7  and  C_8
REMARK    4  A    between atoms: C_8  and  C_9
REMARK    5  A    between atoms: C_13  and  N_14
REMARK    6  A    between atoms: C_19  and  C_20
REMARK    7  A    between atoms: C_23  and  C_24
REMARK                            x       y       z     vdW  Elec       q    Type
REMARK                         _______ _______ _______ _____ _____    ______ ____
ROOT
ATOM      1  C   UNL     1       1.787   8.556  19.614  0.00  0.00    +0.000 A 
ATOM      2  C   UNL     1       2.447   9.230  18.564  0.00  0.00    +0.000 A 
ATOM      3  C   UNL     1       2.959   8.553  17.460  0.00  0.00    +0.000 A 
ATOM      4  C   UNL     1       2.924   7.168  17.432  0.00  0.00    +0.000 A 
ATOM      5  C   UNL     1       2.519   6.469  18.581  0.00  0.00    +0.000 A 
ATOM      6  C   UNL     1       1.854   7.152  19.596  0.00  0.00    +0.000 A 
ENDROOT
BRANCH   5   7
ATOM      7  N   UNL     1       3.294   5.331  19.011  0.00  0.00    +0.000 N 
ATOM      8  C   UNL     1       4.699   5.765  19.220  0.00  0.00    +0.000 C 
ATOM      9  C   UNL     1       5.363   5.339  17.948  0.00  0.00    +0.000 A 
ATOM     10  C   UNL     1       4.610   4.287  17.414  0.00  0.00    +0.000 A 
ATOM     11  C   UNL     1       4.852   3.728  16.177  0.00  0.00    +0.000 A 
ATOM     12  C   UNL     1       5.883   4.288  15.425  0.00  0.00    +0.000 A 
ATOM     13  C   UNL     1       6.625   5.382  15.926  0.00  0.00    +0.000 A 
ATOM     14  C   UNL     1       6.375   5.934  17.201  0.00  0.00    +0.000 A 
ATOM     15  C   UNL     1       3.327   4.227  18.140  0.00  0.00    +0.000 C 
ATOM     16  O   UNL     1       2.436   3.444  17.868  0.00  0.00    +0.000 OA
BRANCH  14  17
ATOM     17  C   UNL     1       7.105   7.188  17.615  0.00  0.00    +0.000 C 
ATOM     18  F   UNL     1       6.306   8.274  17.790  0.00  0.00    +0.000 F 
ATOM     19  F   UNL     1       7.774   7.028  18.788  0.00  0.00    +0.000 F 
ATOM     20  F   UNL     1       8.041   7.561  16.698  0.00  0.00    +0.000 F 
ENDBRANCH  14  17
BRANCH  12  21
ATOM     21  C   UNL     1       6.120   3.820  14.095  0.00  0.00    +0.000 C 
ATOM     22  N   UNL     1       6.333   3.438  13.019  0.00  0.00    +0.000 NA
ENDBRANCH  12  21
ENDBRANCH   5   7
BRANCH   1  23
ATOM     23  C   UNL     1       0.995   9.337  20.764  0.00  0.00    +0.000 C 
ATOM     24  C   UNL     1      -0.282   8.611  21.278  0.00  0.00    +0.000 C 
ATOM     25  O   UNL     1       0.244   8.484  22.612  0.00  0.00    +0.000 OA
ATOM     26  C   UNL     1       1.493   9.095  22.218  0.00  0.00    +0.000 C 
BRANCH  23  27
ATOM     27  C   UNL     1       0.697  10.805  20.384  0.00  0.00    +0.000 C 
BRANCH  27  33
ATOM     28  C   UNL     1      -1.751  12.472  21.401  0.00  0.00    +0.000 C 
ATOM     29  N   UNL     1      -1.635  11.820  20.119  0.00  0.00    +0.000 N 
ATOM     30  C   UNL     1      -2.577  11.902  19.128  0.00  0.00    +0.000 A 
ATOM     31  C   UNL     1      -2.093  11.126  18.106  0.00  0.00    +0.000 A 
ATOM     32  N   UNL     1      -0.866  10.617  18.430  0.00  0.00    +0.000 NA
ATOM     33  C   UNL     1      -0.593  11.041  19.651  0.00  0.00    +0.000 A 
ENDBRANCH  27  33
ENDBRANCH  23  27
ENDBRANCH   1  23
TORSDOF 6
ENDMDL
MODEL 9
REMARK VINA RESULT:      -7.8      0.923      1.171
REMARK  Name = 
REMARK  7 active torsions:
REMARK  status: ('A' for Active; 'I' for Inactive)
REMARK    1  A    between atoms: C_1  and  N_2
REMARK    2  A    between atoms: C_6  and  C_7
REMARK    3  A    between atoms: C_7  and  C_8
REMARK    4  A    between atoms: C_8  and  C_9
REMARK    5  A    between atoms: C_13  and  N_14
REMARK    6  A    between atoms: C_19  and  C_20
REMARK    7  A    between atoms: C_23  and  C_24
REMARK                            x       y       z     vdW  Elec       q    Type
REMARK                         _______ _______ _______ _____ _____    ______ ____
ROOT
ATOM      1  C   UNL     1       2.525   6.253  18.753  0.00  0.00    +0.000 A 
ATOM      2  C   UNL     1       2.417   7.133  17.656  0.00  0.00    +0.000 A 
ATOM      3  C   UNL     1       2.213   8.501  17.825  0.00  0.00    +0.000 A 
ATOM      4  C   UNL     1       1.997   9.006  19.097  0.00  0.00    +0.000 A 
ATOM      5  C   UNL     1       1.832   8.115  20.170  0.00  0.00    +0.000 A 
ATOM      6  C   UNL     1       2.209   6.784  20.016  0.00  0.00    +0.000 A 
ENDROOT
BRANCH   5   7
ATOM      7  N   UNL     1       0.758   8.346  21.105  0.00  0.00    +0.000 N 
ATOM      8  C   UNL     1      -0.505   8.519  20.344  0.00  0.00    +0.000 C 
ATOM      9  C   UNL     1      -0.652  10.008  20.291  0.00  0.00    +0.000 A 
ATOM     10  C   UNL     1       0.051  10.536  21.380  0.00  0.00    +0.000 A 
ATOM     11  C   UNL     1       0.243  11.887  21.580  0.00  0.00    +0.000 A 
ATOM     12  C   UNL     1      -0.268  12.745  20.607  0.00  0.00    +0.000 A 
ATOM     13  C   UNL     1      -0.941  12.229  19.475  0.00  0.00    +0.000 A 
ATOM     14  C   UNL     1      -1.143  10.844  19.293  0.00  0.00    +0.000 A 
ATOM     15  C   UNL     1       0.889   9.464  21.949  0.00  0.00    +0.000 C 
ATOM     16  O   UNL     1       1.655   9.631  22.880  0.00  0.00    +0.000 OA
BRANCH  14  17
ATOM     17  C   UNL     1      -1.740  10.352  17.997  0.00  0.00    +0.000 C 
ATOM     18  F   UNL     1      -2.827   9.551  18.146  0.00  0.00    +0.000 F 
ATOM     19  F   UNL     1      -2.140  11.375  17.197  0.00  0.00    +0.000 F 
ATOM     20  F   UNL     1      -0.846   9.631  17.264  0.00  0.00    +0.000 F 
ENDBRANCH  14  17
BRANCH  12  21
ATOM     21  C   UNL     1      -0.017  14.150  20.704  0.00  0.00    +0.000 C 
ATOM     22  N   UNL     1       0.168  15.294  20.771  0.00  0.00    +0.000 NA
ENDBRANCH  12  21
ENDBRANCH   5   7
BRANCH   1  23
ATOM     23  C   UNL     1       2.989   4.731  18.584  0.00  0.00    +0.000 C 
ATOM     24  C   UNL     1       2.334   3.738  19.588  0.00  0.00    +0.000 C 
ATOM     25  O   UNL     1       1.695   2.991  18.537  0.00  0.00    +0.000 OA
ATOM     26  C   UNL     1       2.207   3.893  17.531  0.00  0.00    +0.000 C 
BRANCH  23  27
ATOM     27  C   UNL     1       4.527   4.583  18.562  0.00  0.00    +0.000 C 
BRANCH  27  33
ATOM     28  C   UNL     1       6.088   6.987  17.300  0.00  0.00    +0.000 C 
ATOM     29  N   UNL     1       5.885   5.690  16.700  0.00  0.00    +0.000 N 
ATOM     30  C   UNL     1       6.419   5.310  15.497  0.00  0.00    +0.000 A 
ATOM     31  C   UNL     1       5.964   4.033  15.289  0.00  0.00    +0.000 A 
ATOM     32  N   UNL     1       5.212   3.613  16.351  0.00  0.00    +0.000 NA
ATOM     33  C   UNL     1       5.168   4.622  17.203  0.00  0.00    +0.000 A 
ENDBRANCH  27  33
ENDBRANCH  23  27
ENDBRANCH   1  23
TORSDOF 6
ENDMDL
