MODEL 1
REMARK VINA RESULT:      -8.9      0.000      0.000
REMARK  Name = 
REMARK  5 active torsions:
REMARK  status: ('A' for Active; 'I' for Inactive)
REMARK    1  A    between atoms: C_1  and  C_2
REMARK    2  A    between atoms: C_4  and  C_5
REMARK    3  A    between atoms: C_5  and  O_6
REMARK    4  A    between atoms: O_6  and  C_7
REMARK    5  A    between atoms: C_10  and  C_11
REMARK                            x       y       z     vdW  Elec       q    Type
REMARK                         _______ _______ _______ _____ _____    ______ ____
ROOT
ATOM      1  C   UNL     1       2.969   6.185  19.656  0.00  0.00    +0.000 C 
ATOM      2  N   UNL     1       2.017   5.122  19.184  0.00  0.00    +0.000 N 
ATOM      3  C   UNL     1       2.378   4.307  18.166  0.00  0.00    +0.000 C 
ATOM      4  N   UNL     1       1.775   3.103  18.090  0.00  0.00    +0.000 N 
ATOM      5  N   UNL     1       3.290   4.626  17.334  0.00  0.00    +0.000 NA
ATOM      6  C   UNL     1       3.763   5.861  17.657  0.00  0.00    +0.000 A 
ATOM      7  N   UNL     1       4.286   6.759  16.869  0.00  0.00    +0.000 NA
ATOM      8  C   UNL     1       5.469   6.178  16.980  0.00  0.00    +0.000 A 
ATOM      9  C   UNL     1       6.136   5.472  15.949  0.00  0.00    +0.000 A 
ATOM     10  C   UNL     1       7.135   4.565  16.250  0.00  0.00    +0.000 A 
ATOM     11  C   UNL     1       7.600   4.526  17.561  0.00  0.00    +0.000 A 
ATOM     12  C   UNL     1       6.923   5.215  18.636  0.00  0.00    +0.000 A 
ATOM     13  C   UNL     1       5.666   5.894  18.354  0.00  0.00    +0.000 A 
ATOM     14  N   UNL     1       4.373   6.030  18.999  0.00  0.00    +0.000 N 
ATOM     15  H   UNL     1       1.146   4.928  19.665  0.00  0.00    +0.000 HD
ATOM     16  H   UNL     1       0.815   3.183  17.781  0.00  0.00    +0.000 HD
ATOM     17  H   UNL     1       2.263   2.550  17.379  0.00  0.00    +0.000 HD
ENDROOT
BRANCH   1  21
ATOM     18  C   UNL     1       0.073   9.809  20.091  0.00  0.00    +0.000 A 
ATOM     19  C   UNL     1       0.218   8.861  21.124  0.00  0.00    +0.000 A 
ATOM     20  C   UNL     1       1.181   7.748  21.038  0.00  0.00    +0.000 A 
ATOM     21  C   UNL     1       2.069   7.541  19.924  0.00  0.00    +0.000 A 
ATOM     22  C   UNL     1       1.842   8.507  18.926  0.00  0.00    +0.000 A 
ATOM     23  C   UNL     1       0.898   9.594  19.003  0.00  0.00    +0.000 A 
BRANCH  18  24
ATOM     24  O   UNL     1      -0.877  10.831  20.104  0.00  0.00    +0.000 OA
BRANCH  24  25
ATOM     25  C   UNL     1      -0.965  11.688  18.883  0.00  0.00    +0.000 C 
BRANCH  25  29
ATOM     26  C   UNL     1      -3.510  10.175  14.752  0.00  0.00    +0.000 C 
ATOM     27  C   UNL     1      -3.235  10.735  16.114  0.00  0.00    +0.000 A 
ATOM     28  N   UNL     1      -2.051  10.866  16.698  0.00  0.00    +0.000 NA
ATOM     29  C   UNL     1      -2.180  11.437  17.983  0.00  0.00    +0.000 A 
ATOM     30  C   UNL     1      -3.491  11.716  18.299  0.00  0.00    +0.000 A 
ATOM     31  S   UNL     1      -4.568  11.281  17.051  0.00  0.00    +0.000 S 
ENDBRANCH  25  29
ENDBRANCH  24  25
ENDBRANCH  18  24
ENDBRANCH   1  21
TORSDOF 4
ENDMDL
MODEL 2
REMARK VINA RESULT:      -8.7      0.778      1.101
REMARK  Name = 
REMARK  5 active torsions:
REMARK  status: ('A' for Active; 'I' for Inactive)
REMARK    1  A    between atoms: C_1  and  C_2
REMARK    2  A    between atoms: C_4  and  C_5
REMARK    3  A    between atoms: C_5  and  O_6
REMARK    4  A    between atoms: O_6  and  C_7
REMARK    5  A    between atoms: C_10  and  C_11
REMARK                            x       y       z     vdW  Elec       q    Type
REMARK                         _______ _______ _______ _____ _____    ______ ____
ROOT
ATOM      1  C   UNL     1       3.000   6.213  19.578  0.00  0.00    +0.000 C 
ATOM      2  N   UNL     1       2.038   5.153  19.120  0.00  0.00    +0.000 N 
ATOM      3  C   UNL     1       2.389   4.327  18.107  0.00  0.00    +0.000 C 
ATOM      4  N   UNL     1       1.777   3.126  18.045  0.00  0.00    +0.000 N 
ATOM      5  N   UNL     1       3.300   4.632  17.269  0.00  0.00    +0.000 NA
ATOM      6  C   UNL     1       3.783   5.866  17.578  0.00  0.00    +0.000 A 
ATOM      7  N   UNL     1       4.309   6.753  16.780  0.00  0.00    +0.000 NA
ATOM      8  C   UNL     1       5.488   6.165  16.892  0.00  0.00    +0.000 A 
ATOM      9  C   UNL     1       6.146   5.444  15.864  0.00  0.00    +0.000 A 
ATOM     10  C   UNL     1       7.139   4.532  16.169  0.00  0.00    +0.000 A 
ATOM     11  C   UNL     1       7.610   4.502  17.478  0.00  0.00    +0.000 A 
ATOM     12  C   UNL     1       6.942   5.205  18.550  0.00  0.00    +0.000 A 
ATOM     13  C   UNL     1       5.689   5.891  18.267  0.00  0.00    +0.000 A 
ATOM     14  N   UNL     1       4.400   6.043  18.916  0.00  0.00    +0.000 N 
ATOM     15  H   UNL     1       1.168   4.970  19.607  0.00  0.00    +0.000 HD
ATOM     16  H   UNL     1       0.816   3.211  17.740  0.00  0.00    +0.000 HD
ATOM     17  H   UNL     1       2.258   2.564  17.337  0.00  0.00    +0.000 HD
ENDROOT
BRANCH   1  21
ATOM     18  C   UNL     1       0.119   9.848  20.020  0.00  0.00    +0.000 A 
ATOM     19  C   UNL     1       0.326   8.947  21.084  0.00  0.00    +0.000 A 
ATOM     20  C   UNL     1       1.288   7.832  20.992  0.00  0.00    +0.000 A 
ATOM     21  C   UNL     1       2.112   7.579  19.839  0.00  0.00    +0.000 A 
ATOM     22  C   UNL     1       1.824   8.500  18.814  0.00  0.00    +0.000 A 
ATOM     23  C   UNL     1       0.881   9.587  18.898  0.00  0.00    +0.000 A 
BRANCH  18  24
ATOM     24  O   UNL     1      -0.833  10.868  20.043  0.00  0.00    +0.000 OA
BRANCH  24  25
ATOM     25  C   UNL     1      -0.962  11.701  18.809  0.00  0.00    +0.000 C 
BRANCH  25  29
ATOM     26  C   UNL     1      -5.942  11.588  17.804  0.00  0.00    +0.000 C 
ATOM     27  C   UNL     1      -4.462  11.458  17.618  0.00  0.00    +0.000 A 
ATOM     28  N   UNL     1      -3.520  11.713  18.517  0.00  0.00    +0.000 NA
ATOM     29  C   UNL     1      -2.234  11.473  17.985  0.00  0.00    +0.000 A 
ATOM     30  C   UNL     1      -2.284  11.036  16.680  0.00  0.00    +0.000 A 
ATOM     31  S   UNL     1      -3.880  10.921  16.093  0.00  0.00    +0.000 S 
ENDBRANCH  25  29
ENDBRANCH  24  25
ENDBRANCH  18  24
ENDBRANCH   1  21
TORSDOF 4
ENDMDL
MODEL 3
REMARK VINA RESULT:      -8.6      0.642      1.098
REMARK  Name = 
REMARK  5 active torsions:
REMARK  status: ('A' for Active; 'I' for Inactive)
REMARK    1  A    between atoms: C_1  and  C_2
REMARK    2  A    between atoms: C_4  and  C_5
REMARK    3  A    between atoms: C_5  and  O_6
REMARK    4  A    between atoms: O_6  and  C_7
REMARK    5  A    between atoms: C_10  and  C_11
REMARK                            x       y       z     vdW  Elec       q    Type
REMARK                         _______ _______ _______ _____ _____    ______ ____
ROOT
ATOM      1  C   UNL     1       2.998   6.358  19.272  0.00  0.00    +0.000 C 
ATOM      2  N   UNL     1       2.130   5.171  18.962  0.00  0.00    +0.000 N 
ATOM      3  C   UNL     1       2.600   4.196  18.150  0.00  0.00    +0.000 C 
ATOM      4  N   UNL     1       2.058   2.967  18.277  0.00  0.00    +0.000 N 
ATOM      5  N   UNL     1       3.555   4.399  17.330  0.00  0.00    +0.000 NA
ATOM      6  C   UNL     1       3.948   5.698  17.430  0.00  0.00    +0.000 A 
ATOM      7  N   UNL     1       4.486   6.454  16.514  0.00  0.00    +0.000 NA
ATOM      8  C   UNL     1       5.683   5.975  16.812  0.00  0.00    +0.000 A 
ATOM      9  C   UNL     1       6.454   5.121  15.985  0.00  0.00    +0.000 A 
ATOM     10  C   UNL     1       7.468   4.349  16.522  0.00  0.00    +0.000 A 
ATOM     11  C   UNL     1       7.837   4.594  17.841  0.00  0.00    +0.000 A 
ATOM     12  C   UNL     1       7.054   5.438  18.714  0.00  0.00    +0.000 A 
ATOM     13  C   UNL     1       5.792   5.976  18.224  0.00  0.00    +0.000 A 
ATOM     14  N   UNL     1       4.451   6.161  18.748  0.00  0.00    +0.000 N 
ATOM     15  H   UNL     1       1.236   5.025  19.417  0.00  0.00    +0.000 HD
ATOM     16  H   UNL     1       1.120   2.930  17.899  0.00  0.00    +0.000 HD
ATOM     17  H   UNL     1       2.620   2.315  17.722  0.00  0.00    +0.000 HD
ENDROOT
BRANCH   1  21
ATOM     18  C   UNL     1       0.612  10.360  19.364  0.00  0.00    +0.000 A 
ATOM     19  C   UNL     1       1.249   9.916  18.188  0.00  0.00    +0.000 A 
ATOM     20  C   UNL     1       1.948   8.619  18.115  0.00  0.00    +0.000 A 
ATOM     21  C   UNL     1       2.021   7.687  19.210  0.00  0.00    +0.000 A 
ATOM     22  C   UNL     1       1.390   8.216  20.352  0.00  0.00    +0.000 A 
ATOM     23  C   UNL     1       0.711   9.485  20.429  0.00  0.00    +0.000 A 
BRANCH  18  24
ATOM     24  O   UNL     1       0.006  11.610  19.493  0.00  0.00    +0.000 OA
BRANCH  24  25
ATOM     25  C   UNL     1      -1.444  11.625  19.850  0.00  0.00    +0.000 C 
BRANCH  25  29
ATOM     26  C   UNL     1      -2.974  10.559  15.122  0.00  0.00    +0.000 C 
ATOM     27  C   UNL     1      -3.018  10.991  16.556  0.00  0.00    +0.000 A 
ATOM     28  N   UNL     1      -2.001  11.030  17.408  0.00  0.00    +0.000 NA
ATOM     29  C   UNL     1      -2.419  11.494  18.674  0.00  0.00    +0.000 A 
ATOM     30  C   UNL     1      -3.764  11.789  18.703  0.00  0.00    +0.000 A 
ATOM     31  S   UNL     1      -4.525  11.499  17.206  0.00  0.00    +0.000 S 
ENDBRANCH  25  29
ENDBRANCH  24  25
ENDBRANCH  18  24
ENDBRANCH   1  21
TORSDOF 4
ENDMDL
MODEL 4
REMARK VINA RESULT:      -8.5      2.473      3.246
REMARK  Name = 
REMARK  5 active torsions:
REMARK  status: ('A' for Active; 'I' for Inactive)
REMARK    1  A    between atoms: C_1  and  C_2
REMARK    2  A    between atoms: C_4  and  C_5
REMARK    3  A    between atoms: C_5  and  O_6
REMARK    4  A    between atoms: O_6  and  C_7
REMARK    5  A    between atoms: C_10  and  C_11
REMARK                            x       y       z     vdW  Elec       q    Type
REMARK                         _______ _______ _______ _____ _____    ______ ____
ROOT
ATOM      1  C   UNL     1       2.967   6.159  19.463  0.00  0.00    +0.000 C 
ATOM      2  N   UNL     1       2.081   5.016  19.053  0.00  0.00    +0.000 N 
ATOM      3  C   UNL     1       2.516   4.135  18.123  0.00  0.00    +0.000 C 
ATOM      4  N   UNL     1       1.971   2.901  18.133  0.00  0.00    +0.000 N 
ATOM      5  N   UNL     1       3.445   4.424  17.298  0.00  0.00    +0.000 NA
ATOM      6  C   UNL     1       3.850   5.703  17.528  0.00  0.00    +0.000 A 
ATOM      7  N   UNL     1       4.363   6.553  16.683  0.00  0.00    +0.000 NA
ATOM      8  C   UNL     1       5.565   6.041  16.885  0.00  0.00    +0.000 A 
ATOM      9  C   UNL     1       6.302   5.281  15.943  0.00  0.00    +0.000 A 
ATOM     10  C   UNL     1       7.328   4.451  16.357  0.00  0.00    +0.000 A 
ATOM     11  C   UNL     1       7.743   4.547  17.681  0.00  0.00    +0.000 A 
ATOM     12  C   UNL     1       6.996   5.293  18.669  0.00  0.00    +0.000 A 
ATOM     13  C   UNL     1       5.722   5.885  18.284  0.00  0.00    +0.000 A 
ATOM     14  N   UNL     1       4.400   6.015  18.870  0.00  0.00    +0.000 N 
ATOM     15  H   UNL     1       1.201   4.823  19.519  0.00  0.00    +0.000 HD
ATOM     16  H   UNL     1       1.021   2.909  17.785  0.00  0.00    +0.000 HD
ATOM     17  H   UNL     1       2.510   2.313  17.489  0.00  0.00    +0.000 HD
ENDROOT
BRANCH   1  21
ATOM     18  C   UNL     1       0.620  10.140  20.061  0.00  0.00    +0.000 A 
ATOM     19  C   UNL     1       1.181   9.803  18.813  0.00  0.00    +0.000 A 
ATOM     20  C   UNL     1       1.864   8.516  18.581  0.00  0.00    +0.000 A 
ATOM     21  C   UNL     1       1.998   7.489  19.581  0.00  0.00    +0.000 A 
ATOM     22  C   UNL     1       1.442   7.914  20.802  0.00  0.00    +0.000 A 
ATOM     23  C   UNL     1       0.779   9.172  21.035  0.00  0.00    +0.000 A 
BRANCH  18  24
ATOM     24  O   UNL     1       0.033  11.374  20.339  0.00  0.00    +0.000 OA
BRANCH  24  25
ATOM     25  C   UNL     1      -0.243  11.685  21.775  0.00  0.00    +0.000 C 
BRANCH  25  29
ATOM     26  C   UNL     1      -4.373  12.432  24.640  0.00  0.00    +0.000 C 
ATOM     27  C   UNL     1      -3.472  12.402  23.443  0.00  0.00    +0.000 A 
ATOM     28  N   UNL     1      -2.216  11.975  23.402  0.00  0.00    +0.000 NA
ATOM     29  C   UNL     1      -1.683  12.095  22.100  0.00  0.00    +0.000 A 
ATOM     30  C   UNL     1      -2.596  12.617  21.210  0.00  0.00    +0.000 A 
ATOM     31  S   UNL     1      -4.092  12.970  21.945  0.00  0.00    +0.000 S 
ENDBRANCH  25  29
ENDBRANCH  24  25
ENDBRANCH  18  24
ENDBRANCH   1  21
TORSDOF 4
ENDMDL
MODEL 5
REMARK VINA RESULT:      -8.5      1.026      1.658
REMARK  Name = 
REMARK  5 active torsions:
REMARK  status: ('A' for Active; 'I' for Inactive)
REMARK    1  A    between atoms: C_1  and  C_2
REMARK    2  A    between atoms: C_4  and  C_5
REMARK    3  A    between atoms: C_5  and  O_6
REMARK    4  A    between atoms: O_6  and  C_7
REMARK    5  A    between atoms: C_10  and  C_11
REMARK                            x       y       z     vdW  Elec       q    Type
REMARK                         _______ _______ _______ _____ _____    ______ ____
ROOT
ATOM      1  C   UNL     1       2.965   6.145  19.457  0.00  0.00    +0.000 C 
ATOM      2  N   UNL     1       2.078   5.002  19.049  0.00  0.00    +0.000 N 
ATOM      3  C   UNL     1       2.510   4.122  18.117  0.00  0.00    +0.000 C 
ATOM      4  N   UNL     1       1.965   2.888  18.127  0.00  0.00    +0.000 N 
ATOM      5  N   UNL     1       3.436   4.412  17.290  0.00  0.00    +0.000 NA
ATOM      6  C   UNL     1       3.842   5.691  17.519  0.00  0.00    +0.000 A 
ATOM      7  N   UNL     1       4.351   6.542  16.673  0.00  0.00    +0.000 NA
ATOM      8  C   UNL     1       5.554   6.030  16.871  0.00  0.00    +0.000 A 
ATOM      9  C   UNL     1       6.288   5.271  15.926  0.00  0.00    +0.000 A 
ATOM     10  C   UNL     1       7.315   4.441  16.335  0.00  0.00    +0.000 A 
ATOM     11  C   UNL     1       7.735   4.536  17.658  0.00  0.00    +0.000 A 
ATOM     12  C   UNL     1       6.991   5.281  18.649  0.00  0.00    +0.000 A 
ATOM     13  C   UNL     1       5.716   5.873  18.269  0.00  0.00    +0.000 A 
ATOM     14  N   UNL     1       4.396   6.002  18.860  0.00  0.00    +0.000 N 
ATOM     15  H   UNL     1       1.200   4.808  19.519  0.00  0.00    +0.000 HD
ATOM     16  H   UNL     1       1.014   2.896  17.783  0.00  0.00    +0.000 HD
ATOM     17  H   UNL     1       2.502   2.301  17.482  0.00  0.00    +0.000 HD
ENDROOT
BRANCH   1  21
ATOM     18  C   UNL     1       0.617  10.123  20.072  0.00  0.00    +0.000 A 
ATOM     19  C   UNL     1       1.182   9.793  18.823  0.00  0.00    +0.000 A 
ATOM     20  C   UNL     1       1.866   8.507  18.586  0.00  0.00    +0.000 A 
ATOM     21  C   UNL     1       1.996   7.475  19.580  0.00  0.00    +0.000 A 
ATOM     22  C   UNL     1       1.436   7.892  20.802  0.00  0.00    +0.000 A 
ATOM     23  C   UNL     1       0.772   9.149  21.040  0.00  0.00    +0.000 A 
BRANCH  18  24
ATOM     24  O   UNL     1       0.029  11.356  20.355  0.00  0.00    +0.000 OA
BRANCH  24  25
ATOM     25  C   UNL     1      -0.402  12.184  19.189  0.00  0.00    +0.000 C 
BRANCH  25  29
ATOM     26  C   UNL     1      -5.480  12.027  19.295  0.00  0.00    +0.000 C 
ATOM     27  C   UNL     1      -4.074  11.886  18.798  0.00  0.00    +0.000 A 
ATOM     28  N   UNL     1      -2.962  12.184  19.458  0.00  0.00    +0.000 NA
ATOM     29  C   UNL     1      -1.820  11.917  18.672  0.00  0.00    +0.000 A 
ATOM     30  C   UNL     1      -2.147  11.414  17.433  0.00  0.00    +0.000 A 
ATOM     31  S   UNL     1      -3.831  11.272  17.212  0.00  0.00    +0.000 S 
ENDBRANCH  25  29
ENDBRANCH  24  25
ENDBRANCH  18  24
ENDBRANCH   1  21
TORSDOF 4
ENDMDL
MODEL 6
REMARK VINA RESULT:      -8.4      5.998      8.590
REMARK  Name = 
REMARK  5 active torsions:
REMARK  status: ('A' for Active; 'I' for Inactive)
REMARK    1  A    between atoms: C_1  and  C_2
REMARK    2  A    between atoms: C_4  and  C_5
REMARK    3  A    between atoms: C_5  and  O_6
REMARK    4  A    between atoms: O_6  and  C_7
REMARK    5  A    between atoms: C_10  and  C_11
REMARK                            x       y       z     vdW  Elec       q    Type
REMARK                         _______ _______ _______ _____ _____    ______ ____
ROOT
ATOM      1  C   UNL     1       5.806   6.367  16.671  0.00  0.00    +0.000 C 
ATOM      2  N   UNL     1       6.444   5.549  15.583  0.00  0.00    +0.000 N 
ATOM      3  C   UNL     1       6.109   4.246  15.447  0.00  0.00    +0.000 C 
ATOM      4  N   UNL     1       6.281   3.685  14.232  0.00  0.00    +0.000 N 
ATOM      5  N   UNL     1       5.598   3.573  16.402  0.00  0.00    +0.000 NA
ATOM      6  C   UNL     1       5.491   4.378  17.494  0.00  0.00    +0.000 A 
ATOM      7  N   UNL     1       5.514   4.041  18.753  0.00  0.00    +0.000 NA
ATOM      8  C   UNL     1       4.219   3.774  18.712  0.00  0.00    +0.000 A 
ATOM      9  C   UNL     1       3.645   2.481  18.795  0.00  0.00    +0.000 A 
ATOM     10  C   UNL     1       2.362   2.251  18.335  0.00  0.00    +0.000 A 
ATOM     11  C   UNL     1       1.590   3.355  17.990  0.00  0.00    +0.000 A 
ATOM     12  C   UNL     1       2.155   4.680  17.872  0.00  0.00    +0.000 A 
ATOM     13  C   UNL     1       3.594   4.846  18.030  0.00  0.00    +0.000 A 
ATOM     14  N   UNL     1       4.648   5.593  17.368  0.00  0.00    +0.000 N 
ATOM     15  H   UNL     1       7.048   5.964  14.883  0.00  0.00    +0.000 HD
ATOM     16  H   UNL     1       7.259   3.530  14.025  0.00  0.00    +0.000 HD
ATOM     17  H   UNL     1       5.838   2.761  14.246  0.00  0.00    +0.000 HD
ENDROOT
BRANCH   1  21
ATOM     18  C   UNL     1       8.808   9.216  18.812  0.00  0.00    +0.000 A 
ATOM     19  C   UNL     1       8.757   7.842  19.122  0.00  0.00    +0.000 A 
ATOM     20  C   UNL     1       7.867   6.909  18.406  0.00  0.00    +0.000 A 
ATOM     21  C   UNL     1       7.001   7.299  17.325  0.00  0.00    +0.000 A 
ATOM     22  C   UNL     1       7.087   8.686  17.099  0.00  0.00    +0.000 A 
ATOM     23  C   UNL     1       7.952   9.602  17.799  0.00  0.00    +0.000 A 
BRANCH  18  24
ATOM     24  O   UNL     1       9.581  10.141  19.514  0.00  0.00    +0.000 OA
BRANCH  24  25
ATOM     25  C   UNL     1       9.202  11.580  19.381  0.00  0.00    +0.000 C 
BRANCH  25  29
ATOM     26  C   UNL     1      10.926  15.759  17.060  0.00  0.00    +0.000 C 
ATOM     27  C   UNL     1      10.834  14.336  17.519  0.00  0.00    +0.000 A 
ATOM     28  N   UNL     1       9.892  13.807  18.290  0.00  0.00    +0.000 NA
ATOM     29  C   UNL     1      10.133  12.434  18.512  0.00  0.00    +0.000 A 
ATOM     30  C   UNL     1      11.272  11.995  17.875  0.00  0.00    +0.000 A 
ATOM     31  S   UNL     1      12.057  13.239  17.015  0.00  0.00    +0.000 S 
ENDBRANCH  25  29
ENDBRANCH  24  25
ENDBRANCH  18  24
ENDBRANCH   1  21
TORSDOF 4
ENDMDL
MODEL 7
REMARK VINA RESULT:      -8.4      3.174      4.573
REMARK  Name = 
REMARK  5 active torsions:
REMARK  status: ('A' for Active; 'I' for Inactive)
REMARK    1  A    between atoms: C_1  and  C_2
REMARK    2  A    between atoms: C_4  and  C_5
REMARK    3  A    between atoms: C_5  and  O_6
REMARK    4  A    between atoms: O_6  and  C_7
REMARK    5  A    between atoms: C_10  and  C_11
REMARK                            x       y       z     vdW  Elec       q    Type
REMARK                         _______ _______ _______ _____ _____    ______ ____
ROOT
ATOM      1  C   UNL     1       2.437   7.098  17.969  0.00  0.00    +0.000 C 
ATOM      2  N   UNL     1       3.783   7.513  17.444  0.00  0.00    +0.000 N 
ATOM      3  C   UNL     1       4.799   6.620  17.435  0.00  0.00    +0.000 C 
ATOM      4  N   UNL     1       5.795   6.822  16.547  0.00  0.00    +0.000 N 
ATOM      5  N   UNL     1       4.805   5.591  18.188  0.00  0.00    +0.000 NA
ATOM      6  C   UNL     1       3.675   5.600  18.947  0.00  0.00    +0.000 A 
ATOM      7  N   UNL     1       3.492   5.089  20.132  0.00  0.00    +0.000 NA
ATOM      8  C   UNL     1       3.227   3.912  19.591  0.00  0.00    +0.000 A 
ATOM      9  C   UNL     1       4.058   2.766  19.670  0.00  0.00    +0.000 A 
ATOM     10  C   UNL     1       3.924   1.736  18.757  0.00  0.00    +0.000 A 
ATOM     11  C   UNL     1       2.825   1.766  17.905  0.00  0.00    +0.000 A 
ATOM     12  C   UNL     1       1.977   2.930  17.785  0.00  0.00    +0.000 A 
ATOM     13  C   UNL     1       2.339   4.140  18.512  0.00  0.00    +0.000 A 
ATOM     14  N   UNL     1       2.373   5.564  18.236  0.00  0.00    +0.000 N 
ATOM     15  H   UNL     1       3.934   8.415  17.006  0.00  0.00    +0.000 HD
ATOM     16  H   UNL     1       6.385   7.600  16.817  0.00  0.00    +0.000 HD
ATOM     17  H   UNL     1       6.394   5.991  16.550  0.00  0.00    +0.000 HD
ENDROOT
BRANCH   1  21
ATOM     18  C   UNL     1       0.372  10.521  20.362  0.00  0.00    +0.000 A 
ATOM     19  C   UNL     1       0.847   9.362  21.008  0.00  0.00    +0.000 A 
ATOM     20  C   UNL     1       1.569   8.299  20.282  0.00  0.00    +0.000 A 
ATOM     21  C   UNL     1       1.874   8.355  18.877  0.00  0.00    +0.000 A 
ATOM     22  C   UNL     1       1.341   9.524  18.302  0.00  0.00    +0.000 A 
ATOM     23  C   UNL     1       0.631  10.562  19.005  0.00  0.00    +0.000 A 
BRANCH  18  24
ATOM     24  O   UNL     1      -0.377  11.511  20.999  0.00  0.00    +0.000 OA
BRANCH  24  25
ATOM     25  C   UNL     1      -0.573  11.368  22.473  0.00  0.00    +0.000 C 
BRANCH  25  29
ATOM     26  C   UNL     1      -5.072  12.555  24.517  0.00  0.00    +0.000 C 
ATOM     27  C   UNL     1      -3.676  12.704  23.994  0.00  0.00    +0.000 A 
ATOM     28  N   UNL     1      -2.912  11.749  23.479  0.00  0.00    +0.000 NA
ATOM     29  C   UNL     1      -1.656  12.262  23.088  0.00  0.00    +0.000 A 
ATOM     30  C   UNL     1      -1.546  13.612  23.334  0.00  0.00    +0.000 A 
ATOM     31  S   UNL     1      -2.952  14.261  24.045  0.00  0.00    +0.000 S 
ENDBRANCH  25  29
ENDBRANCH  24  25
ENDBRANCH  18  24
ENDBRANCH   1  21
TORSDOF 4
ENDMDL
MODEL 8
REMARK VINA RESULT:      -8.4      3.979      8.782
REMARK  Name = 
REMARK  5 active torsions:
REMARK  status: ('A' for Active; 'I' for Inactive)
REMARK    1  A    between atoms: C_1  and  C_2
REMARK    2  A    between atoms: C_4  and  C_5
REMARK    3  A    between atoms: C_5  and  O_6
REMARK    4  A    between atoms: O_6  and  C_7
REMARK    5  A    between atoms: C_10  and  C_11
REMARK                            x       y       z     vdW  Elec       q    Type
REMARK                         _______ _______ _______ _____ _____    ______ ____
ROOT
ATOM      1  C   UNL     1       1.452   9.769  18.456  0.00  0.00    +0.000 C 
ATOM      2  N   UNL     1       0.257   9.663  17.551  0.00  0.00    +0.000 N 
ATOM      3  C   UNL     1      -0.933  10.164  17.957  0.00  0.00    +0.000 C 
ATOM      4  N   UNL     1      -1.821  10.508  17.001  0.00  0.00    +0.000 N 
ATOM      5  N   UNL     1      -1.200  10.362  19.188  0.00  0.00    +0.000 NA
ATOM      6  C   UNL     1      -0.129   9.977  19.935  0.00  0.00    +0.000 A 
ATOM      7  N   UNL     1      -0.115   9.535  21.161  0.00  0.00    +0.000 NA
ATOM      8  C   UNL     1      -0.098  10.776  21.616  0.00  0.00    +0.000 A 
ATOM      9  C   UNL     1      -1.168  11.417  22.289  0.00  0.00    +0.000 A 
ATOM     10  C   UNL     1      -1.231  12.797  22.355  0.00  0.00    +0.000 A 
ATOM     11  C   UNL     1      -0.120  13.517  21.930  0.00  0.00    +0.000 A 
ATOM     12  C   UNL     1       0.972  12.893  21.217  0.00  0.00    +0.000 A 
ATOM     13  C   UNL     1       0.861  11.487  20.854  0.00  0.00    +0.000 A 
ATOM     14  N   UNL     1       1.159  10.671  19.691  0.00  0.00    +0.000 N 
ATOM     15  H   UNL     1       0.330   9.314  16.602  0.00  0.00    +0.000 HD
ATOM     16  H   UNL     1      -2.231   9.695  16.561  0.00  0.00    +0.000 HD
ATOM     17  H   UNL     1      -2.590  11.013  17.452  0.00  0.00    +0.000 HD
ENDROOT
BRANCH   1  21
ATOM     18  C   UNL     1       4.113   5.944  18.367  0.00  0.00    +0.000 A 
ATOM     19  C   UNL     1       3.139   6.134  19.368  0.00  0.00    +0.000 A 
ATOM     20  C   UNL     1       2.236   7.301  19.374  0.00  0.00    +0.000 A 
ATOM     21  C   UNL     1       2.245   8.325  18.363  0.00  0.00    +0.000 A 
ATOM     22  C   UNL     1       3.262   8.080  17.421  0.00  0.00    +0.000 A 
ATOM     23  C   UNL     1       4.150   6.944  17.414  0.00  0.00    +0.000 A 
BRANCH  18  24
ATOM     24  O   UNL     1       5.031   4.895  18.368  0.00  0.00    +0.000 OA
BRANCH  24  25
ATOM     25  C   UNL     1       6.357   5.155  17.730  0.00  0.00    +0.000 C 
BRANCH  25  29
ATOM     26  C   UNL     1       8.071   5.520  12.959  0.00  0.00    +0.000 C 
ATOM     27  C   UNL     1       7.266   5.067  14.139  0.00  0.00    +0.000 A 
ATOM     28  N   UNL     1       7.368   5.504  15.388  0.00  0.00    +0.000 NA
ATOM     29  C   UNL     1       6.444   4.848  16.230  0.00  0.00    +0.000 A 
ATOM     30  C   UNL     1       5.676   3.932  15.547  0.00  0.00    +0.000 A 
ATOM     31  S   UNL     1       6.073   3.855  13.892  0.00  0.00    +0.000 S 
ENDBRANCH  25  29
ENDBRANCH  24  25
ENDBRANCH  18  24
ENDBRANCH   1  21
TORSDOF 4
ENDMDL
MODEL 9
REMARK VINA RESULT:      -8.4      1.480      2.951
REMARK  Name = 
REMARK  5 active torsions:
REMARK  status: ('A' for Active; 'I' for Inactive)
REMARK    1  A    between atoms: C_1  and  C_2
REMARK    2  A    between atoms: C_4  and  C_5
REMARK    3  A    between atoms: C_5  and  O_6
REMARK    4  A    between atoms: O_6  and  C_7
REMARK    5  A    between atoms: C_10  and  C_11
REMARK                            x       y       z     vdW  Elec       q    Type
REMARK                         _______ _______ _______ _____ _____    ______ ____
ROOT
ATOM      1  C   UNL     1       2.983   6.775  17.817  0.00  0.00    +0.000 C 
ATOM      2  N   UNL     1       4.418   7.173  17.616  0.00  0.00    +0.000 N 
ATOM      3  C   UNL     1       5.401   6.283  17.883  0.00  0.00    +0.000 C 
ATOM      4  N   UNL     1       6.582   6.453  17.254  0.00  0.00    +0.000 N 
ATOM      5  N   UNL     1       5.218   5.283  18.654  0.00  0.00    +0.000 NA
ATOM      6  C   UNL     1       3.939   5.318  19.119  0.00  0.00    +0.000 A 
ATOM      7  N   UNL     1       3.474   4.851  20.243  0.00  0.00    +0.000 NA
ATOM      8  C   UNL     1       3.338   3.654  19.698  0.00  0.00    +0.000 A 
ATOM      9  C   UNL     1       4.118   2.514  20.016  0.00  0.00    +0.000 A 
ATOM     10  C   UNL     1       4.200   1.450  19.137  0.00  0.00    +0.000 A 
ATOM     11  C   UNL     1       3.337   1.445  18.045  0.00  0.00    +0.000 A 
ATOM     12  C   UNL     1       2.551   2.603  17.683  0.00  0.00    +0.000 A 
ATOM     13  C   UNL     1       2.737   3.839  18.429  0.00  0.00    +0.000 A 
ATOM     14  N   UNL     1       2.846   5.253  18.118  0.00  0.00    +0.000 N 
ATOM     15  H   UNL     1       4.676   8.058  17.194  0.00  0.00    +0.000 HD
ATOM     16  H   UNL     1       7.095   7.241  17.628  0.00  0.00    +0.000 HD
ATOM     17  H   UNL     1       7.156   5.624  17.431  0.00  0.00    +0.000 HD
ENDROOT
BRANCH   1  21
ATOM     18  C   UNL     1       0.408  10.235  19.583  0.00  0.00    +0.000 A 
ATOM     19  C   UNL     1       0.880   9.186  20.398  0.00  0.00    +0.000 A 
ATOM     20  C   UNL     1       1.757   8.120  19.876  0.00  0.00    +0.000 A 
ATOM     21  C   UNL     1       2.227   8.065  18.517  0.00  0.00    +0.000 A 
ATOM     22  C   UNL     1       1.689   9.125  17.764  0.00  0.00    +0.000 A 
ATOM     23  C   UNL     1       0.828  10.165  18.268  0.00  0.00    +0.000 A 
BRANCH  18  24
ATOM     24  O   UNL     1      -0.479  11.217  20.021  0.00  0.00    +0.000 OA
BRANCH  24  25
ATOM     25  C   UNL     1      -0.970  12.190  18.999  0.00  0.00    +0.000 C 
BRANCH  25  29
ATOM     26  C   UNL     1      -3.618  10.417  15.039  0.00  0.00    +0.000 C 
ATOM     27  C   UNL     1      -3.308  10.952  16.404  0.00  0.00    +0.000 A 
ATOM     28  N   UNL     1      -2.112  11.282  16.878  0.00  0.00    +0.000 NA
ATOM     29  C   UNL     1      -2.207  11.752  18.206  0.00  0.00    +0.000 A 
ATOM     30  C   UNL     1      -3.505  11.754  18.667  0.00  0.00    +0.000 A 
ATOM     31  S   UNL     1      -4.609  11.180  17.503  0.00  0.00    +0.000 S 
ENDBRANCH  25  29
ENDBRANCH  24  25
ENDBRANCH  18  24
ENDBRANCH   1  21
TORSDOF 4
ENDMDL
