MODEL 1
REMARK VINA RESULT:      -9.4      0.000      0.000
REMARK  Name = 
REMARK  6 active torsions:
REMARK  status: ('A' for Active; 'I' for Inactive)
REMARK    1  A    between atoms: C_1  and  C_2
REMARK    2  A    between atoms: C_2  and  C_3
REMARK    3  A    between atoms: C_2  and  C_4
REMARK    4  A    between atoms: N_12  and  C_13
REMARK    5  A    between atoms: C_13  and  C_14
REMARK    6  A    between atoms: C_17  and  C_18
REMARK                            x       y       z     vdW  Elec       q    Type
REMARK                         _______ _______ _______ _____ _____    ______ ____
ROOT
ATOM      1  C   UNL     1       4.270   4.765  17.739  0.00  0.00    +0.000 A 
ATOM      2  N   UNL     1       4.357   4.477  19.049  0.00  0.00    +0.000 NA
ATOM      3  O   UNL     1       3.673   5.542  19.670  0.00  0.00    +0.000 OA
ATOM      4  C   UNL     1       3.206   6.330  18.664  0.00  0.00    +0.000 A 
ATOM      5  N   UNL     1       3.527   5.880  17.470  0.00  0.00    +0.000 NA
ENDROOT
BRANCH   4   6
ATOM      6  C   UNL     1       2.624   7.660  18.946  0.00  0.00    +0.000 C 
ATOM      7  C   UNL     1       1.761   8.441  17.928  0.00  0.00    +0.000 C 
ATOM      8  C   UNL     1       1.143   9.448  18.883  0.00  0.00    +0.000 A 
ATOM      9  C   UNL     1       0.653  10.723  18.653  0.00  0.00    +0.000 A 
ATOM     10  C   UNL     1       0.321  11.513  19.768  0.00  0.00    +0.000 A 
ATOM     11  C   UNL     1       0.469  11.027  21.073  0.00  0.00    +0.000 A 
ATOM     12  C   UNL     1       0.890   9.716  21.298  0.00  0.00    +0.000 A 
ATOM     13  C   UNL     1       1.201   8.951  20.187  0.00  0.00    +0.000 A 
ATOM     14  C   UNL     1       1.724   7.553  20.183  0.00  0.00    +0.000 C 
ENDBRANCH   4   6
BRANCH   1  15
ATOM     15  C   UNL     1       4.776   3.886  16.646  0.00  0.00    +0.000 C 
BRANCH  15  24
ATOM     16  C   UNL     1       6.814   5.393  16.302  0.00  0.00    +0.000 A 
ATOM     17  N   UNL     1       7.611   5.739  15.310  0.00  0.00    +0.000 NA
ATOM     18  C   UNL     1       7.201   5.034  14.221  0.00  0.00    +0.000 A 
ATOM     19  C   UNL     1       7.715   5.063  12.917  0.00  0.00    +0.000 A 
ATOM     20  C   UNL     1       7.111   4.270  11.939  0.00  0.00    +0.000 A 
ATOM     21  C   UNL     1       6.010   3.474  12.257  0.00  0.00    +0.000 A 
ATOM     22  C   UNL     1       5.487   3.432  13.558  0.00  0.00    +0.000 A 
ATOM     23  C   UNL     1       6.116   4.220  14.534  0.00  0.00    +0.000 A 
ATOM     24  N   UNL     1       5.902   4.431  15.889  0.00  0.00    +0.000 N 
BRANCH  16  26
ATOM     25  C   UNL     1       7.881   5.109  18.512  0.00  0.00    +0.000 C 
ATOM     26  C   UNL     1       6.944   5.988  17.676  0.00  0.00    +0.000 C 
ATOM     27  C   UNL     1       7.521   7.407  17.591  0.00  0.00    +0.000 C 
ENDBRANCH  16  26
ENDBRANCH  15  24
ENDBRANCH   1  15
TORSDOF 4
ENDMDL
MODEL 2
REMARK VINA RESULT:      -9.2      3.769      6.941
REMARK  Name = 
REMARK  6 active torsions:
REMARK  status: ('A' for Active; 'I' for Inactive)
REMARK    1  A    between atoms: C_1  and  C_2
REMARK    2  A    between atoms: C_2  and  C_3
REMARK    3  A    between atoms: C_2  and  C_4
REMARK    4  A    between atoms: N_12  and  C_13
REMARK    5  A    between atoms: C_13  and  C_14
REMARK    6  A    between atoms: C_17  and  C_18
REMARK                            x       y       z     vdW  Elec       q    Type
REMARK                         _______ _______ _______ _____ _____    ______ ____
ROOT
ATOM      1  C   UNL     1       6.596   7.510  17.423  0.00  0.00    +0.000 A 
ATOM      2  N   UNL     1       7.446   6.729  18.111  0.00  0.00    +0.000 NA
ATOM      3  O   UNL     1       8.458   7.619  18.523  0.00  0.00    +0.000 OA
ATOM      4  C   UNL     1       8.082   8.850  18.080  0.00  0.00    +0.000 A 
ATOM      5  N   UNL     1       6.941   8.833  17.425  0.00  0.00    +0.000 NA
ENDROOT
BRANCH   4   6
ATOM      6  C   UNL     1       9.012   9.998  18.142  0.00  0.00    +0.000 C 
ATOM      7  C   UNL     1       8.630  11.425  17.684  0.00  0.00    +0.000 C 
ATOM      8  C   UNL     1       9.761  12.187  18.354  0.00  0.00    +0.000 A 
ATOM      9  C   UNL     1      10.349  13.397  18.025  0.00  0.00    +0.000 A 
ATOM     10  C   UNL     1      11.520  13.769  18.708  0.00  0.00    +0.000 A 
ATOM     11  C   UNL     1      12.074  12.948  19.699  0.00  0.00    +0.000 A 
ATOM     12  C   UNL     1      11.437  11.767  20.080  0.00  0.00    +0.000 A 
ATOM     13  C   UNL     1      10.280  11.425  19.403  0.00  0.00    +0.000 A 
ATOM     14  C   UNL     1       9.464  10.190  19.595  0.00  0.00    +0.000 C 
ENDBRANCH   4   6
BRANCH   1  15
ATOM     15  C   UNL     1       5.303   7.046  16.843  0.00  0.00    +0.000 C 
BRANCH  15  24
ATOM     16  C   UNL     1       5.284   4.647  15.956  0.00  0.00    +0.000 A 
ATOM     17  N   UNL     1       4.832   3.470  16.343  0.00  0.00    +0.000 NA
ATOM     18  C   UNL     1       4.273   3.656  17.570  0.00  0.00    +0.000 A 
ATOM     19  C   UNL     1       3.639   2.715  18.393  0.00  0.00    +0.000 A 
ATOM     20  C   UNL     1       3.105   3.140  19.611  0.00  0.00    +0.000 A 
ATOM     21  C   UNL     1       3.194   4.479  19.992  0.00  0.00    +0.000 A 
ATOM     22  C   UNL     1       3.829   5.431  19.181  0.00  0.00    +0.000 A 
ATOM     23  C   UNL     1       4.377   4.986  17.969  0.00  0.00    +0.000 A 
ATOM     24  N   UNL     1       5.067   5.606  16.936  0.00  0.00    +0.000 N 
BRANCH  16  26
ATOM     25  C   UNL     1       7.472   4.881  14.832  0.00  0.00    +0.000 C 
ATOM     26  C   UNL     1       5.954   4.847  14.625  0.00  0.00    +0.000 C 
ATOM     27  C   UNL     1       5.596   3.700  13.671  0.00  0.00    +0.000 C 
ENDBRANCH  16  26
ENDBRANCH  15  24
ENDBRANCH   1  15
TORSDOF 4
ENDMDL
MODEL 3
REMARK VINA RESULT:      -9.2      0.540      1.268
REMARK  Name = 
REMARK  6 active torsions:
REMARK  status: ('A' for Active; 'I' for Inactive)
REMARK    1  A    between atoms: C_1  and  C_2
REMARK    2  A    between atoms: C_2  and  C_3
REMARK    3  A    between atoms: C_2  and  C_4
REMARK    4  A    between atoms: N_12  and  C_13
REMARK    5  A    between atoms: C_13  and  C_14
REMARK    6  A    between atoms: C_17  and  C_18
REMARK                            x       y       z     vdW  Elec       q    Type
REMARK                         _______ _______ _______ _____ _____    ______ ____
ROOT
ATOM      1  C   UNL     1       4.405   4.365  17.726  0.00  0.00    +0.000 A 
ATOM      2  N   UNL     1       4.705   4.221  19.028  0.00  0.00    +0.000 NA
ATOM      3  O   UNL     1       3.826   5.114  19.674  0.00  0.00    +0.000 OA
ATOM      4  C   UNL     1       3.058   5.663  18.694  0.00  0.00    +0.000 A 
ATOM      5  N   UNL     1       3.361   5.216  17.494  0.00  0.00    +0.000 NA
ENDROOT
BRANCH   4   6
ATOM      6  C   UNL     1       2.166   6.808  18.977  0.00  0.00    +0.000 C 
ATOM      7  C   UNL     1       1.960   7.391  20.394  0.00  0.00    +0.000 C 
ATOM      8  C   UNL     1       1.331   8.718  20.002  0.00  0.00    +0.000 A 
ATOM      9  C   UNL     1       0.470   9.547  20.701  0.00  0.00    +0.000 A 
ATOM     10  C   UNL     1      -0.117  10.622  20.010  0.00  0.00    +0.000 A 
ATOM     11  C   UNL     1       0.165  10.858  18.658  0.00  0.00    +0.000 A 
ATOM     12  C   UNL     1       1.091  10.066  17.979  0.00  0.00    +0.000 A 
ATOM     13  C   UNL     1       1.666   9.021  18.680  0.00  0.00    +0.000 A 
ATOM     14  C   UNL     1       2.631   8.013  18.150  0.00  0.00    +0.000 C 
ENDBRANCH   4   6
BRANCH   1  15
ATOM     15  C   UNL     1       5.014   3.565  16.625  0.00  0.00    +0.000 C 
BRANCH  15  24
ATOM     16  C   UNL     1       6.876   5.289  16.301  0.00  0.00    +0.000 A 
ATOM     17  N   UNL     1       7.609   5.754  15.309  0.00  0.00    +0.000 NA
ATOM     18  C   UNL     1       7.247   5.051  14.200  0.00  0.00    +0.000 A 
ATOM     19  C   UNL     1       7.724   5.183  12.889  0.00  0.00    +0.000 A 
ATOM     20  C   UNL     1       7.182   4.370  11.892  0.00  0.00    +0.000 A 
ATOM     21  C   UNL     1       6.178   3.451  12.200  0.00  0.00    +0.000 A 
ATOM     22  C   UNL     1       5.693   3.305  13.508  0.00  0.00    +0.000 A 
ATOM     23  C   UNL     1       6.261   4.117  14.502  0.00  0.00    +0.000 A 
ATOM     24  N   UNL     1       6.060   4.253  15.869  0.00  0.00    +0.000 N 
BRANCH  16  26
ATOM     25  C   UNL     1       7.989   5.007  18.489  0.00  0.00    +0.000 C 
ATOM     26  C   UNL     1       6.977   5.841  17.696  0.00  0.00    +0.000 C 
ATOM     27  C   UNL     1       7.441   7.303  17.658  0.00  0.00    +0.000 C 
ENDBRANCH  16  26
ENDBRANCH  15  24
ENDBRANCH   1  15
TORSDOF 4
ENDMDL
MODEL 4
REMARK VINA RESULT:      -9.1      3.689      6.993
REMARK  Name = 
REMARK  6 active torsions:
REMARK  status: ('A' for Active; 'I' for Inactive)
REMARK    1  A    between atoms: C_1  and  C_2
REMARK    2  A    between atoms: C_2  and  C_3
REMARK    3  A    between atoms: C_2  and  C_4
REMARK    4  A    between atoms: N_12  and  C_13
REMARK    5  A    between atoms: C_13  and  C_14
REMARK    6  A    between atoms: C_17  and  C_18
REMARK                            x       y       z     vdW  Elec       q    Type
REMARK                         _______ _______ _______ _____ _____    ______ ____
ROOT
ATOM      1  C   UNL     1       6.681   7.345  17.274  0.00  0.00    +0.000 A 
ATOM      2  N   UNL     1       7.413   6.652  18.162  0.00  0.00    +0.000 NA
ATOM      3  O   UNL     1       8.338   7.600  18.644  0.00  0.00    +0.000 OA
ATOM      4  C   UNL     1       8.032   8.775  18.028  0.00  0.00    +0.000 A 
ATOM      5  N   UNL     1       7.012   8.670  17.203  0.00  0.00    +0.000 NA
ENDROOT
BRANCH   4   6
ATOM      6  C   UNL     1       8.931   9.944  18.128  0.00  0.00    +0.000 C 
ATOM      7  C   UNL     1       8.532  11.362  17.661  0.00  0.00    +0.000 C 
ATOM      8  C   UNL     1       9.620  12.149  18.374  0.00  0.00    +0.000 A 
ATOM      9  C   UNL     1      10.191  13.373  18.070  0.00  0.00    +0.000 A 
ATOM     10  C   UNL     1      11.328  13.770  18.797  0.00  0.00    +0.000 A 
ATOM     11  C   UNL     1      11.865  12.958  19.805  0.00  0.00    +0.000 A 
ATOM     12  C   UNL     1      11.243  11.761  20.159  0.00  0.00    +0.000 A 
ATOM     13  C   UNL     1      10.119  11.395  19.439  0.00  0.00    +0.000 A 
ATOM     14  C   UNL     1       9.326  10.140  19.597  0.00  0.00    +0.000 C 
ENDBRANCH   4   6
BRANCH   1  15
ATOM     15  C   UNL     1       5.502   6.799  16.541  0.00  0.00    +0.000 C 
BRANCH  15  24
ATOM     16  C   UNL     1       5.063   4.282  16.662  0.00  0.00    +0.000 A 
ATOM     17  N   UNL     1       4.294   3.462  17.350  0.00  0.00    +0.000 NA
ATOM     18  C   UNL     1       3.609   4.230  18.240  0.00  0.00    +0.000 A 
ATOM     19  C   UNL     1       2.652   3.831  19.184  0.00  0.00    +0.000 A 
ATOM     20  C   UNL     1       2.048   4.805  19.981  0.00  0.00    +0.000 A 
ATOM     21  C   UNL     1       2.387   6.150  19.831  0.00  0.00    +0.000 A 
ATOM     22  C   UNL     1       3.345   6.564  18.893  0.00  0.00    +0.000 A 
ATOM     23  C   UNL     1       3.957   5.571  18.113  0.00  0.00    +0.000 A 
ATOM     24  N   UNL     1       4.926   5.586  17.119  0.00  0.00    +0.000 N 
BRANCH  16  26
ATOM     25  C   UNL     1       5.396   4.273  14.214  0.00  0.00    +0.000 C 
ATOM     26  C   UNL     1       5.960   3.799  15.557  0.00  0.00    +0.000 C 
ATOM     27  C   UNL     1       7.378   4.357  15.739  0.00  0.00    +0.000 C 
ENDBRANCH  16  26
ENDBRANCH  15  24
ENDBRANCH   1  15
TORSDOF 4
ENDMDL
MODEL 5
REMARK VINA RESULT:      -9.1      2.772      5.085
REMARK  Name = 
REMARK  6 active torsions:
REMARK  status: ('A' for Active; 'I' for Inactive)
REMARK    1  A    between atoms: C_1  and  C_2
REMARK    2  A    between atoms: C_2  and  C_3
REMARK    3  A    between atoms: C_2  and  C_4
REMARK    4  A    between atoms: N_12  and  C_13
REMARK    5  A    between atoms: C_13  and  C_14
REMARK    6  A    between atoms: C_17  and  C_18
REMARK                            x       y       z     vdW  Elec       q    Type
REMARK                         _______ _______ _______ _____ _____    ______ ____
ROOT
ATOM      1  C   UNL     1       2.535   7.875  18.621  0.00  0.00    +0.000 A 
ATOM      2  N   UNL     1       2.547   8.395  17.382  0.00  0.00    +0.000 NA
ATOM      3  O   UNL     1       1.482   9.319  17.399  0.00  0.00    +0.000 OA
ATOM      4  C   UNL     1       0.976   9.290  18.663  0.00  0.00    +0.000 A 
ATOM      5  N   UNL     1       1.604   8.441  19.447  0.00  0.00    +0.000 NA
ENDROOT
BRANCH   4   6
ATOM      6  C   UNL     1      -0.293   9.975  18.990  0.00  0.00    +0.000 C 
ATOM      7  C   UNL     1      -0.356  11.352  19.690  0.00  0.00    +0.000 C 
ATOM      8  C   UNL     1      -1.803  11.698  19.377  0.00  0.00    +0.000 A 
ATOM      9  C   UNL     1      -2.698  12.516  20.046  0.00  0.00    +0.000 A 
ATOM     10  C   UNL     1      -4.043  12.493  19.640  0.00  0.00    +0.000 A 
ATOM     11  C   UNL     1      -4.470  11.675  18.585  0.00  0.00    +0.000 A 
ATOM     12  C   UNL     1      -3.552  10.910  17.865  0.00  0.00    +0.000 A 
ATOM     13  C   UNL     1      -2.231  10.956  18.273  0.00  0.00    +0.000 A 
ATOM     14  C   UNL     1      -1.090  10.184  17.698  0.00  0.00    +0.000 C 
ENDBRANCH   4   6
BRANCH   1  15
ATOM     15  C   UNL     1       3.535   6.895  19.135  0.00  0.00    +0.000 C 
BRANCH  15  24
ATOM     16  C   UNL     1       4.213   5.220  17.324  0.00  0.00    +0.000 A 
ATOM     17  N   UNL     1       3.855   4.013  16.934  0.00  0.00    +0.000 NA
ATOM     18  C   UNL     1       2.890   3.598  17.798  0.00  0.00    +0.000 A 
ATOM     19  C   UNL     1       2.176   2.391  17.797  0.00  0.00    +0.000 A 
ATOM     20  C   UNL     1       1.198   2.189  18.772  0.00  0.00    +0.000 A 
ATOM     21  C   UNL     1       0.931   3.177  19.720  0.00  0.00    +0.000 A 
ATOM     22  C   UNL     1       1.639   4.388  19.736  0.00  0.00    +0.000 A 
ATOM     23  C   UNL     1       2.633   4.569  18.761  0.00  0.00    +0.000 A 
ATOM     24  N   UNL     1       3.522   5.594  18.469  0.00  0.00    +0.000 N 
BRANCH  16  26
ATOM     25  C   UNL     1       6.583   5.916  17.346  0.00  0.00    +0.000 C 
ATOM     26  C   UNL     1       5.254   6.021  16.592  0.00  0.00    +0.000 C 
ATOM     27  C   UNL     1       5.434   5.485  15.166  0.00  0.00    +0.000 C 
ENDBRANCH  16  26
ENDBRANCH  15  24
ENDBRANCH   1  15
TORSDOF 4
ENDMDL
MODEL 6
REMARK VINA RESULT:      -9.0      4.040      9.201
REMARK  Name = 
REMARK  6 active torsions:
REMARK  status: ('A' for Active; 'I' for Inactive)
REMARK    1  A    between atoms: C_1  and  C_2
REMARK    2  A    between atoms: C_2  and  C_3
REMARK    3  A    between atoms: C_2  and  C_4
REMARK    4  A    between atoms: N_12  and  C_13
REMARK    5  A    between atoms: C_13  and  C_14
REMARK    6  A    between atoms: C_17  and  C_18
REMARK                            x       y       z     vdW  Elec       q    Type
REMARK                         _______ _______ _______ _____ _____    ______ ____
ROOT
ATOM      1  C   UNL     1       1.128   9.536  19.784  0.00  0.00    +0.000 A 
ATOM      2  N   UNL     1       0.817   9.267  21.064  0.00  0.00    +0.000 NA
ATOM      3  O   UNL     1       1.275   7.947  21.247  0.00  0.00    +0.000 OA
ATOM      4  C   UNL     1       1.856   7.581  20.072  0.00  0.00    +0.000 A 
ATOM      5  N   UNL     1       1.810   8.528  19.161  0.00  0.00    +0.000 NA
ENDROOT
BRANCH   4   6
ATOM      6  C   UNL     1       2.257   6.179  19.825  0.00  0.00    +0.000 C 
ATOM      7  C   UNL     1       1.489   4.964  20.395  0.00  0.00    +0.000 C 
ATOM      8  C   UNL     1       2.079   3.886  19.502  0.00  0.00    +0.000 A 
ATOM      9  C   UNL     1       2.236   2.527  19.716  0.00  0.00    +0.000 A 
ATOM     10  C   UNL     1       3.003   1.798  18.790  0.00  0.00    +0.000 A 
ATOM     11  C   UNL     1       3.585   2.420  17.678  0.00  0.00    +0.000 A 
ATOM     12  C   UNL     1       3.360   3.773  17.425  0.00  0.00    +0.000 A 
ATOM     13  C   UNL     1       2.593   4.470  18.342  0.00  0.00    +0.000 A 
ATOM     14  C   UNL     1       2.270   5.927  18.313  0.00  0.00    +0.000 C 
ENDBRANCH   4   6
BRANCH   1  15
ATOM     15  C   UNL     1       0.918  10.856  19.123  0.00  0.00    +0.000 C 
BRANCH  15  24
ATOM     16  C   UNL     1      -1.015  12.160  20.176  0.00  0.00    +0.000 A 
ATOM     17  N   UNL     1      -2.309  12.313  19.973  0.00  0.00    +0.000 NA
ATOM     18  C   UNL     1      -2.615  11.584  18.866  0.00  0.00    +0.000 A 
ATOM     19  C   UNL     1      -3.864  11.408  18.253  0.00  0.00    +0.000 A 
ATOM     20  C   UNL     1      -3.951  10.580  17.132  0.00  0.00    +0.000 A 
ATOM     21  C   UNL     1      -2.816   9.935  16.641  0.00  0.00    +0.000 A 
ATOM     22  C   UNL     1      -1.559  10.104  17.241  0.00  0.00    +0.000 A 
ATOM     23  C   UNL     1      -1.484  10.954  18.356  0.00  0.00    +0.000 A 
ATOM     24  N   UNL     1      -0.451  11.366  19.187  0.00  0.00    +0.000 N 
BRANCH  16  26
ATOM     25  C   UNL     1      -0.429  14.326  21.209  0.00  0.00    +0.000 C 
ATOM     26  C   UNL     1      -0.306  12.804  21.335  0.00  0.00    +0.000 C 
ATOM     27  C   UNL     1      -0.932  12.351  22.661  0.00  0.00    +0.000 C 
ENDBRANCH  16  26
ENDBRANCH  15  24
ENDBRANCH   1  15
TORSDOF 4
ENDMDL
MODEL 7
REMARK VINA RESULT:      -9.0      2.964      4.393
REMARK  Name = 
REMARK  6 active torsions:
REMARK  status: ('A' for Active; 'I' for Inactive)
REMARK    1  A    between atoms: C_1  and  C_2
REMARK    2  A    between atoms: C_2  and  C_3
REMARK    3  A    between atoms: C_2  and  C_4
REMARK    4  A    between atoms: N_12  and  C_13
REMARK    5  A    between atoms: C_13  and  C_14
REMARK    6  A    between atoms: C_17  and  C_18
REMARK                            x       y       z     vdW  Elec       q    Type
REMARK                         _______ _______ _______ _____ _____    ______ ____
ROOT
ATOM      1  C   UNL     1       2.668   7.043  17.890  0.00  0.00    +0.000 A 
ATOM      2  N   UNL     1       2.814   8.198  17.219  0.00  0.00    +0.000 NA
ATOM      3  O   UNL     1       2.148   9.140  18.027  0.00  0.00    +0.000 OA
ATOM      4  C   UNL     1       1.715   8.460  19.124  0.00  0.00    +0.000 A 
ATOM      5  N   UNL     1       2.032   7.184  19.093  0.00  0.00    +0.000 NA
ENDROOT
BRANCH   4   6
ATOM      6  C   UNL     1       0.785   9.084  20.089  0.00  0.00    +0.000 C 
ATOM      7  C   UNL     1       0.921   8.924  21.621  0.00  0.00    +0.000 C 
ATOM      8  C   UNL     1       0.013  10.065  22.048  0.00  0.00    +0.000 A 
ATOM      9  C   UNL     1      -0.719  10.247  23.210  0.00  0.00    +0.000 A 
ATOM     10  C   UNL     1      -1.637  11.310  23.252  0.00  0.00    +0.000 A 
ATOM     11  C   UNL     1      -1.806  12.169  22.157  0.00  0.00    +0.000 A 
ATOM     12  C   UNL     1      -1.013  12.029  21.018  0.00  0.00    +0.000 A 
ATOM     13  C   UNL     1      -0.107  10.983  21.002  0.00  0.00    +0.000 A 
ATOM     14  C   UNL     1       0.799  10.603  19.877  0.00  0.00    +0.000 C 
ENDBRANCH   4   6
BRANCH   1  15
ATOM     15  C   UNL     1       3.276   5.744  17.481  0.00  0.00    +0.000 C 
BRANCH  15  24
ATOM     16  C   UNL     1       4.579   4.440  19.253  0.00  0.00    +0.000 A 
ATOM     17  N   UNL     1       5.788   4.455  19.778  0.00  0.00    +0.000 NA
ATOM     18  C   UNL     1       6.482   5.424  19.122  0.00  0.00    +0.000 A 
ATOM     19  C   UNL     1       7.805   5.841  19.325  0.00  0.00    +0.000 A 
ATOM     20  C   UNL     1       8.306   6.888  18.548  0.00  0.00    +0.000 A 
ATOM     21  C   UNL     1       7.497   7.511  17.598  0.00  0.00    +0.000 A 
ATOM     22  C   UNL     1       6.172   7.102  17.381  0.00  0.00    +0.000 A 
ATOM     23  C   UNL     1       5.690   6.037  18.156  0.00  0.00    +0.000 A 
ATOM     24  N   UNL     1       4.477   5.365  18.223  0.00  0.00    +0.000 N 
BRANCH  16  26
ATOM     25  C   UNL     1       4.164   2.211  20.236  0.00  0.00    +0.000 C 
ATOM     26  C   UNL     1       3.508   3.505  19.741  0.00  0.00    +0.000 C 
ATOM     27  C   UNL     1       2.722   4.148  20.891  0.00  0.00    +0.000 C 
ENDBRANCH  16  26
ENDBRANCH  15  24
ENDBRANCH   1  15
TORSDOF 4
ENDMDL
MODEL 8
REMARK VINA RESULT:      -8.8      2.675      4.794
REMARK  Name = 
REMARK  6 active torsions:
REMARK  status: ('A' for Active; 'I' for Inactive)
REMARK    1  A    between atoms: C_1  and  C_2
REMARK    2  A    between atoms: C_2  and  C_3
REMARK    3  A    between atoms: C_2  and  C_4
REMARK    4  A    between atoms: N_12  and  C_13
REMARK    5  A    between atoms: C_13  and  C_14
REMARK    6  A    between atoms: C_17  and  C_18
REMARK                            x       y       z     vdW  Elec       q    Type
REMARK                         _______ _______ _______ _____ _____    ______ ____
ROOT
ATOM      1  C   UNL     1       2.874   7.451  17.723  0.00  0.00    +0.000 A 
ATOM      2  N   UNL     1       2.996   8.653  17.135  0.00  0.00    +0.000 NA
ATOM      3  O   UNL     1       2.281   9.516  17.990  0.00  0.00    +0.000 OA
ATOM      4  C   UNL     1       1.848   8.749  19.027  0.00  0.00    +0.000 A 
ATOM      5  N   UNL     1       2.208   7.488  18.917  0.00  0.00    +0.000 NA
ENDROOT
BRANCH   4   6
ATOM      6  C   UNL     1       0.878   9.276  20.011  0.00  0.00    +0.000 C 
ATOM      7  C   UNL     1       0.997   9.031  21.533  0.00  0.00    +0.000 C 
ATOM      8  C   UNL     1       0.035  10.106  22.010  0.00  0.00    +0.000 A 
ATOM      9  C   UNL     1      -0.721  10.188  23.167  0.00  0.00    +0.000 A 
ATOM     10  C   UNL     1      -1.685  11.208  23.255  0.00  0.00    +0.000 A 
ATOM     11  C   UNL     1      -1.873  12.122  22.210  0.00  0.00    +0.000 A 
ATOM     12  C   UNL     1      -1.058  12.082  21.078  0.00  0.00    +0.000 A 
ATOM     13  C   UNL     1      -0.108  11.078  21.017  0.00  0.00    +0.000 A 
ATOM     14  C   UNL     1       0.830  10.803  19.889  0.00  0.00    +0.000 C 
ENDBRANCH   4   6
BRANCH   1  15
ATOM     15  C   UNL     1       3.533   6.203  17.240  0.00  0.00    +0.000 C 
BRANCH  15  24
ATOM     16  C   UNL     1       5.177   4.903  18.706  0.00  0.00    +0.000 A 
ATOM     17  N   UNL     1       5.130   3.917  19.580  0.00  0.00    +0.000 NA
ATOM     18  C   UNL     1       3.818   3.583  19.716  0.00  0.00    +0.000 A 
ATOM     19  C   UNL     1       3.249   2.582  20.516  0.00  0.00    +0.000 A 
ATOM     20  C   UNL     1       1.867   2.393  20.473  0.00  0.00    +0.000 A 
ATOM     21  C   UNL     1       1.072   3.182  19.642  0.00  0.00    +0.000 A 
ATOM     22  C   UNL     1       1.626   4.190  18.839  0.00  0.00    +0.000 A 
ATOM     23  C   UNL     1       3.015   4.380  18.906  0.00  0.00    +0.000 A 
ATOM     24  N   UNL     1       3.900   5.254  18.290  0.00  0.00    +0.000 N 
BRANCH  16  26
ATOM     25  C   UNL     1       7.400   5.638  19.492  0.00  0.00    +0.000 C 
ATOM     26  C   UNL     1       6.474   5.529  18.276  0.00  0.00    +0.000 C 
ATOM     27  C   UNL     1       7.149   4.671  17.198  0.00  0.00    +0.000 C 
ENDBRANCH  16  26
ENDBRANCH  15  24
ENDBRANCH   1  15
TORSDOF 4
ENDMDL
MODEL 9
REMARK VINA RESULT:      -8.8      2.646      4.903
REMARK  Name = 
REMARK  6 active torsions:
REMARK  status: ('A' for Active; 'I' for Inactive)
REMARK    1  A    between atoms: C_1  and  C_2
REMARK    2  A    between atoms: C_2  and  C_3
REMARK    3  A    between atoms: C_2  and  C_4
REMARK    4  A    between atoms: N_12  and  C_13
REMARK    5  A    between atoms: C_13  and  C_14
REMARK    6  A    between atoms: C_17  and  C_18
REMARK                            x       y       z     vdW  Elec       q    Type
REMARK                         _______ _______ _______ _____ _____    ______ ____
ROOT
ATOM      1  C   UNL     1       2.188   7.351  19.826  0.00  0.00    +0.000 A 
ATOM      2  N   UNL     1       2.158   8.073  18.693  0.00  0.00    +0.000 NA
ATOM      3  O   UNL     1       1.285   9.136  18.999  0.00  0.00    +0.000 OA
ATOM      4  C   UNL     1       0.922   8.966  20.300  0.00  0.00    +0.000 A 
ATOM      5  N   UNL     1       1.469   7.903  20.849  0.00  0.00    +0.000 NA
ENDROOT
BRANCH   4   6
ATOM      6  C   UNL     1      -0.160   9.775  20.900  0.00  0.00    +0.000 C 
ATOM      7  C   UNL     1      -0.192  10.172  22.394  0.00  0.00    +0.000 C 
ATOM      8  C   UNL     1      -1.231  11.278  22.311  0.00  0.00    +0.000 A 
ATOM      9  C   UNL     1      -2.105  11.766  23.268  0.00  0.00    +0.000 A 
ATOM     10  C   UNL     1      -3.103  12.665  22.853  0.00  0.00    +0.000 A 
ATOM     11  C   UNL     1      -3.210  13.065  21.514  0.00  0.00    +0.000 A 
ATOM     12  C   UNL     1      -2.281  12.631  20.568  0.00  0.00    +0.000 A 
ATOM     13  C   UNL     1      -1.300  11.756  21.000  0.00  0.00    +0.000 A 
ATOM     14  C   UNL     1      -0.242  11.117  20.163  0.00  0.00    +0.000 C 
ENDBRANCH   4   6
BRANCH   1  15
ATOM     15  C   UNL     1       3.046   6.150  20.040  0.00  0.00    +0.000 C 
BRANCH  15  24
ATOM     16  C   UNL     1       2.500   4.051  18.684  0.00  0.00    +0.000 A 
ATOM     17  N   UNL     1       2.945   3.453  17.596  0.00  0.00    +0.000 NA
ATOM     18  C   UNL     1       3.931   4.246  17.096  0.00  0.00    +0.000 A 
ATOM     19  C   UNL     1       4.727   4.039  15.960  0.00  0.00    +0.000 A 
ATOM     20  C   UNL     1       5.710   4.979  15.649  0.00  0.00    +0.000 A 
ATOM     21  C   UNL     1       5.900   6.097  16.462  0.00  0.00    +0.000 A 
ATOM     22  C   UNL     1       5.109   6.319  17.599  0.00  0.00    +0.000 A 
ATOM     23  C   UNL     1       4.113   5.375  17.888  0.00  0.00    +0.000 A 
ATOM     24  N   UNL     1       3.156   5.257  18.887  0.00  0.00    +0.000 N 
BRANCH  16  26
ATOM     25  C   UNL     1       0.682   2.379  18.726  0.00  0.00    +0.000 C 
ATOM     26  C   UNL     1       1.411   3.457  19.534  0.00  0.00    +0.000 C 
ATOM     27  C   UNL     1       2.006   2.828  20.801  0.00  0.00    +0.000 C 
ENDBRANCH  16  26
ENDBRANCH  15  24
ENDBRANCH   1  15
TORSDOF 4
ENDMDL
