MODEL 1
REMARK VINA RESULT:      -9.0      0.000      0.000
REMARK  Name = 
REMARK  5 active torsions:
REMARK  status: ('A' for Active; 'I' for Inactive)
REMARK    1  A    between atoms: C_1  and  C_2
REMARK    2  A    between atoms: C_9  and  C_10
REMARK    3  A    between atoms: C_13  and  C_14
REMARK    4  A    between atoms: C_18  and  C_19
REMARK    5  A    between atoms: N_23  and  C_24
REMARK                            x       y       z     vdW  Elec       q    Type
REMARK                         _______ _______ _______ _____ _____    ______ ____
ROOT
ATOM      1  C   UNL     1       1.732   7.203  20.191  0.00  0.00    +0.000 A 
ATOM      2  N   UNL     1       1.586   6.047  20.859  0.00  0.00    +0.000 NA
ATOM      3  O   UNL     1       2.287   5.129  20.081  0.00  0.00    +0.000 OA
ATOM      4  C   UNL     1       2.782   5.822  19.016  0.00  0.00    +0.000 A 
ATOM      5  N   UNL     1       2.461   7.096  19.031  0.00  0.00    +0.000 NA
ENDROOT
BRANCH   1  14
ATOM      6  C   UNL     1       1.148  12.576  19.193  0.00  0.00    +0.000 C 
ATOM      7  C   UNL     1       0.532  11.989  20.423  0.00  0.00    +0.000 A 
ATOM      8  C   UNL     1      -0.235  12.765  21.311  0.00  0.00    +0.000 A 
ATOM      9  C   UNL     1      -0.822  12.206  22.450  0.00  0.00    +0.000 A 
ATOM     10 CL   UNL     1      -1.747  13.209  23.504  0.00  0.00    +0.000 Cl
ATOM     11  C   UNL     1      -0.685  10.847  22.752  0.00  0.00    +0.000 A 
ATOM     12  C   UNL     1       0.063  10.046  21.874  0.00  0.00    +0.000 A 
ATOM     13  C   UNL     1       0.397   8.670  21.805  0.00  0.00    +0.000 A 
ATOM     14  C   UNL     1       1.167   8.496  20.670  0.00  0.00    +0.000 A 
ATOM     15  O   UNL     1       1.336   9.701  20.045  0.00  0.00    +0.000 OA
ATOM     16  C   UNL     1       0.648  10.635  20.761  0.00  0.00    +0.000 A 
ENDBRANCH   1  14
BRANCH   4  17
ATOM     17  C   UNL     1       3.662   5.064  18.084  0.00  0.00    +0.000 C 
ATOM     18  C   UNL     1       3.560   3.566  18.308  0.00  0.00    +0.000 C 
ATOM     19  C   UNL     1       4.614   3.296  19.361  0.00  0.00    +0.000 C 
ATOM     20  O   UNL     1       5.593   4.343  19.278  0.00  0.00    +0.000 OA
ATOM     21  C   UNL     1       5.140   5.350  18.350  0.00  0.00    +0.000 C 
BRANCH  21  22
ATOM     22  C   UNL     1       5.988   5.188  17.120  0.00  0.00    +0.000 A 
ATOM     23  C   UNL     1       5.930   4.227  16.125  0.00  0.00    +0.000 A 
ATOM     24  C   UNL     1       6.921   4.581  15.203  0.00  0.00    +0.000 A 
ATOM     25  N   UNL     1       7.573   5.686  15.567  0.00  0.00    +0.000 NA
ATOM     26  N   UNL     1       7.017   6.022  16.747  0.00  0.00    +0.000 N 
ATOM     27  C   UNL     1       7.534   7.186  17.430  0.00  0.00    +0.000 C 
ENDBRANCH  21  22
ENDBRANCH   4  17
TORSDOF 3
ENDMDL
MODEL 2
REMARK VINA RESULT:      -8.8      1.633      2.443
REMARK  Name = 
REMARK  5 active torsions:
REMARK  status: ('A' for Active; 'I' for Inactive)
REMARK    1  A    between atoms: C_1  and  C_2
REMARK    2  A    between atoms: C_9  and  C_10
REMARK    3  A    between atoms: C_13  and  C_14
REMARK    4  A    between atoms: C_18  and  C_19
REMARK    5  A    between atoms: N_23  and  C_24
REMARK                            x       y       z     vdW  Elec       q    Type
REMARK                         _______ _______ _______ _____ _____    ______ ____
ROOT
ATOM      1  C   UNL     1       1.614   9.039  18.659  0.00  0.00    +0.000 A 
ATOM      2  N   UNL     1       2.019   9.531  17.477  0.00  0.00    +0.000 NA
ATOM      3  O   UNL     1       2.822   8.518  16.958  0.00  0.00    +0.000 OA
ATOM      4  C   UNL     1       2.826   7.516  17.883  0.00  0.00    +0.000 A 
ATOM      5  N   UNL     1       2.109   7.790  18.949  0.00  0.00    +0.000 NA
ENDROOT
BRANCH   1  14
ATOM      6  C   UNL     1      -0.189   9.614  23.818  0.00  0.00    +0.000 C 
ATOM      7  C   UNL     1      -0.744  10.498  22.747  0.00  0.00    +0.000 A 
ATOM      8  C   UNL     1      -1.683  11.507  23.029  0.00  0.00    +0.000 A 
ATOM      9  C   UNL     1      -2.185  12.339  22.025  0.00  0.00    +0.000 A 
ATOM     10 CL   UNL     1      -3.337  13.556  22.432  0.00  0.00    +0.000 Cl
ATOM     11  C   UNL     1      -1.767  12.217  20.696  0.00  0.00    +0.000 A 
ATOM     12  C   UNL     1      -0.818  11.228  20.389  0.00  0.00    +0.000 A 
ATOM     13  C   UNL     1      -0.136  10.819  19.215  0.00  0.00    +0.000 A 
ATOM     14  C   UNL     1       0.694   9.773  19.573  0.00  0.00    +0.000 A 
ATOM     15  O   UNL     1       0.545   9.509  20.907  0.00  0.00    +0.000 OA
ATOM     16  C   UNL     1      -0.353  10.405  21.405  0.00  0.00    +0.000 A 
ENDBRANCH   1  14
BRANCH   4  17
ATOM     17  C   UNL     1       3.544   6.268  17.504  0.00  0.00    +0.000 C 
ATOM     18  C   UNL     1       2.817   5.029  17.995  0.00  0.00    +0.000 C 
ATOM     19  C   UNL     1       3.384   4.815  19.382  0.00  0.00    +0.000 C 
ATOM     20  O   UNL     1       4.680   5.431  19.424  0.00  0.00    +0.000 OA
ATOM     21  C   UNL     1       4.901   6.166  18.203  0.00  0.00    +0.000 C 
BRANCH  21  22
ATOM     22  C   UNL     1       5.897   5.365  17.413  0.00  0.00    +0.000 A 
ATOM     23  C   UNL     1       5.744   4.706  16.205  0.00  0.00    +0.000 A 
ATOM     24  C   UNL     1       6.999   4.164  15.913  0.00  0.00    +0.000 A 
ATOM     25  N   UNL     1       7.900   4.446  16.854  0.00  0.00    +0.000 NA
ATOM     26  N   UNL     1       7.207   5.147  17.773  0.00  0.00    +0.000 N 
ATOM     27  C   UNL     1       7.908   5.587  18.958  0.00  0.00    +0.000 C 
ENDBRANCH  21  22
ENDBRANCH   4  17
TORSDOF 3
ENDMDL
MODEL 3
REMARK VINA RESULT:      -8.3      4.085      9.560
REMARK  Name = 
REMARK  5 active torsions:
REMARK  status: ('A' for Active; 'I' for Inactive)
REMARK    1  A    between atoms: C_1  and  C_2
REMARK    2  A    between atoms: C_9  and  C_10
REMARK    3  A    between atoms: C_13  and  C_14
REMARK    4  A    between atoms: C_18  and  C_19
REMARK    5  A    between atoms: N_23  and  C_24
REMARK                            x       y       z     vdW  Elec       q    Type
REMARK                         _______ _______ _______ _____ _____    ______ ____
ROOT
ATOM      1  C   UNL     1       1.978   8.214  19.095  0.00  0.00    +0.000 A 
ATOM      2  N   UNL     1       1.589   7.993  20.361  0.00  0.00    +0.000 NA
ATOM      3  O   UNL     1       0.806   9.105  20.662  0.00  0.00    +0.000 OA
ATOM      4  C   UNL     1       0.805   9.891  19.548  0.00  0.00    +0.000 A 
ATOM      5  N   UNL     1       1.518   9.394  18.562  0.00  0.00    +0.000 NA
ENDROOT
BRANCH   1  14
ATOM      6  C   UNL     1       3.005   2.941  17.941  0.00  0.00    +0.000 C 
ATOM      7  C   UNL     1       3.821   4.006  17.280  0.00  0.00    +0.000 A 
ATOM      8  C   UNL     1       4.816   3.700  16.334  0.00  0.00    +0.000 A 
ATOM      9  C   UNL     1       5.564   4.702  15.709  0.00  0.00    +0.000 A 
ATOM     10 CL   UNL     1       6.773   4.264  14.561  0.00  0.00    +0.000 Cl
ATOM     11  C   UNL     1       5.348   6.056  15.986  0.00  0.00    +0.000 A 
ATOM     12  C   UNL     1       4.349   6.391  16.915  0.00  0.00    +0.000 A 
ATOM     13  C   UNL     1       3.816   7.601  17.426  0.00  0.00    +0.000 A 
ATOM     14  C   UNL     1       2.823   7.258  18.325  0.00  0.00    +0.000 A 
ATOM     15  O   UNL     1       2.729   5.896  18.403  0.00  0.00    +0.000 OA
ATOM     16  C   UNL     1       3.637   5.371  17.533  0.00  0.00    +0.000 A 
ENDBRANCH   1  14
BRANCH   4  17
ATOM     17  C   UNL     1      -0.056  11.104  19.593  0.00  0.00    +0.000 C 
ATOM     18  C   UNL     1       0.728  12.363  19.270  0.00  0.00    +0.000 C 
ATOM     19  C   UNL     1       1.252  12.808  20.619  0.00  0.00    +0.000 C 
ATOM     20  O   UNL     1       0.379  12.271  21.624  0.00  0.00    +0.000 OA
ATOM     21  C   UNL     1      -0.570  11.376  21.008  0.00  0.00    +0.000 C 
BRANCH  21  22
ATOM     22  C   UNL     1      -1.885  12.103  21.013  0.00  0.00    +0.000 A 
ATOM     23  C   UNL     1      -2.573  12.696  19.968  0.00  0.00    +0.000 A 
ATOM     24  C   UNL     1      -3.757  13.184  20.529  0.00  0.00    +0.000 A 
ATOM     25  N   UNL     1      -3.838  12.929  21.835  0.00  0.00    +0.000 NA
ATOM     26  N   UNL     1      -2.680  12.302  22.119  0.00  0.00    +0.000 N 
ATOM     27  C   UNL     1      -2.442  11.909  23.490  0.00  0.00    +0.000 C 
ENDBRANCH  21  22
ENDBRANCH   4  17
TORSDOF 3
ENDMDL
MODEL 4
REMARK VINA RESULT:      -8.2      3.962      9.169
REMARK  Name = 
REMARK  5 active torsions:
REMARK  status: ('A' for Active; 'I' for Inactive)
REMARK    1  A    between atoms: C_1  and  C_2
REMARK    2  A    between atoms: C_9  and  C_10
REMARK    3  A    between atoms: C_13  and  C_14
REMARK    4  A    between atoms: C_18  and  C_19
REMARK    5  A    between atoms: N_23  and  C_24
REMARK                            x       y       z     vdW  Elec       q    Type
REMARK                         _______ _______ _______ _____ _____    ______ ____
ROOT
ATOM      1  C   UNL     1       1.971   7.709  19.626  0.00  0.00    +0.000 A 
ATOM      2  N   UNL     1       1.537   7.205  20.792  0.00  0.00    +0.000 NA
ATOM      3  O   UNL     1       0.752   8.228  21.319  0.00  0.00    +0.000 OA
ATOM      4  C   UNL     1       0.795   9.251  20.419  0.00  0.00    +0.000 A 
ATOM      5  N   UNL     1       1.537   8.988  19.368  0.00  0.00    +0.000 NA
ENDROOT
BRANCH   1  14
ATOM      6  C   UNL     1       3.540   2.742  17.874  0.00  0.00    +0.000 C 
ATOM      7  C   UNL     1       4.120   3.962  17.231  0.00  0.00    +0.000 A 
ATOM      8  C   UNL     1       5.025   3.875  16.157  0.00  0.00    +0.000 A 
ATOM      9  C   UNL     1       5.551   5.019  15.551  0.00  0.00    +0.000 A 
ATOM     10 CL   UNL     1       6.658   4.850  14.240  0.00  0.00    +0.000 Cl
ATOM     11  C   UNL     1       5.193   6.303  15.975  0.00  0.00    +0.000 A 
ATOM     12  C   UNL     1       4.279   6.419  17.036  0.00  0.00    +0.000 A 
ATOM     13  C   UNL     1       3.657   7.497  17.715  0.00  0.00    +0.000 A 
ATOM     14  C   UNL     1       2.834   6.947  18.681  0.00  0.00    +0.000 A 
ATOM     15  O   UNL     1       2.932   5.583  18.640  0.00  0.00    +0.000 OA
ATOM     16  C   UNL     1       3.789   5.263  17.630  0.00  0.00    +0.000 A 
ENDBRANCH   1  14
BRANCH   4  17
ATOM     17  C   UNL     1      -0.060  10.433  20.719  0.00  0.00    +0.000 C 
ATOM     18  C   UNL     1      -1.076  10.686  19.619  0.00  0.00    +0.000 C 
ATOM     19  C   UNL     1      -0.335  11.592  18.658  0.00  0.00    +0.000 C 
ATOM     20  O   UNL     1       0.691  12.269  19.400  0.00  0.00    +0.000 OA
ATOM     21  C   UNL     1       0.755  11.727  20.735  0.00  0.00    +0.000 C 
BRANCH  21  22
ATOM     22  C   UNL     1       0.159  12.773  21.634  0.00  0.00    +0.000 A 
ATOM     23  C   UNL     1      -1.003  12.734  22.388  0.00  0.00    +0.000 A 
ATOM     24  C   UNL     1      -1.050  13.956  23.065  0.00  0.00    +0.000 A 
ATOM     25  N   UNL     1      -0.003  14.731  22.778  0.00  0.00    +0.000 NA
ATOM     26  N   UNL     1       0.702  14.012  21.884  0.00  0.00    +0.000 N 
ATOM     27  C   UNL     1       1.907  14.599  21.344  0.00  0.00    +0.000 C 
ENDBRANCH  21  22
ENDBRANCH   4  17
TORSDOF 3
ENDMDL
MODEL 5
REMARK VINA RESULT:      -8.2      3.868      9.358
REMARK  Name = 
REMARK  5 active torsions:
REMARK  status: ('A' for Active; 'I' for Inactive)
REMARK    1  A    between atoms: C_1  and  C_2
REMARK    2  A    between atoms: C_9  and  C_10
REMARK    3  A    between atoms: C_13  and  C_14
REMARK    4  A    between atoms: C_18  and  C_19
REMARK    5  A    between atoms: N_23  and  C_24
REMARK                            x       y       z     vdW  Elec       q    Type
REMARK                         _______ _______ _______ _____ _____    ______ ____
ROOT
ATOM      1  C   UNL     1       2.146   7.805  19.268  0.00  0.00    +0.000 A 
ATOM      2  N   UNL     1       1.768   7.428  20.499  0.00  0.00    +0.000 NA
ATOM      3  O   UNL     1       0.980   8.488  20.939  0.00  0.00    +0.000 OA
ATOM      4  C   UNL     1       0.965   9.404  19.929  0.00  0.00    +0.000 A 
ATOM      5  N   UNL     1       1.674   9.037  18.885  0.00  0.00    +0.000 NA
ENDROOT
BRANCH   1  14
ATOM      6  C   UNL     1       3.554   2.689  17.837  0.00  0.00    +0.000 C 
ATOM      7  C   UNL     1       4.184   3.846  17.129  0.00  0.00    +0.000 A 
ATOM      8  C   UNL     1       5.095   3.662  16.073  0.00  0.00    +0.000 A 
ATOM      9  C   UNL     1       5.669   4.749  15.406  0.00  0.00    +0.000 A 
ATOM     10 CL   UNL     1       6.782   4.461  14.121  0.00  0.00    +0.000 Cl
ATOM     11  C   UNL     1       5.352   6.068  15.748  0.00  0.00    +0.000 A 
ATOM     12  C   UNL     1       4.433   6.279  16.789  0.00  0.00    +0.000 A 
ATOM     13  C   UNL     1       3.842   7.418  17.393  0.00  0.00    +0.000 A 
ATOM     14  C   UNL     1       2.991   6.956  18.381  0.00  0.00    +0.000 A 
ATOM     15  O   UNL     1       3.041   5.590  18.423  0.00  0.00    +0.000 OA
ATOM     16  C   UNL     1       3.896   5.179  17.444  0.00  0.00    +0.000 A 
ENDBRANCH   1  14
BRANCH   4  17
ATOM     17  C   UNL     1       0.095  10.596  20.128  0.00  0.00    +0.000 C 
ATOM     18  C   UNL     1      -0.158  11.331  18.823  0.00  0.00    +0.000 C 
ATOM     19  C   UNL     1       0.994  12.311  18.742  0.00  0.00    +0.000 C 
ATOM     20  O   UNL     1       1.459  12.549  20.079  0.00  0.00    +0.000 OA
ATOM     21  C   UNL     1       0.783  11.657  20.989  0.00  0.00    +0.000 C 
BRANCH  21  22
ATOM     22  C   UNL     1      -0.197  12.505  21.749  0.00  0.00    +0.000 A 
ATOM     23  C   UNL     1      -0.448  13.864  21.658  0.00  0.00    +0.000 A 
ATOM     24  C   UNL     1      -1.486  14.114  22.561  0.00  0.00    +0.000 A 
ATOM     25  N   UNL     1      -1.883  13.007  23.189  0.00  0.00    +0.000 NA
ATOM     26  N   UNL     1      -1.069  12.047  22.710  0.00  0.00    +0.000 N 
ATOM     27  C   UNL     1      -1.229  10.706  23.224  0.00  0.00    +0.000 C 
ENDBRANCH  21  22
ENDBRANCH   4  17
TORSDOF 3
ENDMDL
MODEL 6
REMARK VINA RESULT:      -8.2      1.602      2.021
REMARK  Name = 
REMARK  5 active torsions:
REMARK  status: ('A' for Active; 'I' for Inactive)
REMARK    1  A    between atoms: C_1  and  C_2
REMARK    2  A    between atoms: C_9  and  C_10
REMARK    3  A    between atoms: C_13  and  C_14
REMARK    4  A    between atoms: C_18  and  C_19
REMARK    5  A    between atoms: N_23  and  C_24
REMARK                            x       y       z     vdW  Elec       q    Type
REMARK                         _______ _______ _______ _____ _____    ______ ____
ROOT
ATOM      1  C   UNL     1       1.577   9.197  18.813  0.00  0.00    +0.000 A 
ATOM      2  N   UNL     1       1.970   9.647  17.610  0.00  0.00    +0.000 NA
ATOM      3  O   UNL     1       2.715   8.590  17.093  0.00  0.00    +0.000 OA
ATOM      4  C   UNL     1       2.702   7.607  18.039  0.00  0.00    +0.000 A 
ATOM      5  N   UNL     1       2.026   7.934  19.117  0.00  0.00    +0.000 NA
ENDROOT
BRANCH   1  14
ATOM      6  C   UNL     1      -1.020  13.964  19.665  0.00  0.00    +0.000 C 
ATOM      7  C   UNL     1      -1.125  12.881  20.691  0.00  0.00    +0.000 A 
ATOM      8  C   UNL     1      -1.909  13.030  21.850  0.00  0.00    +0.000 A 
ATOM      9  C   UNL     1      -2.014  12.007  22.797  0.00  0.00    +0.000 A 
ATOM     10 CL   UNL     1      -2.987  12.249  24.199  0.00  0.00    +0.000 Cl
ATOM     11  C   UNL     1      -1.357  10.783  22.629  0.00  0.00    +0.000 A 
ATOM     12  C   UNL     1      -0.580  10.603  21.472  0.00  0.00    +0.000 A 
ATOM     13  C   UNL     1       0.187   9.539  20.932  0.00  0.00    +0.000 A 
ATOM     14  C   UNL     1       0.714   9.988  19.735  0.00  0.00    +0.000 A 
ATOM     15  O   UNL     1       0.322  11.281  19.520  0.00  0.00    +0.000 OA
ATOM     16  C   UNL     1      -0.480  11.645  20.560  0.00  0.00    +0.000 A 
ENDBRANCH   1  14
BRANCH   4  17
ATOM     17  C   UNL     1       3.356   6.323  17.669  0.00  0.00    +0.000 C 
ATOM     18  C   UNL     1       2.610   5.128  18.235  0.00  0.00    +0.000 C 
ATOM     19  C   UNL     1       3.236   4.937  19.601  0.00  0.00    +0.000 C 
ATOM     20  O   UNL     1       4.554   5.507  19.560  0.00  0.00    +0.000 OA
ATOM     21  C   UNL     1       4.741   6.193  18.306  0.00  0.00    +0.000 C 
BRANCH  21  22
ATOM     22  C   UNL     1       5.668   5.330  17.497  0.00  0.00    +0.000 A 
ATOM     23  C   UNL     1       5.408   4.557  16.378  0.00  0.00    +0.000 A 
ATOM     24  C   UNL     1       6.638   4.003  16.011  0.00  0.00    +0.000 A 
ATOM     25  N   UNL     1       7.623   4.384  16.825  0.00  0.00    +0.000 NA
ATOM     26  N   UNL     1       7.013   5.162  17.739  0.00  0.00    +0.000 N 
ATOM     27  C   UNL     1       7.820   5.720  18.800  0.00  0.00    +0.000 C 
ENDBRANCH  21  22
ENDBRANCH   4  17
TORSDOF 3
ENDMDL
MODEL 7
REMARK VINA RESULT:      -8.2      1.668      2.349
REMARK  Name = 
REMARK  5 active torsions:
REMARK  status: ('A' for Active; 'I' for Inactive)
REMARK    1  A    between atoms: C_1  and  C_2
REMARK    2  A    between atoms: C_9  and  C_10
REMARK    3  A    between atoms: C_13  and  C_14
REMARK    4  A    between atoms: C_18  and  C_19
REMARK    5  A    between atoms: N_23  and  C_24
REMARK                            x       y       z     vdW  Elec       q    Type
REMARK                         _______ _______ _______ _____ _____    ______ ____
ROOT
ATOM      1  C   UNL     1       1.654   8.526  19.397  0.00  0.00    +0.000 A 
ATOM      2  N   UNL     1       1.701   7.672  20.432  0.00  0.00    +0.000 NA
ATOM      3  O   UNL     1       2.303   6.538  19.894  0.00  0.00    +0.000 OA
ATOM      4  C   UNL     1       2.556   6.818  18.584  0.00  0.00    +0.000 A 
ATOM      5  N   UNL     1       2.167   8.021  18.226  0.00  0.00    +0.000 NA
ENDROOT
BRANCH   1  14
ATOM      6  C   UNL     1      -1.037  12.132  22.552  0.00  0.00    +0.000 C 
ATOM      7  C   UNL     1      -0.569  12.553  21.196  0.00  0.00    +0.000 A 
ATOM      8  C   UNL     1      -0.757  13.864  20.720  0.00  0.00    +0.000 A 
ATOM      9  C   UNL     1      -0.304  14.255  19.457  0.00  0.00    +0.000 A 
ATOM     10 CL   UNL     1      -0.567  15.874  18.927  0.00  0.00    +0.000 Cl
ATOM     11  C   UNL     1       0.371  13.366  18.614  0.00  0.00    +0.000 A 
ATOM     12  C   UNL     1       0.586  12.055  19.071  0.00  0.00    +0.000 A 
ATOM     13  C   UNL     1       1.234  10.904  18.555  0.00  0.00    +0.000 A 
ATOM     14  C   UNL     1       1.109   9.908  19.507  0.00  0.00    +0.000 A 
ATOM     15  O   UNL     1       0.403  10.386  20.576  0.00  0.00    +0.000 OA
ATOM     16  C   UNL     1       0.107  11.692  20.322  0.00  0.00    +0.000 A 
ENDBRANCH   1  14
BRANCH   4  17
ATOM     17  C   UNL     1       3.297   5.781  17.815  0.00  0.00    +0.000 C 
ATOM     18  C   UNL     1       2.597   4.434  17.869  0.00  0.00    +0.000 C 
ATOM     19  C   UNL     1       3.176   3.786  19.108  0.00  0.00    +0.000 C 
ATOM     20  O   UNL     1       4.460   4.381  19.353  0.00  0.00    +0.000 OA
ATOM     21  C   UNL     1       4.659   5.482  18.443  0.00  0.00    +0.000 C 
BRANCH  21  22
ATOM     22  C   UNL     1       5.666   5.007  17.434  0.00  0.00    +0.000 A 
ATOM     23  C   UNL     1       5.471   4.496  16.162  0.00  0.00    +0.000 A 
ATOM     24  C   UNL     1       6.752   4.259  15.653  0.00  0.00    +0.000 A 
ATOM     25  N   UNL     1       7.707   4.589  16.523  0.00  0.00    +0.000 NA
ATOM     26  N   UNL     1       7.031   5.010  17.609  0.00  0.00    +0.000 N 
ATOM     27  C   UNL     1       7.796   5.421  18.764  0.00  0.00    +0.000 C 
ENDBRANCH  21  22
ENDBRANCH   4  17
TORSDOF 3
ENDMDL
MODEL 8
REMARK VINA RESULT:      -8.1      1.525      1.739
REMARK  Name = 
REMARK  5 active torsions:
REMARK  status: ('A' for Active; 'I' for Inactive)
REMARK    1  A    between atoms: C_1  and  C_2
REMARK    2  A    between atoms: C_9  and  C_10
REMARK    3  A    between atoms: C_13  and  C_14
REMARK    4  A    between atoms: C_18  and  C_19
REMARK    5  A    between atoms: N_23  and  C_24
REMARK                            x       y       z     vdW  Elec       q    Type
REMARK                         _______ _______ _______ _____ _____    ______ ____
ROOT
ATOM      1  C   UNL     1       1.597   8.405  19.477  0.00  0.00    +0.000 A 
ATOM      2  N   UNL     1       1.750   7.559  20.508  0.00  0.00    +0.000 NA
ATOM      3  O   UNL     1       2.388   6.460  19.938  0.00  0.00    +0.000 OA
ATOM      4  C   UNL     1       2.551   6.750  18.616  0.00  0.00    +0.000 A 
ATOM      5  N   UNL     1       2.073   7.927  18.280  0.00  0.00    +0.000 NA
ENDROOT
BRANCH   1  14
ATOM      6  C   UNL     1       1.972  13.746  18.241  0.00  0.00    +0.000 C 
ATOM      7  C   UNL     1       0.809  13.262  19.048  0.00  0.00    +0.000 A 
ATOM      8  C   UNL     1      -0.220  14.129  19.461  0.00  0.00    +0.000 A 
ATOM      9  C   UNL     1      -1.312  13.666  20.202  0.00  0.00    +0.000 A 
ATOM     10 CL   UNL     1      -2.539  14.776  20.684  0.00  0.00    +0.000 Cl
ATOM     11  C   UNL     1      -1.439  12.318  20.553  0.00  0.00    +0.000 A 
ATOM     12  C   UNL     1      -0.434  11.428  20.139  0.00  0.00    +0.000 A 
ATOM     13  C   UNL     1      -0.216  10.032  20.256  0.00  0.00    +0.000 A 
ATOM     14  C   UNL     1       0.978   9.753  19.617  0.00  0.00    +0.000 A 
ATOM     15  O   UNL     1       1.513  10.912  19.125  0.00  0.00    +0.000 OA
ATOM     16  C   UNL     1       0.647  11.922  19.421  0.00  0.00    +0.000 A 
ENDBRANCH   1  14
BRANCH   4  17
ATOM     17  C   UNL     1       3.308   5.755  17.807  0.00  0.00    +0.000 C 
ATOM     18  C   UNL     1       2.583   4.423  17.732  0.00  0.00    +0.000 C 
ATOM     19  C   UNL     1       3.093   3.676  18.945  0.00  0.00    +0.000 C 
ATOM     20  O   UNL     1       4.375   4.225  19.289  0.00  0.00    +0.000 OA
ATOM     21  C   UNL     1       4.635   5.384  18.472  0.00  0.00    +0.000 C 
BRANCH  21  22
ATOM     22  C   UNL     1       5.678   4.961  17.476  0.00  0.00    +0.000 A 
ATOM     23  C   UNL     1       5.527   4.440  16.202  0.00  0.00    +0.000 A 
ATOM     24  C   UNL     1       6.825   4.270  15.711  0.00  0.00    +0.000 A 
ATOM     25  N   UNL     1       7.750   4.651  16.592  0.00  0.00    +0.000 NA
ATOM     26  N   UNL     1       7.039   5.036  17.669  0.00  0.00    +0.000 N 
ATOM     27  C   UNL     1       7.766   5.488  18.834  0.00  0.00    +0.000 C 
ENDBRANCH  21  22
ENDBRANCH   4  17
TORSDOF 3
ENDMDL
MODEL 9
REMARK VINA RESULT:      -8.1      4.411     10.058
REMARK  Name = 
REMARK  5 active torsions:
REMARK  status: ('A' for Active; 'I' for Inactive)
REMARK    1  A    between atoms: C_1  and  C_2
REMARK    2  A    between atoms: C_9  and  C_10
REMARK    3  A    between atoms: C_13  and  C_14
REMARK    4  A    between atoms: C_18  and  C_19
REMARK    5  A    between atoms: N_23  and  C_24
REMARK                            x       y       z     vdW  Elec       q    Type
REMARK                         _______ _______ _______ _____ _____    ______ ____
ROOT
ATOM      1  C   UNL     1       0.891   9.149  20.992  0.00  0.00    +0.000 A 
ATOM      2  N   UNL     1       1.078   9.493  22.277  0.00  0.00    +0.000 NA
ATOM      3  O   UNL     1       0.257  10.606  22.440  0.00  0.00    +0.000 OA
ATOM      4  C   UNL     1      -0.339  10.828  21.234  0.00  0.00    +0.000 A 
ATOM      5  N   UNL     1       0.024   9.968  20.310  0.00  0.00    +0.000 NA
ENDROOT
BRANCH   1  14
ATOM      6  C   UNL     1       2.059   3.796  21.421  0.00  0.00    +0.000 C 
ATOM      7  C   UNL     1       2.515   4.550  20.213  0.00  0.00    +0.000 A 
ATOM      8  C   UNL     1       3.197   3.917  19.157  0.00  0.00    +0.000 A 
ATOM      9  C   UNL     1       3.607   4.625  18.023  0.00  0.00    +0.000 A 
ATOM     10 CL   UNL     1       4.442   3.795  16.764  0.00  0.00    +0.000 Cl
ATOM     11  C   UNL     1       3.346   5.992  17.880  0.00  0.00    +0.000 A 
ATOM     12  C   UNL     1       2.653   6.645  18.912  0.00  0.00    +0.000 A 
ATOM     13  C   UNL     1       2.179   7.964  19.128  0.00  0.00    +0.000 A 
ATOM     14  C   UNL     1       1.553   7.973  20.361  0.00  0.00    +0.000 A 
ATOM     15  O   UNL     1       1.631   6.728  20.920  0.00  0.00    +0.000 OA
ATOM     16  C   UNL     1       2.276   5.918  20.034  0.00  0.00    +0.000 A 
ENDBRANCH   1  14
BRANCH   4  17
ATOM     17  C   UNL     1      -1.350  11.919  21.186  0.00  0.00    +0.000 C 
ATOM     18  C   UNL     1      -0.703  13.278  20.983  0.00  0.00    +0.000 C 
ATOM     19  C   UNL     1      -0.414  13.744  22.394  0.00  0.00    +0.000 C 
ATOM     20  O   UNL     1      -1.328  13.070  23.272  0.00  0.00    +0.000 OA
ATOM     21  C   UNL     1      -2.068  12.081  22.527  0.00  0.00    +0.000 C 
BRANCH  21  22
ATOM     22  C   UNL     1      -3.457  12.634  22.374  0.00  0.00    +0.000 A 
ATOM     23  C   UNL     1      -4.102  13.108  21.244  0.00  0.00    +0.000 A 
ATOM     24  C   UNL     1      -5.389  13.455  21.665  0.00  0.00    +0.000 A 
ATOM     25  N   UNL     1      -5.571  13.225  22.966  0.00  0.00    +0.000 NA
ATOM     26  N   UNL     1      -4.380  12.758  23.387  0.00  0.00    +0.000 N 
ATOM     27  C   UNL     1      -4.238  12.434  24.789  0.00  0.00    +0.000 C 
ENDBRANCH  21  22
ENDBRANCH   4  17
TORSDOF 3
ENDMDL
