MODEL 1
REMARK VINA RESULT:      -8.1      0.000      0.000
REMARK  Name = 
REMARK  8 active torsions:
REMARK  status: ('A' for Active; 'I' for Inactive)
REMARK    1  A    between atoms: C_1  and  C_2
REMARK    2  A    between atoms: C_2  and  N_3
REMARK    3  A    between atoms: N_3  and  C_4
REMARK    4  A    between atoms: C_5  and  N_6
REMARK    5  A    between atoms: C_7  and  C_8
REMARK    6  A    between atoms: C_8  and  C_9
REMARK    7  A    between atoms: C_13  and  N_14
REMARK    8  A    between atoms: C_21  and  C_22
REMARK                            x       y       z     vdW  Elec       q    Type
REMARK                         _______ _______ _______ _____ _____    ______ ____
ROOT
ATOM      1  C   UNL     1       7.662   7.502  17.798  0.00  0.00    +0.000 A 
ATOM      2  C   UNL     1       7.987   6.875  19.004  0.00  0.00    +0.000 A 
ATOM      3  C   UNL     1       7.423   5.638  19.334  0.00  0.00    +0.000 A 
ATOM      4  C   UNL     1       6.426   5.079  18.536  0.00  0.00    +0.000 A 
ATOM      5  C   UNL     1       5.983   5.779  17.425  0.00  0.00    +0.000 A 
ATOM      6  C   UNL     1       6.707   6.906  16.974  0.00  0.00    +0.000 A 
ENDROOT
BRANCH   5   7
ATOM      7  N   UNL     1       4.592   5.651  17.087  0.00  0.00    +0.000 N 
ATOM      8  C   UNL     1       3.622   5.753  18.175  0.00  0.00    +0.000 C 
ATOM      9  C   UNL     1       3.267   4.330  18.463  0.00  0.00    +0.000 A 
ATOM     10  C   UNL     1       3.683   3.541  17.394  0.00  0.00    +0.000 A 
ATOM     11  C   UNL     1       3.767   2.166  17.463  0.00  0.00    +0.000 A 
ATOM     12  C   UNL     1       3.363   1.567  18.655  0.00  0.00    +0.000 A 
ATOM     13  C   UNL     1       2.843   2.346  19.707  0.00  0.00    +0.000 A 
ATOM     14  C   UNL     1       2.759   3.750  19.617  0.00  0.00    +0.000 A 
ATOM     15  C   UNL     1       4.358   4.413  16.423  0.00  0.00    +0.000 C 
ATOM     16  O   UNL     1       4.804   4.024  15.361  0.00  0.00    +0.000 OA
BRANCH  14  17
ATOM     17  C   UNL     1       2.201   4.565  20.751  0.00  0.00    +0.000 C 
ATOM     18  F   UNL     1       0.887   4.887  20.592  0.00  0.00    +0.000 F 
ATOM     19  F   UNL     1       2.276   3.909  21.942  0.00  0.00    +0.000 F 
ATOM     20  F   UNL     1       2.858   5.742  20.923  0.00  0.00    +0.000 F 
ENDBRANCH  14  17
ENDBRANCH   5   7
BRANCH   1  21
ATOM     21  C   UNL     1       8.281   8.818  17.409  0.00  0.00    +0.000 C 
BRANCH  21  23
ATOM     22  N   UNL     1       9.461  10.630  18.527  0.00  0.00    +0.000 NA
ATOM     23  C   UNL     1       8.731   9.569  18.629  0.00  0.00    +0.000 C 
BRANCH  22  25
ATOM     24  C   UNL     1       9.143  11.020  20.840  0.00  0.00    +0.000 C 
ATOM     25  C   UNL     1       9.829  11.210  19.713  0.00  0.00    +0.000 C 
BRANCH  24  26
ATOM     26  N   UNL     1       9.396  11.551  22.080  0.00  0.00    +0.000 N 
ATOM     27  H   UNL     1      10.358  11.478  22.415  0.00  0.00    +0.000 HD
BRANCH  26  29
ATOM     28  C   UNL     1       8.090  11.664  24.132  0.00  0.00    +0.000 C 
ATOM     29  C   UNL     1       8.472  12.365  22.838  0.00  0.00    +0.000 C 
ENDBRANCH  26  29
ENDBRANCH  24  26
ENDBRANCH  22  25
ENDBRANCH  21  23
ENDBRANCH   1  21
TORSDOF 7
ENDMDL
MODEL 2
REMARK VINA RESULT:      -8.1      4.628      7.402
REMARK  Name = 
REMARK  8 active torsions:
REMARK  status: ('A' for Active; 'I' for Inactive)
REMARK    1  A    between atoms: C_1  and  C_2
REMARK    2  A    between atoms: C_2  and  N_3
REMARK    3  A    between atoms: N_3  and  C_4
REMARK    4  A    between atoms: C_5  and  N_6
REMARK    5  A    between atoms: C_7  and  C_8
REMARK    6  A    between atoms: C_8  and  C_9
REMARK    7  A    between atoms: C_13  and  N_14
REMARK    8  A    between atoms: C_21  and  C_22
REMARK                            x       y       z     vdW  Elec       q    Type
REMARK                         _______ _______ _______ _____ _____    ______ ____
ROOT
ATOM      1  C   UNL     1       2.211   3.554  18.419  0.00  0.00    +0.000 A 
ATOM      2  C   UNL     1       1.689   2.892  19.533  0.00  0.00    +0.000 A 
ATOM      3  C   UNL     1       1.081   3.614  20.565  0.00  0.00    +0.000 A 
ATOM      4  C   UNL     1       1.112   5.007  20.569  0.00  0.00    +0.000 A 
ATOM      5  C   UNL     1       1.777   5.667  19.546  0.00  0.00    +0.000 A 
ATOM      6  C   UNL     1       2.185   4.948  18.401  0.00  0.00    +0.000 A 
ENDROOT
BRANCH   5   7
ATOM      7  N   UNL     1       2.447   6.891  19.889  0.00  0.00    +0.000 N 
ATOM      8  C   UNL     1       1.896   7.675  20.992  0.00  0.00    +0.000 C 
ATOM      9  C   UNL     1       1.131   8.760  20.303  0.00  0.00    +0.000 A 
ATOM     10  C   UNL     1       1.536   8.816  18.973  0.00  0.00    +0.000 A 
ATOM     11  C   UNL     1       0.834   9.501  18.002  0.00  0.00    +0.000 A 
ATOM     12  C   UNL     1      -0.299  10.198  18.415  0.00  0.00    +0.000 A 
ATOM     13  C   UNL     1      -0.661  10.235  19.777  0.00  0.00    +0.000 A 
ATOM     14  C   UNL     1       0.071   9.533  20.755  0.00  0.00    +0.000 A 
ATOM     15  C   UNL     1       2.521   7.748  18.753  0.00  0.00    +0.000 C 
ATOM     16  O   UNL     1       3.089   7.560  17.696  0.00  0.00    +0.000 OA
BRANCH  14  17
ATOM     17  C   UNL     1      -0.331   9.583  22.204  0.00  0.00    +0.000 C 
ATOM     18  F   UNL     1       0.724   9.721  23.055  0.00  0.00    +0.000 F 
ATOM     19  F   UNL     1      -1.158  10.631  22.473  0.00  0.00    +0.000 F 
ATOM     20  F   UNL     1      -0.991   8.465  22.604  0.00  0.00    +0.000 F 
ENDBRANCH  14  17
ENDBRANCH   5   7
BRANCH   1  21
ATOM     21  C   UNL     1       2.842   2.794  17.282  0.00  0.00    +0.000 C 
BRANCH  21  23
ATOM     22  N   UNL     1       4.985   3.912  17.567  0.00  0.00    +0.000 NA
ATOM     23  C   UNL     1       4.049   3.524  16.766  0.00  0.00    +0.000 C 
BRANCH  22  25
ATOM     24  C   UNL     1       6.366   4.398  15.706  0.00  0.00    +0.000 C 
ATOM     25  C   UNL     1       6.021   4.590  16.980  0.00  0.00    +0.000 C 
BRANCH  24  26
ATOM     26  N   UNL     1       7.384   4.998  15.010  0.00  0.00    +0.000 N 
ATOM     27  H   UNL     1       8.200   5.281  15.555  0.00  0.00    +0.000 HD
BRANCH  26  29
ATOM     28  C   UNL     1       6.610   3.991  12.932  0.00  0.00    +0.000 C 
ATOM     29  C   UNL     1       7.471   5.072  13.568  0.00  0.00    +0.000 C 
ENDBRANCH  26  29
ENDBRANCH  24  26
ENDBRANCH  22  25
ENDBRANCH  21  23
ENDBRANCH   1  21
TORSDOF 7
ENDMDL
MODEL 3
REMARK VINA RESULT:      -8.0      5.472      7.578
REMARK  Name = 
REMARK  8 active torsions:
REMARK  status: ('A' for Active; 'I' for Inactive)
REMARK    1  A    between atoms: C_1  and  C_2
REMARK    2  A    between atoms: C_2  and  N_3
REMARK    3  A    between atoms: N_3  and  C_4
REMARK    4  A    between atoms: C_5  and  N_6
REMARK    5  A    between atoms: C_7  and  C_8
REMARK    6  A    between atoms: C_8  and  C_9
REMARK    7  A    between atoms: C_13  and  N_14
REMARK    8  A    between atoms: C_21  and  C_22
REMARK                            x       y       z     vdW  Elec       q    Type
REMARK                         _______ _______ _______ _____ _____    ______ ____
ROOT
ATOM      1  C   UNL     1       1.272   9.086  19.886  0.00  0.00    +0.000 A 
ATOM      2  C   UNL     1       1.549   9.482  18.575  0.00  0.00    +0.000 A 
ATOM      3  C   UNL     1       2.059   8.565  17.651  0.00  0.00    +0.000 A 
ATOM      4  C   UNL     1       2.432   7.284  18.056  0.00  0.00    +0.000 A 
ATOM      5  C   UNL     1       2.313   6.941  19.394  0.00  0.00    +0.000 A 
ATOM      6  C   UNL     1       1.591   7.784  20.269  0.00  0.00    +0.000 A 
ENDROOT
BRANCH   5   7
ATOM      7  N   UNL     1       3.305   6.050  19.928  0.00  0.00    +0.000 N 
ATOM      8  C   UNL     1       4.422   5.686  19.059  0.00  0.00    +0.000 C 
ATOM      9  C   UNL     1       4.051   4.325  18.561  0.00  0.00    +0.000 A 
ATOM     10  C   UNL     1       3.040   3.815  19.370  0.00  0.00    +0.000 A 
ATOM     11  C   UNL     1       2.279   2.719  19.020  0.00  0.00    +0.000 A 
ATOM     12  C   UNL     1       2.595   2.087  17.819  0.00  0.00    +0.000 A 
ATOM     13  C   UNL     1       3.684   2.531  17.042  0.00  0.00    +0.000 A 
ATOM     14  C   UNL     1       4.453   3.650  17.418  0.00  0.00    +0.000 A 
ATOM     15  C   UNL     1       2.696   4.839  20.366  0.00  0.00    +0.000 C 
ATOM     16  O   UNL     1       1.867   4.679  21.242  0.00  0.00    +0.000 OA
BRANCH  14  17
ATOM     17  C   UNL     1       5.611   4.110  16.575  0.00  0.00    +0.000 C 
ATOM     18  F   UNL     1       6.755   4.310  17.287  0.00  0.00    +0.000 F 
ATOM     19  F   UNL     1       5.934   3.207  15.608  0.00  0.00    +0.000 F 
ATOM     20  F   UNL     1       5.359   5.281  15.933  0.00  0.00    +0.000 F 
ENDBRANCH  14  17
ENDBRANCH   5   7
BRANCH   1  21
ATOM     21  C   UNL     1       0.693  10.049  20.889  0.00  0.00    +0.000 C 
BRANCH  21  23
ATOM     22  N   UNL     1      -0.989  11.808  20.859  0.00  0.00    +0.000 NA
ATOM     23  C   UNL     1      -0.522  10.728  20.325  0.00  0.00    +0.000 C 
BRANCH  22  25
ATOM     24  C   UNL     1      -2.604  11.831  19.129  0.00  0.00    +0.000 C 
ATOM     25  C   UNL     1      -2.116  12.318  20.269  0.00  0.00    +0.000 C 
BRANCH  24  26
ATOM     26  N   UNL     1      -3.708  12.259  18.434  0.00  0.00    +0.000 N 
ATOM     27  H   UNL     1      -3.949  13.246  18.532  0.00  0.00    +0.000 HD
BRANCH  26  29
ATOM     28  C   UNL     1      -3.512  10.390  16.885  0.00  0.00    +0.000 C 
ATOM     29  C   UNL     1      -4.414  11.481  17.440  0.00  0.00    +0.000 C 
ENDBRANCH  26  29
ENDBRANCH  24  26
ENDBRANCH  22  25
ENDBRANCH  21  23
ENDBRANCH   1  21
TORSDOF 7
ENDMDL
MODEL 4
REMARK VINA RESULT:      -7.9      3.679      6.622
REMARK  Name = 
REMARK  8 active torsions:
REMARK  status: ('A' for Active; 'I' for Inactive)
REMARK    1  A    between atoms: C_1  and  C_2
REMARK    2  A    between atoms: C_2  and  N_3
REMARK    3  A    between atoms: N_3  and  C_4
REMARK    4  A    between atoms: C_5  and  N_6
REMARK    5  A    between atoms: C_7  and  C_8
REMARK    6  A    between atoms: C_8  and  C_9
REMARK    7  A    between atoms: C_13  and  N_14
REMARK    8  A    between atoms: C_21  and  C_22
REMARK                            x       y       z     vdW  Elec       q    Type
REMARK                         _______ _______ _______ _____ _____    ______ ____
ROOT
ATOM      1  C   UNL     1       2.226   3.713  18.376  0.00  0.00    +0.000 A 
ATOM      2  C   UNL     1       1.627   3.042  19.445  0.00  0.00    +0.000 A 
ATOM      3  C   UNL     1       0.956   3.757  20.443  0.00  0.00    +0.000 A 
ATOM      4  C   UNL     1       0.994   5.150  20.464  0.00  0.00    +0.000 A 
ATOM      5  C   UNL     1       1.729   5.817  19.495  0.00  0.00    +0.000 A 
ATOM      6  C   UNL     1       2.209   5.108  18.371  0.00  0.00    +0.000 A 
ENDROOT
BRANCH   5   7
ATOM      7  N   UNL     1       2.382   7.033  19.896  0.00  0.00    +0.000 N 
ATOM      8  C   UNL     1       1.807   7.767  21.021  0.00  0.00    +0.000 C 
ATOM      9  C   UNL     1       1.040   8.870  20.366  0.00  0.00    +0.000 A 
ATOM     10  C   UNL     1       1.462   8.984  19.044  0.00  0.00    +0.000 A 
ATOM     11  C   UNL     1       0.767   9.699  18.092  0.00  0.00    +0.000 A 
ATOM     12  C   UNL     1      -0.380  10.368  18.516  0.00  0.00    +0.000 A 
ATOM     13  C   UNL     1      -0.760  10.347  19.873  0.00  0.00    +0.000 A 
ATOM     14  C   UNL     1      -0.034   9.614  20.833  0.00  0.00    +0.000 A 
ATOM     15  C   UNL     1       2.461   7.935  18.796  0.00  0.00    +0.000 C 
ATOM     16  O   UNL     1       3.046   7.795  17.740  0.00  0.00    +0.000 OA
BRANCH  14  17
ATOM     17  C   UNL     1      -0.456   9.602  22.276  0.00  0.00    +0.000 C 
ATOM     18  F   UNL     1       0.573   9.810  23.144  0.00  0.00    +0.000 F 
ATOM     19  F   UNL     1      -1.371  10.573  22.554  0.00  0.00    +0.000 F 
ATOM     20  F   UNL     1      -1.025   8.425  22.647  0.00  0.00    +0.000 F 
ENDBRANCH  14  17
ENDBRANCH   5   7
BRANCH   1  21
ATOM     21  C   UNL     1       2.927   2.962  17.275  0.00  0.00    +0.000 C 
BRANCH  21  23
ATOM     22  N   UNL     1       5.061   3.982  17.853  0.00  0.00    +0.000 NA
ATOM     23  C   UNL     1       4.229   3.626  16.930  0.00  0.00    +0.000 C 
BRANCH  22  25
ATOM     24  C   UNL     1       6.556   5.816  17.831  0.00  0.00    +0.000 C 
ATOM     25  C   UNL     1       6.202   4.601  17.413  0.00  0.00    +0.000 C 
BRANCH  24  26
ATOM     26  N   UNL     1       7.657   6.546  17.458  0.00  0.00    +0.000 N 
ATOM     27  H   UNL     1       7.954   6.453  16.486  0.00  0.00    +0.000 HD
BRANCH  26  29
ATOM     28  C   UNL     1       7.958   8.948  17.725  0.00  0.00    +0.000 C 
ATOM     29  C   UNL     1       8.287   7.566  18.267  0.00  0.00    +0.000 C 
ENDBRANCH  26  29
ENDBRANCH  24  26
ENDBRANCH  22  25
ENDBRANCH  21  23
ENDBRANCH   1  21
TORSDOF 7
ENDMDL
MODEL 5
REMARK VINA RESULT:      -7.8      5.576      6.686
REMARK  Name = 
REMARK  8 active torsions:
REMARK  status: ('A' for Active; 'I' for Inactive)
REMARK    1  A    between atoms: C_1  and  C_2
REMARK    2  A    between atoms: C_2  and  N_3
REMARK    3  A    between atoms: N_3  and  C_4
REMARK    4  A    between atoms: C_5  and  N_6
REMARK    5  A    between atoms: C_7  and  C_8
REMARK    6  A    between atoms: C_8  and  C_9
REMARK    7  A    between atoms: C_13  and  N_14
REMARK    8  A    between atoms: C_21  and  C_22
REMARK                            x       y       z     vdW  Elec       q    Type
REMARK                         _______ _______ _______ _____ _____    ______ ____
ROOT
ATOM      1  C   UNL     1       1.239   8.997  20.099  0.00  0.00    +0.000 A 
ATOM      2  C   UNL     1       1.487   9.453  18.801  0.00  0.00    +0.000 A 
ATOM      3  C   UNL     1       1.995   8.586  17.830  0.00  0.00    +0.000 A 
ATOM      4  C   UNL     1       2.397   7.295  18.173  0.00  0.00    +0.000 A 
ATOM      5  C   UNL     1       2.307   6.894  19.497  0.00  0.00    +0.000 A 
ATOM      6  C   UNL     1       1.587   7.685  20.420  0.00  0.00    +0.000 A 
ENDROOT
BRANCH   5   7
ATOM      7  N   UNL     1       3.324   5.998  19.976  0.00  0.00    +0.000 N 
ATOM      8  C   UNL     1       4.407   5.656  19.057  0.00  0.00    +0.000 C 
ATOM      9  C   UNL     1       4.023   4.303  18.549  0.00  0.00    +0.000 A 
ATOM     10  C   UNL     1       3.047   3.772  19.388  0.00  0.00    +0.000 A 
ATOM     11  C   UNL     1       2.278   2.679  19.047  0.00  0.00    +0.000 A 
ATOM     12  C   UNL     1       2.550   2.071  17.823  0.00  0.00    +0.000 A 
ATOM     13  C   UNL     1       3.605   2.535  17.012  0.00  0.00    +0.000 A 
ATOM     14  C   UNL     1       4.384   3.651  17.379  0.00  0.00    +0.000 A 
ATOM     15  C   UNL     1       2.737   4.776  20.415  0.00  0.00    +0.000 C 
ATOM     16  O   UNL     1       1.944   4.596  21.319  0.00  0.00    +0.000 OA
BRANCH  14  17
ATOM     17  C   UNL     1       5.505   4.132  16.500  0.00  0.00    +0.000 C 
ATOM     18  F   UNL     1       5.230   5.304  15.862  0.00  0.00    +0.000 F 
ATOM     19  F   UNL     1       6.650   4.358  17.203  0.00  0.00    +0.000 F 
ATOM     20  F   UNL     1       5.827   3.242  15.525  0.00  0.00    +0.000 F 
ENDBRANCH  14  17
ENDBRANCH   5   7
BRANCH   1  21
ATOM     21  C   UNL     1       0.662   9.906  21.152  0.00  0.00    +0.000 C 
BRANCH  21  23
ATOM     22  N   UNL     1       0.978  12.320  21.147  0.00  0.00    +0.000 NA
ATOM     23  C   UNL     1       0.441  11.283  20.594  0.00  0.00    +0.000 C 
BRANCH  22  25
ATOM     24  C   UNL     1      -0.232  13.636  19.597  0.00  0.00    +0.000 C 
ATOM     25  C   UNL     1       0.681  13.522  20.561  0.00  0.00    +0.000 C 
BRANCH  24  26
ATOM     26  N   UNL     1      -0.609  14.771  18.923  0.00  0.00    +0.000 N 
ATOM     27  H   UNL     1      -1.537  14.759  18.499  0.00  0.00    +0.000 HD
BRANCH  26  29
ATOM     28  C   UNL     1      -0.616  17.068  18.112  0.00  0.00    +0.000 C 
ATOM     29  C   UNL     1       0.113  16.025  18.945  0.00  0.00    +0.000 C 
ENDBRANCH  26  29
ENDBRANCH  24  26
ENDBRANCH  22  25
ENDBRANCH  21  23
ENDBRANCH   1  21
TORSDOF 7
ENDMDL
MODEL 6
REMARK VINA RESULT:      -7.8      5.168      7.888
REMARK  Name = 
REMARK  8 active torsions:
REMARK  status: ('A' for Active; 'I' for Inactive)
REMARK    1  A    between atoms: C_1  and  C_2
REMARK    2  A    between atoms: C_2  and  N_3
REMARK    3  A    between atoms: N_3  and  C_4
REMARK    4  A    between atoms: C_5  and  N_6
REMARK    5  A    between atoms: C_7  and  C_8
REMARK    6  A    between atoms: C_8  and  C_9
REMARK    7  A    between atoms: C_13  and  N_14
REMARK    8  A    between atoms: C_21  and  C_22
REMARK                            x       y       z     vdW  Elec       q    Type
REMARK                         _______ _______ _______ _____ _____    ______ ____
ROOT
ATOM      1  C   UNL     1       0.862   9.679  19.188  0.00  0.00    +0.000 A 
ATOM      2  C   UNL     1       0.717   9.189  20.489  0.00  0.00    +0.000 A 
ATOM      3  C   UNL     1       1.446   8.073  20.911  0.00  0.00    +0.000 A 
ATOM      4  C   UNL     1       2.218   7.347  20.005  0.00  0.00    +0.000 A 
ATOM      5  C   UNL     1       2.233   7.734  18.674  0.00  0.00    +0.000 A 
ATOM      6  C   UNL     1       1.685   8.982  18.303  0.00  0.00    +0.000 A 
ENDROOT
BRANCH   5   7
ATOM      7  N   UNL     1       2.338   6.689  17.693  0.00  0.00    +0.000 N 
ATOM      8  C   UNL     1       1.642   5.434  17.970  0.00  0.00    +0.000 C 
ATOM      9  C   UNL     1       2.729   4.530  18.459  0.00  0.00    +0.000 A 
ATOM     10  C   UNL     1       3.958   5.085  18.117  0.00  0.00    +0.000 A 
ATOM     11  C   UNL     1       5.152   4.661  18.662  0.00  0.00    +0.000 A 
ATOM     12  C   UNL     1       5.094   3.592  19.555  0.00  0.00    +0.000 A 
ATOM     13  C   UNL     1       3.868   2.954  19.830  0.00  0.00    +0.000 A 
ATOM     14  C   UNL     1       2.659   3.399  19.259  0.00  0.00    +0.000 A 
ATOM     15  C   UNL     1       3.706   6.372  17.454  0.00  0.00    +0.000 C 
ATOM     16  O   UNL     1       4.583   7.085  17.005  0.00  0.00    +0.000 OA
BRANCH  14  17
ATOM     17  C   UNL     1       1.360   2.706  19.565  0.00  0.00    +0.000 C 
ATOM     18  F   UNL     1       0.368   3.557  19.948  0.00  0.00    +0.000 F 
ATOM     19  F   UNL     1       0.869   2.033  18.488  0.00  0.00    +0.000 F 
ATOM     20  F   UNL     1       1.476   1.792  20.564  0.00  0.00    +0.000 F 
ENDBRANCH  14  17
ENDBRANCH   5   7
BRANCH   1  21
ATOM     21  C   UNL     1       0.111  10.898  18.723  0.00  0.00    +0.000 C 
BRANCH  21  23
ATOM     22  N   UNL     1      -1.947  11.345  17.501  0.00  0.00    +0.000 NA
ATOM     23  C   UNL     1      -1.013  10.506  17.808  0.00  0.00    +0.000 C 
BRANCH  22  25
ATOM     24  C   UNL     1      -2.718  10.616  15.385  0.00  0.00    +0.000 C 
ATOM     25  C   UNL     1      -2.930  10.860  16.678  0.00  0.00    +0.000 C 
BRANCH  24  26
ATOM     26  N   UNL     1      -3.616  10.147  14.459  0.00  0.00    +0.000 N 
ATOM     27  H   UNL     1      -4.604  10.295  14.672  0.00  0.00    +0.000 HD
BRANCH  26  29
ATOM     28  C   UNL     1      -4.438   9.836  12.188  0.00  0.00    +0.000 C 
ATOM     29  C   UNL     1      -3.269   9.656  13.144  0.00  0.00    +0.000 C 
ENDBRANCH  26  29
ENDBRANCH  24  26
ENDBRANCH  22  25
ENDBRANCH  21  23
ENDBRANCH   1  21
TORSDOF 7
ENDMDL
MODEL 7
REMARK VINA RESULT:      -7.8      1.023      1.153
REMARK  Name = 
REMARK  8 active torsions:
REMARK  status: ('A' for Active; 'I' for Inactive)
REMARK    1  A    between atoms: C_1  and  C_2
REMARK    2  A    between atoms: C_2  and  N_3
REMARK    3  A    between atoms: N_3  and  C_4
REMARK    4  A    between atoms: C_5  and  N_6
REMARK    5  A    between atoms: C_7  and  C_8
REMARK    6  A    between atoms: C_8  and  C_9
REMARK    7  A    between atoms: C_13  and  N_14
REMARK    8  A    between atoms: C_21  and  C_22
REMARK                            x       y       z     vdW  Elec       q    Type
REMARK                         _______ _______ _______ _____ _____    ______ ____
ROOT
ATOM      1  C   UNL     1       7.941   7.693  17.797  0.00  0.00    +0.000 A 
ATOM      2  C   UNL     1       8.217   6.919  18.927  0.00  0.00    +0.000 A 
ATOM      3  C   UNL     1       7.858   5.568  18.965  0.00  0.00    +0.000 A 
ATOM      4  C   UNL     1       7.097   5.007  17.941  0.00  0.00    +0.000 A 
ATOM      5  C   UNL     1       6.680   5.816  16.895  0.00  0.00    +0.000 A 
ATOM      6  C   UNL     1       7.232   7.109  16.748  0.00  0.00    +0.000 A 
ENDROOT
BRANCH   5   7
ATOM      7  N   UNL     1       5.394   5.527  16.321  0.00  0.00    +0.000 N 
ATOM      8  C   UNL     1       4.214   6.008  17.037  0.00  0.00    +0.000 C 
ATOM      9  C   UNL     1       3.718   4.792  17.752  0.00  0.00    +0.000 A 
ATOM     10  C   UNL     1       4.313   3.667  17.187  0.00  0.00    +0.000 A 
ATOM     11  C   UNL     1       4.297   2.426  17.789  0.00  0.00    +0.000 A 
ATOM     12  C   UNL     1       3.602   2.316  18.992  0.00  0.00    +0.000 A 
ATOM     13  C   UNL     1       2.908   3.422  19.521  0.00  0.00    +0.000 A 
ATOM     14  C   UNL     1       2.932   4.681  18.890  0.00  0.00    +0.000 A 
ATOM     15  C   UNL     1       5.239   4.122  16.141  0.00  0.00    +0.000 C 
ATOM     16  O   UNL     1       5.887   3.371  15.438  0.00  0.00    +0.000 OA
BRANCH  14  17
ATOM     17  C   UNL     1       2.185   5.851  19.471  0.00  0.00    +0.000 C 
ATOM     18  F   UNL     1       1.519   6.587  18.538  0.00  0.00    +0.000 F 
ATOM     19  F   UNL     1       1.242   5.462  20.374  0.00  0.00    +0.000 F 
ATOM     20  F   UNL     1       3.000   6.721  20.123  0.00  0.00    +0.000 F 
ENDBRANCH  14  17
ENDBRANCH   5   7
BRANCH   1  21
ATOM     21  C   UNL     1       8.346   9.141  17.722  0.00  0.00    +0.000 C 
BRANCH  21  23
ATOM     22  N   UNL     1       9.287  10.822  19.212  0.00  0.00    +0.000 NA
ATOM     23  C   UNL     1       8.852   9.615  19.055  0.00  0.00    +0.000 C 
BRANCH  22  25
ATOM     24  C   UNL     1       8.943  11.600  21.421  0.00  0.00    +0.000 C 
ATOM     25  C   UNL     1       9.745  11.126  20.467  0.00  0.00    +0.000 C 
BRANCH  24  26
ATOM     26  N   UNL     1       9.279  11.955  22.703  0.00  0.00    +0.000 N 
ATOM     27  H   UNL     1      10.262  12.173  22.870  0.00  0.00    +0.000 HD
BRANCH  26  29
ATOM     28  C   UNL     1       6.925  11.853  23.322  0.00  0.00    +0.000 C 
ATOM     29  C   UNL     1       8.332  12.231  23.761  0.00  0.00    +0.000 C 
ENDBRANCH  26  29
ENDBRANCH  24  26
ENDBRANCH  22  25
ENDBRANCH  21  23
ENDBRANCH   1  21
TORSDOF 7
ENDMDL
MODEL 8
REMARK VINA RESULT:      -7.8      9.100     11.329
REMARK  Name = 
REMARK  8 active torsions:
REMARK  status: ('A' for Active; 'I' for Inactive)
REMARK    1  A    between atoms: C_1  and  C_2
REMARK    2  A    between atoms: C_2  and  N_3
REMARK    3  A    between atoms: N_3  and  C_4
REMARK    4  A    between atoms: C_5  and  N_6
REMARK    5  A    between atoms: C_7  and  C_8
REMARK    6  A    between atoms: C_8  and  C_9
REMARK    7  A    between atoms: C_13  and  N_14
REMARK    8  A    between atoms: C_21  and  C_22
REMARK                            x       y       z     vdW  Elec       q    Type
REMARK                         _______ _______ _______ _____ _____    ______ ____
ROOT
ATOM      1  C   UNL     1      -4.061  11.340  17.243  0.00  0.00    +0.000 A 
ATOM      2  C   UNL     1      -3.929  10.714  16.001  0.00  0.00    +0.000 A 
ATOM      3  C   UNL     1      -2.858   9.849  15.754  0.00  0.00    +0.000 A 
ATOM      4  C   UNL     1      -1.832   9.707  16.687  0.00  0.00    +0.000 A 
ATOM      5  C   UNL     1      -1.877  10.455  17.854  0.00  0.00    +0.000 A 
ATOM      6  C   UNL     1      -3.062  11.145  18.196  0.00  0.00    +0.000 A 
ENDROOT
BRANCH   5   7
ATOM      7  N   UNL     1      -0.621  10.898  18.392  0.00  0.00    +0.000 N 
ATOM      8  C   UNL     1      -0.073  10.155  19.525  0.00  0.00    +0.000 C 
ATOM      9  C   UNL     1      -0.418  11.008  20.704  0.00  0.00    +0.000 A 
ATOM     10  C   UNL     1      -0.764  12.278  20.250  0.00  0.00    +0.000 A 
ATOM     11  C   UNL     1      -1.403  13.210  21.041  0.00  0.00    +0.000 A 
ATOM     12  C   UNL     1      -1.655  12.850  22.363  0.00  0.00    +0.000 A 
ATOM     13  C   UNL     1      -1.217  11.608  22.863  0.00  0.00    +0.000 A 
ATOM     14  C   UNL     1      -0.561  10.670  22.042  0.00  0.00    +0.000 A 
ATOM     15  C   UNL     1      -0.705  12.266  18.782  0.00  0.00    +0.000 C 
ATOM     16  O   UNL     1      -0.921  13.241  18.089  0.00  0.00    +0.000 OA
BRANCH  14  17
ATOM     17  C   UNL     1      -0.102   9.348  22.593  0.00  0.00    +0.000 C 
ATOM     18  F   UNL     1      -0.856   8.294  22.173  0.00  0.00    +0.000 F 
ATOM     19  F   UNL     1       1.176   9.053  22.227  0.00  0.00    +0.000 F 
ATOM     20  F   UNL     1      -0.127   9.309  23.951  0.00  0.00    +0.000 F 
ENDBRANCH  14  17
ENDBRANCH   5   7
BRANCH   1  21
ATOM     21  C   UNL     1      -5.223  12.250  17.540  0.00  0.00    +0.000 C 
BRANCH  21  23
ATOM     22  N   UNL     1      -6.640  11.720  19.448  0.00  0.00    +0.000 NA
ATOM     23  C   UNL     1      -5.540  12.237  19.008  0.00  0.00    +0.000 C 
BRANCH  22  25
ATOM     24  C   UNL     1      -5.960  12.410  21.608  0.00  0.00    +0.000 C 
ATOM     25  C   UNL     1      -6.825  11.792  20.804  0.00  0.00    +0.000 C 
BRANCH  24  26
ATOM     26  N   UNL     1      -6.023  12.538  22.973  0.00  0.00    +0.000 N 
ATOM     27  H   UNL     1      -6.689  11.931  23.454  0.00  0.00    +0.000 HD
BRANCH  26  29
ATOM     28  C   UNL     1      -4.418  12.405  24.800  0.00  0.00    +0.000 C 
ATOM     29  C   UNL     1      -5.096  13.303  23.776  0.00  0.00    +0.000 C 
ENDBRANCH  26  29
ENDBRANCH  24  26
ENDBRANCH  22  25
ENDBRANCH  21  23
ENDBRANCH   1  21
TORSDOF 7
ENDMDL
MODEL 9
REMARK VINA RESULT:      -7.8      4.145      6.801
REMARK  Name = 
REMARK  8 active torsions:
REMARK  status: ('A' for Active; 'I' for Inactive)
REMARK    1  A    between atoms: C_1  and  C_2
REMARK    2  A    between atoms: C_2  and  N_3
REMARK    3  A    between atoms: N_3  and  C_4
REMARK    4  A    between atoms: C_5  and  N_6
REMARK    5  A    between atoms: C_7  and  C_8
REMARK    6  A    between atoms: C_8  and  C_9
REMARK    7  A    between atoms: C_13  and  N_14
REMARK    8  A    between atoms: C_21  and  C_22
REMARK                            x       y       z     vdW  Elec       q    Type
REMARK                         _______ _______ _______ _____ _____    ______ ____
ROOT
ATOM      1  C   UNL     1       2.015   5.442  20.529  0.00  0.00    +0.000 A 
ATOM      2  C   UNL     1       0.799   4.765  20.398  0.00  0.00    +0.000 A 
ATOM      3  C   UNL     1       0.776   3.408  20.061  0.00  0.00    +0.000 A 
ATOM      4  C   UNL     1       1.951   2.746  19.711  0.00  0.00    +0.000 A 
ATOM      5  C   UNL     1       3.140   3.458  19.679  0.00  0.00    +0.000 A 
ATOM      6  C   UNL     1       3.193   4.755  20.236  0.00  0.00    +0.000 A 
ENDROOT
BRANCH   5   7
ATOM      7  N   UNL     1       4.099   3.079  18.677  0.00  0.00    +0.000 N 
ATOM      8  C   UNL     1       5.485   3.494  18.881  0.00  0.00    +0.000 C 
ATOM      9  C   UNL     1       5.630   4.686  17.991  0.00  0.00    +0.000 A 
ATOM     10  C   UNL     1       4.571   4.700  17.087  0.00  0.00    +0.000 A 
ATOM     11  C   UNL     1       4.247   5.803  16.326  0.00  0.00    +0.000 A 
ATOM     12  C   UNL     1       5.068   6.922  16.453  0.00  0.00    +0.000 A 
ATOM     13  C   UNL     1       6.204   6.886  17.286  0.00  0.00    +0.000 A 
ATOM     14  C   UNL     1       6.522   5.747  18.054  0.00  0.00    +0.000 A 
ATOM     15  C   UNL     1       3.694   3.563  17.399  0.00  0.00    +0.000 C 
ATOM     16  O   UNL     1       2.697   3.283  16.763  0.00  0.00    +0.000 OA
BRANCH  14  17
ATOM     17  C   UNL     1       7.738   5.727  18.938  0.00  0.00    +0.000 C 
ATOM     18  F   UNL     1       8.596   4.707  18.657  0.00  0.00    +0.000 F 
ATOM     19  F   UNL     1       8.475   6.867  18.826  0.00  0.00    +0.000 F 
ATOM     20  F   UNL     1       7.427   5.603  20.255  0.00  0.00    +0.000 F 
ENDBRANCH  14  17
ENDBRANCH   5   7
BRANCH   1  21
ATOM     21  C   UNL     1       2.063   6.895  20.922  0.00  0.00    +0.000 C 
BRANCH  21  23
ATOM     22  N   UNL     1       2.090   8.345  18.968  0.00  0.00    +0.000 NA
ATOM     23  C   UNL     1       1.398   7.745  19.879  0.00  0.00    +0.000 C 
BRANCH  22  25
ATOM     24  C   UNL     1       0.384   9.914  18.488  0.00  0.00    +0.000 C 
ATOM     25  C   UNL     1       1.370   9.112  18.089  0.00  0.00    +0.000 C 
BRANCH  24  26
ATOM     26  N   UNL     1      -0.416  10.716  17.712  0.00  0.00    +0.000 N 
ATOM     27  H   UNL     1      -0.000  11.071  16.850  0.00  0.00    +0.000 HD
BRANCH  26  29
ATOM     28  C   UNL     1      -2.627   9.786  17.290  0.00  0.00    +0.000 C 
ATOM     29  C   UNL     1      -1.833  10.920  17.919  0.00  0.00    +0.000 C 
ENDBRANCH  26  29
ENDBRANCH  24  26
ENDBRANCH  22  25
ENDBRANCH  21  23
ENDBRANCH   1  21
TORSDOF 7
ENDMDL
