MODEL 1
REMARK VINA RESULT:      -8.3      0.000      0.000
REMARK  Name = 
REMARK  5 active torsions:
REMARK  status: ('A' for Active; 'I' for Inactive)
REMARK    1  A    between atoms: C_1  and  C_2
REMARK    2  A    between atoms: C_4  and  C_5
REMARK    3  A    between atoms: N_7  and  C_8
REMARK    4  A    between atoms: N_18  and  C_19
REMARK    5  A    between atoms: C_19  and  C_20
REMARK                            x       y       z     vdW  Elec       q    Type
REMARK                         _______ _______ _______ _____ _____    ______ ____
ROOT
ATOM      1  C   UNL     1       1.927   8.362  18.789  0.00  0.00    +0.000 A 
ATOM      2  C   UNL     1       1.344   9.139  17.797  0.00  0.00    +0.000 A 
ATOM      3  C   UNL     1       0.320  10.046  18.124  0.00  0.00    +0.000 A 
ATOM      4  C   UNL     1      -0.094  10.239  19.453  0.00  0.00    +0.000 A 
ATOM      5  C   UNL     1       0.487   9.436  20.439  0.00  0.00    +0.000 A 
ATOM      6  C   UNL     1       1.445   8.468  20.093  0.00  0.00    +0.000 A 
ATOM      7  C   UNL     1       0.081   9.536  21.874  0.00  0.00    +0.000 C 
ATOM      8  C   UNL     1      -0.514  10.874  22.229  0.00  0.00    +0.000 C 
ATOM      9  C   UNL     1      -1.361  11.510  21.155  0.00  0.00    +0.000 C 
ATOM     10  O   UNL     1      -2.206  12.346  21.491  0.00  0.00    +0.000 OA
ATOM     11  N   UNL     1      -1.073  11.212  19.827  0.00  0.00    +0.000 N 
ENDROOT
BRANCH   1  14
ATOM     12  C   UNL     1       2.984   6.208  18.089  0.00  0.00    +0.000 C 
ATOM     13  O   UNL     1       1.975   5.566  17.823  0.00  0.00    +0.000 OA
ATOM     14  N   UNL     1       3.014   7.491  18.600  0.00  0.00    +0.000 N 
ATOM     15  H   UNL     1       3.927   7.927  18.682  0.00  0.00    +0.000 HD
BRANCH  12  19
ATOM     16  C   UNL     1       6.326   4.785  14.605  0.00  0.00    +0.000 C 
ATOM     17  C   UNL     1       5.925   4.933  16.043  0.00  0.00    +0.000 A 
ATOM     18  C   UNL     1       4.664   5.438  16.401  0.00  0.00    +0.000 A 
ATOM     19  C   UNL     1       4.325   5.617  17.754  0.00  0.00    +0.000 A 
ATOM     20  C   UNL     1       5.265   5.272  18.735  0.00  0.00    +0.000 A 
ATOM     21  F   UNL     1       5.000   5.438  20.034  0.00  0.00    +0.000 F 
ATOM     22  C   UNL     1       6.513   4.762  18.390  0.00  0.00    +0.000 A 
ATOM     23  C   UNL     1       6.835   4.603  17.050  0.00  0.00    +0.000 A 
ATOM     24  F   UNL     1       8.047   4.134  16.730  0.00  0.00    +0.000 F 
ENDBRANCH  12  19
ENDBRANCH   1  14
BRANCH  11  25
ATOM     25  C   UNL     1      -1.818  11.952  18.806  0.00  0.00    +0.000 C 
BRANCH  25  26
ATOM     26  C   UNL     1      -3.152  11.342  18.461  0.00  0.00    +0.000 C 
ATOM     27  C   UNL     1      -3.218  10.083  17.624  0.00  0.00    +0.000 C 
ATOM     28  C   UNL     1      -3.760  11.368  17.074  0.00  0.00    +0.000 C 
ENDBRANCH  25  26
ENDBRANCH  11  25
TORSDOF 4
ENDMDL
MODEL 2
REMARK VINA RESULT:      -8.3      3.633      8.941
REMARK  Name = 
REMARK  5 active torsions:
REMARK  status: ('A' for Active; 'I' for Inactive)
REMARK    1  A    between atoms: C_1  and  C_2
REMARK    2  A    between atoms: C_4  and  C_5
REMARK    3  A    between atoms: N_7  and  C_8
REMARK    4  A    between atoms: N_18  and  C_19
REMARK    5  A    between atoms: C_19  and  C_20
REMARK                            x       y       z     vdW  Elec       q    Type
REMARK                         _______ _______ _______ _____ _____    ______ ____
ROOT
ATOM      1  C   UNL     1       1.910   7.655  19.958  0.00  0.00    +0.000 A 
ATOM      2  C   UNL     1       2.406   7.628  18.662  0.00  0.00    +0.000 A 
ATOM      3  C   UNL     1       2.789   6.407  18.079  0.00  0.00    +0.000 A 
ATOM      4  C   UNL     1       2.623   5.186  18.755  0.00  0.00    +0.000 A 
ATOM      5  C   UNL     1       2.141   5.229  20.067  0.00  0.00    +0.000 A 
ATOM      6  C   UNL     1       1.845   6.460  20.675  0.00  0.00    +0.000 A 
ATOM      7  C   UNL     1       1.971   3.988  20.882  0.00  0.00    +0.000 C 
ATOM      8  C   UNL     1       1.802   2.747  20.044  0.00  0.00    +0.000 C 
ATOM      9  C   UNL     1       2.607   2.713  18.770  0.00  0.00    +0.000 C 
ATOM     10  O   UNL     1       2.866   1.615  18.267  0.00  0.00    +0.000 OA
ATOM     11  N   UNL     1       2.925   3.922  18.159  0.00  0.00    +0.000 N 
ENDROOT
BRANCH   1  14
ATOM     12  C   UNL     1       0.502   9.713  20.123  0.00  0.00    +0.000 C 
ATOM     13  O   UNL     1       0.062   9.747  18.980  0.00  0.00    +0.000 OA
ATOM     14  N   UNL     1       1.412   8.796  20.611  0.00  0.00    +0.000 N 
ATOM     15  H   UNL     1       1.611   8.838  21.605  0.00  0.00    +0.000 HD
BRANCH  12  19
ATOM     16  C   UNL     1      -0.342  14.467  21.543  0.00  0.00    +0.000 C 
ATOM     17  C   UNL     1      -0.440  12.993  21.801  0.00  0.00    +0.000 A 
ATOM     18  C   UNL     1       0.099  12.056  20.903  0.00  0.00    +0.000 A 
ATOM     19  C   UNL     1      -0.047  10.677  21.136  0.00  0.00    +0.000 A 
ATOM     20  C   UNL     1      -0.732  10.257  22.284  0.00  0.00    +0.000 A 
ATOM     21  F   UNL     1      -0.914   8.959  22.545  0.00  0.00    +0.000 F 
ATOM     22  C   UNL     1      -1.262  11.178  23.185  0.00  0.00    +0.000 A 
ATOM     23  C   UNL     1      -1.118  12.534  22.933  0.00  0.00    +0.000 A 
ATOM     24  F   UNL     1      -1.653  13.409  23.794  0.00  0.00    +0.000 F 
ENDBRANCH  12  19
ENDBRANCH   1  14
BRANCH  11  25
ATOM     25  C   UNL     1       3.584   3.851  16.854  0.00  0.00    +0.000 C 
BRANCH  25  26
ATOM     26  C   UNL     1       5.073   4.079  16.907  0.00  0.00    +0.000 C 
ATOM     27  C   UNL     1       5.685   5.264  16.191  0.00  0.00    +0.000 C 
ATOM     28  C   UNL     1       6.002   3.874  15.729  0.00  0.00    +0.000 C 
ENDBRANCH  25  26
ENDBRANCH  11  25
TORSDOF 4
ENDMDL
MODEL 3
REMARK VINA RESULT:      -8.2      3.824      8.961
REMARK  Name = 
REMARK  5 active torsions:
REMARK  status: ('A' for Active; 'I' for Inactive)
REMARK    1  A    between atoms: C_1  and  C_2
REMARK    2  A    between atoms: C_4  and  C_5
REMARK    3  A    between atoms: N_7  and  C_8
REMARK    4  A    between atoms: N_18  and  C_19
REMARK    5  A    between atoms: C_19  and  C_20
REMARK                            x       y       z     vdW  Elec       q    Type
REMARK                         _______ _______ _______ _____ _____    ______ ____
ROOT
ATOM      1  C   UNL     1       1.694   7.406  20.212  0.00  0.00    +0.000 A 
ATOM      2  C   UNL     1       2.737   7.493  19.300  0.00  0.00    +0.000 A 
ATOM      3  C   UNL     1       3.452   6.338  18.935  0.00  0.00    +0.000 A 
ATOM      4  C   UNL     1       3.097   5.069  19.423  0.00  0.00    +0.000 A 
ATOM      5  C   UNL     1       2.058   4.998  20.357  0.00  0.00    +0.000 A 
ATOM      6  C   UNL     1       1.407   6.167  20.785  0.00  0.00    +0.000 A 
ATOM      7  C   UNL     1       1.637   3.701  20.967  0.00  0.00    +0.000 C 
ATOM      8  C   UNL     1       1.987   2.505  20.118  0.00  0.00    +0.000 C 
ATOM      9  C   UNL     1       3.292   2.604  19.370  0.00  0.00    +0.000 C 
ATOM     10  O   UNL     1       3.849   1.558  19.020  0.00  0.00    +0.000 OA
ATOM     11  N   UNL     1       3.751   3.866  19.008  0.00  0.00    +0.000 N 
ENDROOT
BRANCH   1  14
ATOM     12  C   UNL     1       1.006   9.326  21.655  0.00  0.00    +0.000 C 
ATOM     13  O   UNL     1       1.848   9.226  22.538  0.00  0.00    +0.000 OA
ATOM     14  N   UNL     1       0.852   8.469  20.582  0.00  0.00    +0.000 N 
ATOM     15  H   UNL     1       0.169   8.734  19.882  0.00  0.00    +0.000 HD
BRANCH  12  19
ATOM     16  C   UNL     1      -0.770  13.383  19.262  0.00  0.00    +0.000 C 
ATOM     17  C   UNL     1      -0.737  12.492  20.468  0.00  0.00    +0.000 A 
ATOM     18  C   UNL     1       0.124  11.382  20.533  0.00  0.00    +0.000 A 
ATOM     19  C   UNL     1       0.105  10.529  21.651  0.00  0.00    +0.000 A 
ATOM     20  C   UNL     1      -0.781  10.813  22.700  0.00  0.00    +0.000 A 
ATOM     21  F   UNL     1      -0.851  10.025  23.777  0.00  0.00    +0.000 F 
ATOM     22  C   UNL     1      -1.630  11.915  22.648  0.00  0.00    +0.000 A 
ATOM     23  C   UNL     1      -1.605  12.740  21.533  0.00  0.00    +0.000 A 
ATOM     24  F   UNL     1      -2.444  13.783  21.485  0.00  0.00    +0.000 F 
ENDBRANCH  12  19
ENDBRANCH   1  14
BRANCH  11  25
ATOM     25  C   UNL     1       4.944   3.920  18.163  0.00  0.00    +0.000 C 
BRANCH  25  26
ATOM     26  C   UNL     1       4.647   4.075  16.693  0.00  0.00    +0.000 C 
ATOM     27  C   UNL     1       5.733   3.821  15.669  0.00  0.00    +0.000 C 
ATOM     28  C   UNL     1       5.181   5.204  15.837  0.00  0.00    +0.000 C 
ENDBRANCH  25  26
ENDBRANCH  11  25
TORSDOF 4
ENDMDL
MODEL 4
REMARK VINA RESULT:      -8.1      3.680      9.091
REMARK  Name = 
REMARK  5 active torsions:
REMARK  status: ('A' for Active; 'I' for Inactive)
REMARK    1  A    between atoms: C_1  and  C_2
REMARK    2  A    between atoms: C_4  and  C_5
REMARK    3  A    between atoms: N_7  and  C_8
REMARK    4  A    between atoms: N_18  and  C_19
REMARK    5  A    between atoms: C_19  and  C_20
REMARK                            x       y       z     vdW  Elec       q    Type
REMARK                         _______ _______ _______ _____ _____    ______ ____
ROOT
ATOM      1  C   UNL     1       1.681   7.558  20.240  0.00  0.00    +0.000 A 
ATOM      2  C   UNL     1       2.739   7.611  19.343  0.00  0.00    +0.000 A 
ATOM      3  C   UNL     1       3.408   6.431  18.972  0.00  0.00    +0.000 A 
ATOM      4  C   UNL     1       2.992   5.172  19.440  0.00  0.00    +0.000 A 
ATOM      5  C   UNL     1       1.938   5.136  20.359  0.00  0.00    +0.000 A 
ATOM      6  C   UNL     1       1.333   6.327  20.793  0.00  0.00    +0.000 A 
ATOM      7  C   UNL     1       1.453   3.850  20.947  0.00  0.00    +0.000 C 
ATOM      8  C   UNL     1       1.761   2.652  20.087  0.00  0.00    +0.000 C 
ATOM      9  C   UNL     1       3.080   2.702  19.358  0.00  0.00    +0.000 C 
ATOM     10  O   UNL     1       3.596   1.638  19.002  0.00  0.00    +0.000 OA
ATOM     11  N   UNL     1       3.598   3.948  19.018  0.00  0.00    +0.000 N 
ENDROOT
BRANCH   1  14
ATOM     12  C   UNL     1       1.031   9.463  21.722  0.00  0.00    +0.000 C 
ATOM     13  O   UNL     1       1.826   9.285  22.637  0.00  0.00    +0.000 OA
ATOM     14  N   UNL     1       0.881   8.653  20.613  0.00  0.00    +0.000 N 
ATOM     15  H   UNL     1       0.244   8.979  19.894  0.00  0.00    +0.000 HD
BRANCH  12  19
ATOM     16  C   UNL     1      -2.879  12.041  23.566  0.00  0.00    +0.000 C 
ATOM     17  C   UNL     1      -1.708  11.938  22.633  0.00  0.00    +0.000 A 
ATOM     18  C   UNL     1      -0.928  10.772  22.566  0.00  0.00    +0.000 A 
ATOM     19  C   UNL     1       0.196  10.712  21.724  0.00  0.00    +0.000 A 
ATOM     20  C   UNL     1       0.516  11.835  20.947  0.00  0.00    +0.000 A 
ATOM     21  F   UNL     1       1.582  11.837  20.142  0.00  0.00    +0.000 F 
ATOM     22  C   UNL     1      -0.257  12.992  21.000  0.00  0.00    +0.000 A 
ATOM     23  C   UNL     1      -1.356  13.036  21.845  0.00  0.00    +0.000 A 
ATOM     24  F   UNL     1      -2.077  14.163  21.905  0.00  0.00    +0.000 F 
ENDBRANCH  12  19
ENDBRANCH   1  14
BRANCH  11  25
ATOM     25  C   UNL     1       4.804   3.960  18.189  0.00  0.00    +0.000 C 
BRANCH  25  26
ATOM     26  C   UNL     1       4.534   4.142  16.718  0.00  0.00    +0.000 C 
ATOM     27  C   UNL     1       5.614   3.831  15.703  0.00  0.00    +0.000 C 
ATOM     28  C   UNL     1       5.144   5.243  15.876  0.00  0.00    +0.000 C 
ENDBRANCH  25  26
ENDBRANCH  11  25
TORSDOF 4
ENDMDL
MODEL 5
REMARK VINA RESULT:      -8.0      1.789      3.176
REMARK  Name = 
REMARK  5 active torsions:
REMARK  status: ('A' for Active; 'I' for Inactive)
REMARK    1  A    between atoms: C_1  and  C_2
REMARK    2  A    between atoms: C_4  and  C_5
REMARK    3  A    between atoms: N_7  and  C_8
REMARK    4  A    between atoms: N_18  and  C_19
REMARK    5  A    between atoms: C_19  and  C_20
REMARK                            x       y       z     vdW  Elec       q    Type
REMARK                         _______ _______ _______ _____ _____    ______ ____
ROOT
ATOM      1  C   UNL     1       1.089   9.282  18.302  0.00  0.00    +0.000 A 
ATOM      2  C   UNL     1       1.206  10.143  19.385  0.00  0.00    +0.000 A 
ATOM      3  C   UNL     1       0.151  11.015  19.708  0.00  0.00    +0.000 A 
ATOM      4  C   UNL     1      -1.062  10.996  18.999  0.00  0.00    +0.000 A 
ATOM      5  C   UNL     1      -1.159  10.138  17.898  0.00  0.00    +0.000 A 
ATOM      6  C   UNL     1      -0.068   9.335  17.526  0.00  0.00    +0.000 A 
ATOM      7  C   UNL     1      -2.391  10.079  17.055  0.00  0.00    +0.000 C 
ATOM      8  C   UNL     1      -3.630  10.534  17.782  0.00  0.00    +0.000 C 
ATOM      9  C   UNL     1      -3.429  11.672  18.751  0.00  0.00    +0.000 C 
ATOM     10  O   UNL     1      -4.403  12.371  19.048  0.00  0.00    +0.000 OA
ATOM     11  N   UNL     1      -2.182  11.811  19.354  0.00  0.00    +0.000 N 
ENDROOT
BRANCH   1  14
ATOM     12  C   UNL     1       2.492   7.253  18.707  0.00  0.00    +0.000 C 
ATOM     13  O   UNL     1       2.234   7.063  19.889  0.00  0.00    +0.000 OA
ATOM     14  N   UNL     1       2.034   8.306  17.939  0.00  0.00    +0.000 N 
ATOM     15  H   UNL     1       2.258   8.279  16.950  0.00  0.00    +0.000 HD
BRANCH  12  19
ATOM     16  C   UNL     1       6.816   5.905  16.512  0.00  0.00    +0.000 C 
ATOM     17  C   UNL     1       5.403   5.594  16.908  0.00  0.00    +0.000 A 
ATOM     18  C   UNL     1       4.600   6.546  17.560  0.00  0.00    +0.000 A 
ATOM     19  C   UNL     1       3.295   6.220  17.968  0.00  0.00    +0.000 A 
ATOM     20  C   UNL     1       2.809   4.932  17.704  0.00  0.00    +0.000 A 
ATOM     21  F   UNL     1       1.582   4.565  18.086  0.00  0.00    +0.000 F 
ATOM     22  C   UNL     1       3.593   3.985  17.051  0.00  0.00    +0.000 A 
ATOM     23  C   UNL     1       4.882   4.321  16.665  0.00  0.00    +0.000 A 
ATOM     24  F   UNL     1       5.635   3.394  16.059  0.00  0.00    +0.000 F 
ENDBRANCH  12  19
ENDBRANCH   1  14
BRANCH  11  25
ATOM     25  C   UNL     1      -2.060  12.835  20.393  0.00  0.00    +0.000 C 
BRANCH  25  26
ATOM     26  C   UNL     1      -2.439  12.357  21.771  0.00  0.00    +0.000 C 
ATOM     27  C   UNL     1      -2.208  13.248  22.974  0.00  0.00    +0.000 C 
ATOM     28  C   UNL     1      -1.436  11.970  22.838  0.00  0.00    +0.000 C 
ENDBRANCH  25  26
ENDBRANCH  11  25
TORSDOF 4
ENDMDL
MODEL 6
REMARK VINA RESULT:      -8.0      3.933      8.977
REMARK  Name = 
REMARK  5 active torsions:
REMARK  status: ('A' for Active; 'I' for Inactive)
REMARK    1  A    between atoms: C_1  and  C_2
REMARK    2  A    between atoms: C_4  and  C_5
REMARK    3  A    between atoms: N_7  and  C_8
REMARK    4  A    between atoms: N_18  and  C_19
REMARK    5  A    between atoms: C_19  and  C_20
REMARK                            x       y       z     vdW  Elec       q    Type
REMARK                         _______ _______ _______ _____ _____    ______ ____
ROOT
ATOM      1  C   UNL     1       1.562   7.551  20.118  0.00  0.00    +0.000 A 
ATOM      2  C   UNL     1       1.685   6.326  20.758  0.00  0.00    +0.000 A 
ATOM      3  C   UNL     1       2.574   5.357  20.261  0.00  0.00    +0.000 A 
ATOM      4  C   UNL     1       3.402   5.618  19.155  0.00  0.00    +0.000 A 
ATOM      5  C   UNL     1       3.253   6.849  18.507  0.00  0.00    +0.000 A 
ATOM      6  C   UNL     1       2.299   7.777  18.956  0.00  0.00    +0.000 A 
ATOM      7  C   UNL     1       4.057   7.201  17.297  0.00  0.00    +0.000 C 
ATOM      8  C   UNL     1       5.352   6.437  17.203  0.00  0.00    +0.000 C 
ATOM      9  C   UNL     1       5.298   5.010  17.688  0.00  0.00    +0.000 C 
ATOM     10  O   UNL     1       6.141   4.213  17.263  0.00  0.00    +0.000 OA
ATOM     11  N   UNL     1       4.374   4.685  18.676  0.00  0.00    +0.000 N 
ENDROOT
BRANCH   1  14
ATOM     12  C   UNL     1       1.030   9.452  21.651  0.00  0.00    +0.000 C 
ATOM     13  O   UNL     1       1.928   9.305  22.472  0.00  0.00    +0.000 OA
ATOM     14  N   UNL     1       0.779   8.627  20.572  0.00  0.00    +0.000 N 
ATOM     15  H   UNL     1       0.057   8.929  19.927  0.00  0.00    +0.000 HD
BRANCH  12  19
ATOM     16  C   UNL     1      -0.435  13.850  19.691  0.00  0.00    +0.000 C 
ATOM     17  C   UNL     1      -0.523  12.809  20.767  0.00  0.00    +0.000 A 
ATOM     18  C   UNL     1       0.298  11.668  20.749  0.00  0.00    +0.000 A 
ATOM     19  C   UNL     1       0.166  10.678  21.739  0.00  0.00    +0.000 A 
ATOM     20  C   UNL     1      -0.792  10.856  22.746  0.00  0.00    +0.000 A 
ATOM     21  F   UNL     1      -0.970   9.939  23.701  0.00  0.00    +0.000 F 
ATOM     22  C   UNL     1      -1.604  11.987  22.777  0.00  0.00    +0.000 A 
ATOM     23  C   UNL     1      -1.467  12.949  21.787  0.00  0.00    +0.000 A 
ATOM     24  F   UNL     1      -2.270  14.020  21.814  0.00  0.00    +0.000 F 
ENDBRANCH  12  19
ENDBRANCH   1  14
BRANCH  11  25
ATOM     25  C   UNL     1       4.441   3.330  19.225  0.00  0.00    +0.000 C 
BRANCH  25  26
ATOM     26  C   UNL     1       3.628   2.319  18.458  0.00  0.00    +0.000 C 
ATOM     27  C   UNL     1       2.522   2.779  17.532  0.00  0.00    +0.000 C 
ATOM     28  C   UNL     1       2.180   1.992  18.762  0.00  0.00    +0.000 C 
ENDBRANCH  25  26
ENDBRANCH  11  25
TORSDOF 4
ENDMDL
MODEL 7
REMARK VINA RESULT:      -8.0      3.740      9.116
REMARK  Name = 
REMARK  5 active torsions:
REMARK  status: ('A' for Active; 'I' for Inactive)
REMARK    1  A    between atoms: C_1  and  C_2
REMARK    2  A    between atoms: C_4  and  C_5
REMARK    3  A    between atoms: N_7  and  C_8
REMARK    4  A    between atoms: N_18  and  C_19
REMARK    5  A    between atoms: C_19  and  C_20
REMARK                            x       y       z     vdW  Elec       q    Type
REMARK                         _______ _______ _______ _____ _____    ______ ____
ROOT
ATOM      1  C   UNL     1       1.501   7.724  20.136  0.00  0.00    +0.000 A 
ATOM      2  C   UNL     1       1.603   6.509  20.798  0.00  0.00    +0.000 A 
ATOM      3  C   UNL     1       2.465   5.510  20.310  0.00  0.00    +0.000 A 
ATOM      4  C   UNL     1       3.286   5.731  19.192  0.00  0.00    +0.000 A 
ATOM      5  C   UNL     1       3.158   6.952  18.521  0.00  0.00    +0.000 A 
ATOM      6  C   UNL     1       2.230   7.910  18.962  0.00  0.00    +0.000 A 
ATOM      7  C   UNL     1       3.956   7.263  17.297  0.00  0.00    +0.000 C 
ATOM      8  C   UNL     1       5.233   6.468  17.203  0.00  0.00    +0.000 C 
ATOM      9  C   UNL     1       5.152   5.053  17.717  0.00  0.00    +0.000 C 
ATOM     10  O   UNL     1       5.972   4.228  17.299  0.00  0.00    +0.000 OA
ATOM     11  N   UNL     1       4.233   4.767  18.721  0.00  0.00    +0.000 N 
ENDROOT
BRANCH   1  14
ATOM     12  C   UNL     1       0.958   9.588  21.709  0.00  0.00    +0.000 C 
ATOM     13  O   UNL     1       1.778   9.354  22.588  0.00  0.00    +0.000 OA
ATOM     14  N   UNL     1       0.747   8.825  20.576  0.00  0.00    +0.000 N 
ATOM     15  H   UNL     1       0.097   9.197  19.892  0.00  0.00    +0.000 HD
BRANCH  12  19
ATOM     16  C   UNL     1      -2.953  12.125  23.606  0.00  0.00    +0.000 C 
ATOM     17  C   UNL     1      -1.745  12.066  22.719  0.00  0.00    +0.000 A 
ATOM     18  C   UNL     1      -0.997  10.884  22.582  0.00  0.00    +0.000 A 
ATOM     19  C   UNL     1       0.162  10.860  21.786  0.00  0.00    +0.000 A 
ATOM     20  C   UNL     1       0.548  12.034  21.125  0.00  0.00    +0.000 A 
ATOM     21  F   UNL     1       1.650  12.071  20.369  0.00  0.00    +0.000 F 
ATOM     22  C   UNL     1      -0.191  13.208  21.247  0.00  0.00    +0.000 A 
ATOM     23  C   UNL     1      -1.326  13.215  22.046  0.00  0.00    +0.000 A 
ATOM     24  F   UNL     1      -2.015  14.356  22.174  0.00  0.00    +0.000 F 
ENDBRANCH  12  19
ENDBRANCH   1  14
BRANCH  11  25
ATOM     25  C   UNL     1       4.275   3.422  19.295  0.00  0.00    +0.000 C 
BRANCH  25  26
ATOM     26  C   UNL     1       3.471   2.404  18.528  0.00  0.00    +0.000 C 
ATOM     27  C   UNL     1       2.320   2.849  17.651  0.00  0.00    +0.000 C 
ATOM     28  C   UNL     1       2.046   2.020  18.869  0.00  0.00    +0.000 C 
ENDBRANCH  25  26
ENDBRANCH  11  25
TORSDOF 4
ENDMDL
MODEL 8
REMARK VINA RESULT:      -7.9      3.703      9.201
REMARK  Name = 
REMARK  5 active torsions:
REMARK  status: ('A' for Active; 'I' for Inactive)
REMARK    1  A    between atoms: C_1  and  C_2
REMARK    2  A    between atoms: C_4  and  C_5
REMARK    3  A    between atoms: N_7  and  C_8
REMARK    4  A    between atoms: N_18  and  C_19
REMARK    5  A    between atoms: C_19  and  C_20
REMARK                            x       y       z     vdW  Elec       q    Type
REMARK                         _______ _______ _______ _____ _____    ______ ____
ROOT
ATOM      1  C   UNL     1       1.536   8.216  19.882  0.00  0.00    +0.000 A 
ATOM      2  C   UNL     1       2.252   8.278  18.694  0.00  0.00    +0.000 A 
ATOM      3  C   UNL     1       2.953   7.150  18.234  0.00  0.00    +0.000 A 
ATOM      4  C   UNL     1       2.899   5.922  18.917  0.00  0.00    +0.000 A 
ATOM      5  C   UNL     1       2.192   5.879  20.123  0.00  0.00    +0.000 A 
ATOM      6  C   UNL     1       1.568   7.034  20.622  0.00  0.00    +0.000 A 
ATOM      7  C   UNL     1       2.114   4.632  20.944  0.00  0.00    +0.000 C 
ATOM      8  C   UNL     1       2.332   3.378  20.138  0.00  0.00    +0.000 C 
ATOM      9  C   UNL     1       3.343   3.491  19.026  0.00  0.00    +0.000 C 
ATOM     10  O   UNL     1       3.887   2.460  18.618  0.00  0.00    +0.000 OA
ATOM     11  N   UNL     1       3.533   4.735  18.432  0.00  0.00    +0.000 N 
ENDROOT
BRANCH   1  14
ATOM     12  C   UNL     1       0.852   9.885  21.612  0.00  0.00    +0.000 C 
ATOM     13  O   UNL     1       1.628   9.576  22.507  0.00  0.00    +0.000 OA
ATOM     14  N   UNL     1       0.726   9.245  20.394  0.00  0.00    +0.000 N 
ATOM     15  H   UNL     1       0.104   9.673  19.717  0.00  0.00    +0.000 HD
BRANCH  12  19
ATOM     16  C   UNL     1      -3.126  12.157  23.698  0.00  0.00    +0.000 C 
ATOM     17  C   UNL     1      -1.923  12.197  22.801  0.00  0.00    +0.000 A 
ATOM     18  C   UNL     1      -1.138  11.053  22.581  0.00  0.00    +0.000 A 
ATOM     19  C   UNL     1       0.014  11.121  21.778  0.00  0.00    +0.000 A 
ATOM     20  C   UNL     1       0.357  12.349  21.195  0.00  0.00    +0.000 A 
ATOM     21  F   UNL     1       1.450  12.473  20.438  0.00  0.00    +0.000 F 
ATOM     22  C   UNL     1      -0.421  13.486  21.400  0.00  0.00    +0.000 A 
ATOM     23  C   UNL     1      -1.548  13.403  22.204  0.00  0.00    +0.000 A 
ATOM     24  F   UNL     1      -2.274  14.508  22.413  0.00  0.00    +0.000 F 
ENDBRANCH  12  19
ENDBRANCH   1  14
BRANCH  11  25
ATOM     25  C   UNL     1       4.415   4.785  17.265  0.00  0.00    +0.000 C 
BRANCH  25  26
ATOM     26  C   UNL     1       5.858   5.064  17.600  0.00  0.00    +0.000 C 
ATOM     27  C   UNL     1       6.675   5.991  16.726  0.00  0.00    +0.000 C 
ATOM     28  C   UNL     1       7.030   4.537  16.799  0.00  0.00    +0.000 C 
ENDBRANCH  25  26
ENDBRANCH  11  25
TORSDOF 4
ENDMDL
MODEL 9
REMARK VINA RESULT:      -7.9      3.535      8.882
REMARK  Name = 
REMARK  5 active torsions:
REMARK  status: ('A' for Active; 'I' for Inactive)
REMARK    1  A    between atoms: C_1  and  C_2
REMARK    2  A    between atoms: C_4  and  C_5
REMARK    3  A    between atoms: N_7  and  C_8
REMARK    4  A    between atoms: N_18  and  C_19
REMARK    5  A    between atoms: C_19  and  C_20
REMARK                            x       y       z     vdW  Elec       q    Type
REMARK                         _______ _______ _______ _____ _____    ______ ____
ROOT
ATOM      1  C   UNL     1       1.897   7.972  19.732  0.00  0.00    +0.000 A 
ATOM      2  C   UNL     1       2.316   7.748  18.428  0.00  0.00    +0.000 A 
ATOM      3  C   UNL     1       2.596   6.440  17.993  0.00  0.00    +0.000 A 
ATOM      4  C   UNL     1       2.401   5.329  18.831  0.00  0.00    +0.000 A 
ATOM      5  C   UNL     1       1.998   5.571  20.149  0.00  0.00    +0.000 A 
ATOM      6  C   UNL     1       1.807   6.886  20.603  0.00  0.00    +0.000 A 
ATOM      7  C   UNL     1       1.807   4.458  21.128  0.00  0.00    +0.000 C 
ATOM      8  C   UNL     1       1.521   3.133  20.471  0.00  0.00    +0.000 C 
ATOM      9  C   UNL     1       2.248   2.884  19.174  0.00  0.00    +0.000 C 
ATOM     10  O   UNL     1       2.415   1.716  18.809  0.00  0.00    +0.000 OA
ATOM     11  N   UNL     1       2.597   3.982  18.393  0.00  0.00    +0.000 N 
ENDROOT
BRANCH   1  14
ATOM     12  C   UNL     1       0.583  10.097  19.717  0.00  0.00    +0.000 C 
ATOM     13  O   UNL     1       0.040   9.990  18.624  0.00  0.00    +0.000 OA
ATOM     14  N   UNL     1       1.502   9.217  20.253  0.00  0.00    +0.000 N 
ATOM     15  H   UNL     1       1.795   9.390  21.208  0.00  0.00    +0.000 HD
BRANCH  12  19
ATOM     16  C   UNL     1      -2.416  11.799  23.383  0.00  0.00    +0.000 C 
ATOM     17  C   UNL     1      -1.306  12.021  22.399  0.00  0.00    +0.000 A 
ATOM     18  C   UNL     1      -0.912  11.013  21.503  0.00  0.00    +0.000 A 
ATOM     19  C   UNL     1       0.164  11.221  20.622  0.00  0.00    +0.000 A 
ATOM     20  C   UNL     1       0.828  12.455  20.651  0.00  0.00    +0.000 A 
ATOM     21  F   UNL     1       1.868  12.699  19.847  0.00  0.00    +0.000 F 
ATOM     22  C   UNL     1       0.440  13.463  21.529  0.00  0.00    +0.000 A 
ATOM     23  C   UNL     1      -0.618  13.237  22.398  0.00  0.00    +0.000 A 
ATOM     24  F   UNL     1      -0.966  14.205  23.254  0.00  0.00    +0.000 F 
ENDBRANCH  12  19
ENDBRANCH   1  14
BRANCH  11  25
ATOM     25  C   UNL     1       3.174   3.702  17.078  0.00  0.00    +0.000 C 
BRANCH  25  26
ATOM     26  C   UNL     1       4.675   3.568  17.084  0.00  0.00    +0.000 C 
ATOM     27  C   UNL     1       5.548   4.804  17.048  0.00  0.00    +0.000 C 
ATOM     28  C   UNL     1       5.556   3.857  15.887  0.00  0.00    +0.000 C 
ENDBRANCH  25  26
ENDBRANCH  11  25
TORSDOF 4
ENDMDL
