MODEL 1
REMARK VINA RESULT:      -8.1      0.000      0.000
REMARK  Name = 
REMARK  5 active torsions:
REMARK  status: ('A' for Active; 'I' for Inactive)
REMARK    1  A    between atoms: C_1  and  C_2
REMARK    2  A    between atoms: C_7  and  C_8
REMARK    3  A    between atoms: C_14  and  C_15
REMARK    4  A    between atoms: N_17  and  C_18
REMARK    5  A    between atoms: C_18  and  C_19
REMARK                            x       y       z     vdW  Elec       q    Type
REMARK                         _______ _______ _______ _____ _____    ______ ____
ROOT
ATOM      1  C   UNL     1       4.174   1.763  20.187  0.00  0.00    +0.000 C 
ATOM      2  C   UNL     1       3.234   2.864  20.513  0.00  0.00    +0.000 A 
ATOM      3  N   UNL     1       2.198   2.600  21.327  0.00  0.00    +0.000 NA
ATOM      4  O   UNL     1       1.513   3.793  21.453  0.00  0.00    +0.000 OA
ATOM      5  C   UNL     1       2.117   4.765  20.734  0.00  0.00    +0.000 A 
ATOM      6  N   UNL     1       1.636   6.024  20.647  0.00  0.00    +0.000 NA
ATOM      7  C   UNL     1       2.385   6.821  19.843  0.00  0.00    +0.000 A 
ATOM      8  C   UNL     1       3.567   6.436  19.204  0.00  0.00    +0.000 A 
ATOM      9  C   UNL     1       3.996   5.108  19.297  0.00  0.00    +0.000 A 
ATOM     10  C   UNL     1       3.252   4.231  20.100  0.00  0.00    +0.000 A 
ENDROOT
BRANCH   7  11
ATOM     11  C   UNL     1       1.755   8.109  19.561  0.00  0.00    +0.000 A 
ATOM     12  C   UNL     1       0.981   8.975  20.312  0.00  0.00    +0.000 A 
ATOM     13  C   UNL     1       0.546   9.994  19.429  0.00  0.00    +0.000 A 
ATOM     14  C   UNL     1       1.113   9.708  18.211  0.00  0.00    +0.000 A 
ATOM     15  O   UNL     1       1.850   8.571  18.281  0.00  0.00    +0.000 OA
ENDBRANCH   7  11
BRANCH   9  16
ATOM     16  C   UNL     1       5.063   4.615  18.391  0.00  0.00    +0.000 C 
ATOM     17  O   UNL     1       6.178   4.430  18.857  0.00  0.00    +0.000 OA
ATOM     18  N   UNL     1       4.770   4.313  17.071  0.00  0.00    +0.000 N 
ATOM     19  H   UNL     1       3.898   4.548  16.605  0.00  0.00    +0.000 HD
BRANCH  18  20
ATOM     20  C   UNL     1       5.827   3.667  16.325  0.00  0.00    +0.000 C 
BRANCH  20  21
ATOM     21  C   UNL     1       6.554   4.465  15.304  0.00  0.00    +0.000 A 
ATOM     22  N   UNL     1       7.597   5.261  15.424  0.00  0.00    +0.000 NA
ATOM     23  N   UNL     1       8.059   5.547  14.148  0.00  0.00    +0.000 NA
ATOM     24  C   UNL     1       7.281   4.924  13.284  0.00  0.00    +0.000 A 
ATOM     25  N   UNL     1       6.273   4.328  13.960  0.00  0.00    +0.000 N 
ATOM     26  C   UNL     1       5.031   3.797  13.421  0.00  0.00    +0.000 C 
ATOM     27  C   UNL     1       4.954   2.792  12.274  0.00  0.00    +0.000 C 
ATOM     28  C   UNL     1       5.870   2.932  11.071  0.00  0.00    +0.000 C 
ATOM     29  C   UNL     1       7.311   3.309  11.391  0.00  0.00    +0.000 C 
ATOM     30  C   UNL     1       7.479   4.778  11.814  0.00  0.00    +0.000 C 
ENDBRANCH  20  21
ENDBRANCH  18  20
ENDBRANCH   9  16
TORSDOF 4
ENDMDL
MODEL 2
REMARK VINA RESULT:      -7.8      4.483      7.125
REMARK  Name = 
REMARK  5 active torsions:
REMARK  status: ('A' for Active; 'I' for Inactive)
REMARK    1  A    between atoms: C_1  and  C_2
REMARK    2  A    between atoms: C_7  and  C_8
REMARK    3  A    between atoms: C_14  and  C_15
REMARK    4  A    between atoms: N_17  and  C_18
REMARK    5  A    between atoms: C_18  and  C_19
REMARK                            x       y       z     vdW  Elec       q    Type
REMARK                         _______ _______ _______ _____ _____    ______ ____
ROOT
ATOM      1  C   UNL     1      -0.296   8.371  21.521  0.00  0.00    +0.000 C 
ATOM      2  C   UNL     1      -0.049   9.834  21.525  0.00  0.00    +0.000 A 
ATOM      3  N   UNL     1      -0.560  10.567  22.529  0.00  0.00    +0.000 NA
ATOM      4  O   UNL     1      -0.169  11.866  22.275  0.00  0.00    +0.000 OA
ATOM      5  C   UNL     1       0.568  11.928  21.144  0.00  0.00    +0.000 A 
ATOM      6  N   UNL     1       1.049  13.084  20.640  0.00  0.00    +0.000 NA
ATOM      7  C   UNL     1       1.731  12.912  19.479  0.00  0.00    +0.000 A 
ATOM      8  C   UNL     1       1.982  11.679  18.869  0.00  0.00    +0.000 A 
ATOM      9  C   UNL     1       1.425  10.518  19.415  0.00  0.00    +0.000 A 
ATOM     10  C   UNL     1       0.694  10.635  20.606  0.00  0.00    +0.000 A 
ENDROOT
BRANCH   7  11
ATOM     11  C   UNL     1       2.058  14.170  18.810  0.00  0.00    +0.000 A 
ATOM     12  C   UNL     1       3.104  14.574  18.002  0.00  0.00    +0.000 A 
ATOM     13  C   UNL     1       2.932  15.964  17.788  0.00  0.00    +0.000 A 
ATOM     14  C   UNL     1       1.776  16.309  18.444  0.00  0.00    +0.000 A 
ATOM     15  O   UNL     1       1.237  15.229  19.064  0.00  0.00    +0.000 OA
ENDBRANCH   7  11
BRANCH   9  16
ATOM     16  C   UNL     1       1.425   9.261  18.624  0.00  0.00    +0.000 C 
ATOM     17  O   UNL     1       0.769   9.227  17.593  0.00  0.00    +0.000 OA
ATOM     18  N   UNL     1       2.208   8.190  19.022  0.00  0.00    +0.000 N 
ATOM     19  H   UNL     1       2.682   8.123  19.918  0.00  0.00    +0.000 HD
BRANCH  18  20
ATOM     20  C   UNL     1       2.283   7.087  18.090  0.00  0.00    +0.000 C 
BRANCH  20  21
ATOM     21  C   UNL     1       3.247   5.993  18.374  0.00  0.00    +0.000 A 
ATOM     22  N   UNL     1       4.564   5.989  18.364  0.00  0.00    +0.000 NA
ATOM     23  N   UNL     1       4.988   4.812  18.962  0.00  0.00    +0.000 NA
ATOM     24  C   UNL     1       3.918   4.125  19.314  0.00  0.00    +0.000 A 
ATOM     25  N   UNL     1       2.820   4.778  18.871  0.00  0.00    +0.000 N 
ATOM     26  C   UNL     1       1.465   4.264  18.756  0.00  0.00    +0.000 C 
ATOM     27  C   UNL     1       0.699   3.600  19.898  0.00  0.00    +0.000 C 
ATOM     28  C   UNL     1       1.404   2.629  20.829  0.00  0.00    +0.000 C 
ATOM     29  C   UNL     1       2.806   3.042  21.258  0.00  0.00    +0.000 C 
ATOM     30  C   UNL     1       3.856   2.890  20.144  0.00  0.00    +0.000 C 
ENDBRANCH  20  21
ENDBRANCH  18  20
ENDBRANCH   9  16
TORSDOF 4
ENDMDL
MODEL 3
REMARK VINA RESULT:      -7.8      3.790      6.764
REMARK  Name = 
REMARK  5 active torsions:
REMARK  status: ('A' for Active; 'I' for Inactive)
REMARK    1  A    between atoms: C_1  and  C_2
REMARK    2  A    between atoms: C_7  and  C_8
REMARK    3  A    between atoms: C_14  and  C_15
REMARK    4  A    between atoms: N_17  and  C_18
REMARK    5  A    between atoms: C_18  and  C_19
REMARK                            x       y       z     vdW  Elec       q    Type
REMARK                         _______ _______ _______ _____ _____    ______ ____
ROOT
ATOM      1  C   UNL     1      -0.296   8.523  21.938  0.00  0.00    +0.000 C 
ATOM      2  C   UNL     1      -0.277  10.006  21.990  0.00  0.00    +0.000 A 
ATOM      3  N   UNL     1      -0.765  10.613  23.084  0.00  0.00    +0.000 NA
ATOM      4  O   UNL     1      -0.612  11.967  22.855  0.00  0.00    +0.000 OA
ATOM      5  C   UNL     1      -0.042  12.183  21.649  0.00  0.00    +0.000 A 
ATOM      6  N   UNL     1       0.189  13.417  21.153  0.00  0.00    +0.000 NA
ATOM      7  C   UNL     1       0.738  13.394  19.912  0.00  0.00    +0.000 A 
ATOM      8  C   UNL     1       1.097  12.238  19.213  0.00  0.00    +0.000 A 
ATOM      9  C   UNL     1       0.797  10.985  19.758  0.00  0.00    +0.000 A 
ATOM     10  C   UNL     1       0.212  10.945  21.032  0.00  0.00    +0.000 A 
ENDROOT
BRANCH   7  11
ATOM     11  C   UNL     1       0.782  14.710  19.277  0.00  0.00    +0.000 A 
ATOM     12  C   UNL     1       1.809  15.572  18.943  0.00  0.00    +0.000 A 
ATOM     13  C   UNL     1       1.200  16.765  18.483  0.00  0.00    +0.000 A 
ATOM     14  C   UNL     1      -0.155  16.541  18.528  0.00  0.00    +0.000 A 
ATOM     15  O   UNL     1      -0.418  15.298  19.005  0.00  0.00    +0.000 OA
ENDBRANCH   7  11
BRANCH   9  16
ATOM     16  C   UNL     1       0.891   9.772  18.908  0.00  0.00    +0.000 C 
ATOM     17  O   UNL     1       0.139   9.680  17.948  0.00  0.00    +0.000 OA
ATOM     18  N   UNL     1       1.856   8.813  19.169  0.00  0.00    +0.000 N 
ATOM     19  H   UNL     1       2.428   8.784  20.007  0.00  0.00    +0.000 HD
BRANCH  18  20
ATOM     20  C   UNL     1       1.986   7.768  18.179  0.00  0.00    +0.000 C 
BRANCH  20  21
ATOM     21  C   UNL     1       2.689   6.518  18.566  0.00  0.00    +0.000 A 
ATOM     22  N   UNL     1       2.353   5.580  19.428  0.00  0.00    +0.000 NA
ATOM     23  N   UNL     1       3.196   4.497  19.223  0.00  0.00    +0.000 NA
ATOM     24  C   UNL     1       4.028   4.807  18.247  0.00  0.00    +0.000 A 
ATOM     25  N   UNL     1       3.812   6.092  17.885  0.00  0.00    +0.000 N 
ATOM     26  C   UNL     1       4.671   6.947  17.083  0.00  0.00    +0.000 C 
ATOM     27  C   UNL     1       5.208   6.573  15.704  0.00  0.00    +0.000 C 
ATOM     28  C   UNL     1       5.704   5.164  15.433  0.00  0.00    +0.000 C 
ATOM     29  C   UNL     1       4.850   4.049  16.024  0.00  0.00    +0.000 C 
ATOM     30  C   UNL     1       4.993   3.912  17.549  0.00  0.00    +0.000 C 
ENDBRANCH  20  21
ENDBRANCH  18  20
ENDBRANCH   9  16
TORSDOF 4
ENDMDL
MODEL 4
REMARK VINA RESULT:      -7.7      3.257      6.115
REMARK  Name = 
REMARK  5 active torsions:
REMARK  status: ('A' for Active; 'I' for Inactive)
REMARK    1  A    between atoms: C_1  and  C_2
REMARK    2  A    between atoms: C_7  and  C_8
REMARK    3  A    between atoms: C_14  and  C_15
REMARK    4  A    between atoms: N_17  and  C_18
REMARK    5  A    between atoms: C_18  and  C_19
REMARK                            x       y       z     vdW  Elec       q    Type
REMARK                         _______ _______ _______ _____ _____    ______ ____
ROOT
ATOM      1  C   UNL     1       1.886   9.448  22.469  0.00  0.00    +0.000 C 
ATOM      2  C   UNL     1       0.703  10.070  21.824  0.00  0.00    +0.000 A 
ATOM      3  N   UNL     1      -0.131  10.799  22.584  0.00  0.00    +0.000 NA
ATOM      4  O   UNL     1      -1.116  11.248  21.727  0.00  0.00    +0.000 OA
ATOM      5  C   UNL     1      -0.890  10.806  20.471  0.00  0.00    +0.000 A 
ATOM      6  N   UNL     1      -1.720  11.065  19.437  0.00  0.00    +0.000 NA
ATOM      7  C   UNL     1      -1.312  10.492  18.276  0.00  0.00    +0.000 A 
ATOM      8  C   UNL     1      -0.135   9.757  18.111  0.00  0.00    +0.000 A 
ATOM      9  C   UNL     1       0.666   9.486  19.225  0.00  0.00    +0.000 A 
ATOM     10  C   UNL     1       0.287  10.037  20.458  0.00  0.00    +0.000 A 
ENDROOT
BRANCH   7  11
ATOM     11  C   UNL     1      -2.311  10.574  17.212  0.00  0.00    +0.000 A 
ATOM     12  C   UNL     1      -2.395  10.037  15.941  0.00  0.00    +0.000 A 
ATOM     13  C   UNL     1      -3.545  10.605  15.340  0.00  0.00    +0.000 A 
ATOM     14  C   UNL     1      -4.109  11.418  16.292  0.00  0.00    +0.000 A 
ATOM     15  O   UNL     1      -3.372  11.403  17.431  0.00  0.00    +0.000 OA
ENDBRANCH   7  11
BRANCH   9  16
ATOM     16  C   UNL     1       1.740   8.466  19.128  0.00  0.00    +0.000 C 
ATOM     17  O   UNL     1       2.676   8.683  18.371  0.00  0.00    +0.000 OA
ATOM     18  N   UNL     1       1.702   7.337  19.930  0.00  0.00    +0.000 N 
ATOM     19  H   UNL     1       0.904   7.055  20.490  0.00  0.00    +0.000 HD
BRANCH  18  20
ATOM     20  C   UNL     1       2.882   6.502  19.895  0.00  0.00    +0.000 C 
BRANCH  20  21
ATOM     21  C   UNL     1       2.942   5.415  18.884  0.00  0.00    +0.000 A 
ATOM     22  N   UNL     1       1.976   4.753  18.281  0.00  0.00    +0.000 NA
ATOM     23  N   UNL     1       2.542   4.042  17.233  0.00  0.00    +0.000 NA
ATOM     24  C   UNL     1       3.839   4.283  17.230  0.00  0.00    +0.000 A 
ATOM     25  N   UNL     1       4.140   5.047  18.304  0.00  0.00    +0.000 N 
ATOM     26  C   UNL     1       5.452   5.305  18.874  0.00  0.00    +0.000 C 
ATOM     27  C   UNL     1       6.647   5.824  18.078  0.00  0.00    +0.000 C 
ATOM     28  C   UNL     1       6.928   5.291  16.685  0.00  0.00    +0.000 C 
ATOM     29  C   UNL     1       5.701   5.105  15.799  0.00  0.00    +0.000 C 
ATOM     30  C   UNL     1       4.839   3.895  16.196  0.00  0.00    +0.000 C 
ENDBRANCH  20  21
ENDBRANCH  18  20
ENDBRANCH   9  16
TORSDOF 4
ENDMDL
MODEL 5
REMARK VINA RESULT:      -7.7      2.811      8.499
REMARK  Name = 
REMARK  5 active torsions:
REMARK  status: ('A' for Active; 'I' for Inactive)
REMARK    1  A    between atoms: C_1  and  C_2
REMARK    2  A    between atoms: C_7  and  C_8
REMARK    3  A    between atoms: C_14  and  C_15
REMARK    4  A    between atoms: N_17  and  C_18
REMARK    5  A    between atoms: C_18  and  C_19
REMARK                            x       y       z     vdW  Elec       q    Type
REMARK                         _______ _______ _______ _____ _____    ______ ____
ROOT
ATOM      1  C   UNL     1       1.084   4.511  20.688  0.00  0.00    +0.000 C 
ATOM      2  C   UNL     1       2.013   3.853  19.737  0.00  0.00    +0.000 A 
ATOM      3  N   UNL     1       2.212   2.529  19.849  0.00  0.00    +0.000 NA
ATOM      4  O   UNL     1       3.103   2.203  18.845  0.00  0.00    +0.000 OA
ATOM      5  C   UNL     1       3.439   3.300  18.134  0.00  0.00    +0.000 A 
ATOM      6  N   UNL     1       4.325   3.275  17.115  0.00  0.00    +0.000 NA
ATOM      7  C   UNL     1       4.536   4.499  16.567  0.00  0.00    +0.000 A 
ATOM      8  C   UNL     1       3.881   5.674  16.948  0.00  0.00    +0.000 A 
ATOM      9  C   UNL     1       3.003   5.648  18.036  0.00  0.00    +0.000 A 
ATOM     10  C   UNL     1       2.758   4.414  18.655  0.00  0.00    +0.000 A 
ENDROOT
BRANCH   7  11
ATOM     11  C   UNL     1       5.652   4.524  15.623  0.00  0.00    +0.000 A 
ATOM     12  C   UNL     1       6.913   5.088  15.655  0.00  0.00    +0.000 A 
ATOM     13  C   UNL     1       7.476   4.886  14.371  0.00  0.00    +0.000 A 
ATOM     14  C   UNL     1       6.542   4.180  13.653  0.00  0.00    +0.000 A 
ATOM     15  O   UNL     1       5.435   3.952  14.404  0.00  0.00    +0.000 OA
ENDBRANCH   7  11
BRANCH   9  16
ATOM     16  C   UNL     1       2.541   6.924  18.638  0.00  0.00    +0.000 C 
ATOM     17  O   UNL     1       2.637   7.060  19.849  0.00  0.00    +0.000 OA
ATOM     18  N   UNL     1       2.078   7.948  17.827  0.00  0.00    +0.000 N 
ATOM     19  H   UNL     1       1.875   7.852  16.837  0.00  0.00    +0.000 HD
BRANCH  18  20
ATOM     20  C   UNL     1       1.829   9.209  18.489  0.00  0.00    +0.000 C 
BRANCH  20  21
ATOM     21  C   UNL     1       0.539   9.897  18.224  0.00  0.00    +0.000 A 
ATOM     22  N   UNL     1      -0.513   9.508  17.534  0.00  0.00    +0.000 NA
ATOM     23  N   UNL     1      -1.552  10.382  17.818  0.00  0.00    +0.000 NA
ATOM     24  C   UNL     1      -1.103  11.286  18.668  0.00  0.00    +0.000 A 
ATOM     25  N   UNL     1       0.219  11.080  18.862  0.00  0.00    +0.000 N 
ATOM     26  C   UNL     1       1.184  11.988  19.460  0.00  0.00    +0.000 C 
ATOM     27  C   UNL     1       1.011  12.642  20.828  0.00  0.00    +0.000 C 
ATOM     28  C   UNL     1      -0.343  13.181  21.253  0.00  0.00    +0.000 C 
ATOM     29  C   UNL     1      -1.534  12.300  20.899  0.00  0.00    +0.000 C 
ATOM     30  C   UNL     1      -1.885  12.320  19.402  0.00  0.00    +0.000 C 
ENDBRANCH  20  21
ENDBRANCH  18  20
ENDBRANCH   9  16
TORSDOF 4
ENDMDL
MODEL 6
REMARK VINA RESULT:      -7.6      4.251      6.939
REMARK  Name = 
REMARK  5 active torsions:
REMARK  status: ('A' for Active; 'I' for Inactive)
REMARK    1  A    between atoms: C_1  and  C_2
REMARK    2  A    between atoms: C_7  and  C_8
REMARK    3  A    between atoms: C_14  and  C_15
REMARK    4  A    between atoms: N_17  and  C_18
REMARK    5  A    between atoms: C_18  and  C_19
REMARK                            x       y       z     vdW  Elec       q    Type
REMARK                         _______ _______ _______ _____ _____    ______ ____
ROOT
ATOM      1  C   UNL     1      -0.226   8.332  21.716  0.00  0.00    +0.000 C 
ATOM      2  C   UNL     1      -0.166   9.810  21.828  0.00  0.00    +0.000 A 
ATOM      3  N   UNL     1      -0.624  10.385  22.953  0.00  0.00    +0.000 NA
ATOM      4  O   UNL     1      -0.438  11.742  22.776  0.00  0.00    +0.000 OA
ATOM      5  C   UNL     1       0.124  11.992  21.574  0.00  0.00    +0.000 A 
ATOM      6  N   UNL     1       0.382  13.239  21.125  0.00  0.00    +0.000 NA
ATOM      7  C   UNL     1       0.915  13.252  19.877  0.00  0.00    +0.000 A 
ATOM      8  C   UNL     1       1.234  12.117  19.126  0.00  0.00    +0.000 A 
ATOM      9  C   UNL     1       0.907  10.851  19.624  0.00  0.00    +0.000 A 
ATOM     10  C   UNL     1       0.337  10.774  20.903  0.00  0.00    +0.000 A 
ENDROOT
BRANCH   7  11
ATOM     11  C   UNL     1       0.987  14.592  19.296  0.00  0.00    +0.000 A 
ATOM     12  C   UNL     1       2.030  15.458  19.027  0.00  0.00    +0.000 A 
ATOM     13  C   UNL     1       1.442  16.673  18.595  0.00  0.00    +0.000 A 
ATOM     14  C   UNL     1       0.086  16.457  18.590  0.00  0.00    +0.000 A 
ATOM     15  O   UNL     1      -0.200  15.199  19.009  0.00  0.00    +0.000 OA
ENDBRANCH   7  11
BRANCH   9  16
ATOM     16  C   UNL     1       0.957   9.672  18.724  0.00  0.00    +0.000 C 
ATOM     17  O   UNL     1       0.140   9.602  17.818  0.00  0.00    +0.000 OA
ATOM     18  N   UNL     1       1.953   8.721  18.879  0.00  0.00    +0.000 N 
ATOM     19  H   UNL     1       2.584   8.672  19.673  0.00  0.00    +0.000 HD
BRANCH  18  20
ATOM     20  C   UNL     1       2.027   7.716  17.843  0.00  0.00    +0.000 C 
BRANCH  20  21
ATOM     21  C   UNL     1       3.207   6.813  17.825  0.00  0.00    +0.000 A 
ATOM     22  N   UNL     1       4.494   7.088  17.767  0.00  0.00    +0.000 NA
ATOM     23  N   UNL     1       5.189   5.922  18.054  0.00  0.00    +0.000 NA
ATOM     24  C   UNL     1       4.306   4.965  18.270  0.00  0.00    +0.000 A 
ATOM     25  N   UNL     1       3.069   5.455  18.034  0.00  0.00    +0.000 N 
ATOM     26  C   UNL     1       1.835   4.708  17.849  0.00  0.00    +0.000 C 
ATOM     27  C   UNL     1       1.313   3.659  18.827  0.00  0.00    +0.000 C 
ATOM     28  C   UNL     1       2.268   2.674  19.475  0.00  0.00    +0.000 C 
ATOM     29  C   UNL     1       3.594   3.264  19.941  0.00  0.00    +0.000 C 
ATOM     30  C   UNL     1       4.556   3.590  18.786  0.00  0.00    +0.000 C 
ENDBRANCH  20  21
ENDBRANCH  18  20
ENDBRANCH   9  16
TORSDOF 4
ENDMDL
MODEL 7
REMARK VINA RESULT:      -7.5      5.183     11.009
REMARK  Name = 
REMARK  5 active torsions:
REMARK  status: ('A' for Active; 'I' for Inactive)
REMARK    1  A    between atoms: C_1  and  C_2
REMARK    2  A    between atoms: C_7  and  C_8
REMARK    3  A    between atoms: C_14  and  C_15
REMARK    4  A    between atoms: N_17  and  C_18
REMARK    5  A    between atoms: C_18  and  C_19
REMARK                            x       y       z     vdW  Elec       q    Type
REMARK                         _______ _______ _______ _____ _____    ______ ____
ROOT
ATOM      1  C   UNL     1       1.462  11.261  18.874  0.00  0.00    +0.000 C 
ATOM      2  C   UNL     1       1.769   9.839  18.580  0.00  0.00    +0.000 A 
ATOM      3  N   UNL     1       2.142   9.511  17.332  0.00  0.00    +0.000 NA
ATOM      4  O   UNL     1       2.364   8.148  17.359  0.00  0.00    +0.000 OA
ATOM      5  C   UNL     1       2.136   7.654  18.595  0.00  0.00    +0.000 A 
ATOM      6  N   UNL     1       2.242   6.342  18.896  0.00  0.00    +0.000 NA
ATOM      7  C   UNL     1       1.933   6.070  20.190  0.00  0.00    +0.000 A 
ATOM      8  C   UNL     1       1.597   7.024  21.154  0.00  0.00    +0.000 A 
ATOM      9  C   UNL     1       1.463   8.364  20.776  0.00  0.00    +0.000 A 
ATOM     10  C   UNL     1       1.752   8.705  19.447  0.00  0.00    +0.000 A 
ENDROOT
BRANCH   7  11
ATOM     11  C   UNL     1       1.824   4.639  20.467  0.00  0.00    +0.000 A 
ATOM     12  C   UNL     1       2.150   3.853  21.556  0.00  0.00    +0.000 A 
ATOM     13  C   UNL     1       1.941   2.509  21.158  0.00  0.00    +0.000 A 
ATOM     14  C   UNL     1       1.466   2.563  19.871  0.00  0.00    +0.000 A 
ATOM     15  O   UNL     1       1.388   3.849  19.444  0.00  0.00    +0.000 OA
ENDBRANCH   7  11
BRANCH   9  16
ATOM     16  C   UNL     1       0.819   9.328  21.703  0.00  0.00    +0.000 C 
ATOM     17  O   UNL     1       1.517   9.877  22.543  0.00  0.00    +0.000 OA
ATOM     18  N   UNL     1      -0.524   9.638  21.561  0.00  0.00    +0.000 N 
ATOM     19  H   UNL     1      -1.170   9.137  20.959  0.00  0.00    +0.000 HD
BRANCH  18  20
ATOM     20  C   UNL     1      -1.009  10.720  22.387  0.00  0.00    +0.000 C 
BRANCH  20  21
ATOM     21  C   UNL     1      -1.721  11.844  21.726  0.00  0.00    +0.000 A 
ATOM     22  N   UNL     1      -1.650  12.291  20.489  0.00  0.00    +0.000 NA
ATOM     23  N   UNL     1      -2.705  13.172  20.297  0.00  0.00    +0.000 NA
ATOM     24  C   UNL     1      -3.385  13.244  21.425  0.00  0.00    +0.000 A 
ATOM     25  N   UNL     1      -2.744  12.515  22.366  0.00  0.00    +0.000 N 
ATOM     26  C   UNL     1      -2.945  12.543  23.805  0.00  0.00    +0.000 C 
ATOM     27  C   UNL     1      -4.300  12.364  24.486  0.00  0.00    +0.000 C 
ATOM     28  C   UNL     1      -5.539  13.024  23.909  0.00  0.00    +0.000 C 
ATOM     29  C   UNL     1      -5.661  12.964  22.391  0.00  0.00    +0.000 C 
ATOM     30  C   UNL     1      -4.696  13.913  21.662  0.00  0.00    +0.000 C 
ENDBRANCH  20  21
ENDBRANCH  18  20
ENDBRANCH   9  16
TORSDOF 4
ENDMDL
MODEL 8
REMARK VINA RESULT:      -7.5      2.990      8.287
REMARK  Name = 
REMARK  5 active torsions:
REMARK  status: ('A' for Active; 'I' for Inactive)
REMARK    1  A    between atoms: C_1  and  C_2
REMARK    2  A    between atoms: C_7  and  C_8
REMARK    3  A    between atoms: C_14  and  C_15
REMARK    4  A    between atoms: N_17  and  C_18
REMARK    5  A    between atoms: C_18  and  C_19
REMARK                            x       y       z     vdW  Elec       q    Type
REMARK                         _______ _______ _______ _____ _____    ______ ____
ROOT
ATOM      1  C   UNL     1       0.732   4.288  20.527  0.00  0.00    +0.000 C 
ATOM      2  C   UNL     1       1.673   3.698  19.544  0.00  0.00    +0.000 A 
ATOM      3  N   UNL     1       1.772   2.359  19.477  0.00  0.00    +0.000 NA
ATOM      4  O   UNL     1       2.702   2.106  18.488  0.00  0.00    +0.000 OA
ATOM      5  C   UNL     1       3.160   3.261  17.960  0.00  0.00    +0.000 A 
ATOM      6  N   UNL     1       4.107   3.308  16.998  0.00  0.00    +0.000 NA
ATOM      7  C   UNL     1       4.438   4.576  16.643  0.00  0.00    +0.000 A 
ATOM      8  C   UNL     1       3.843   5.734  17.151  0.00  0.00    +0.000 A 
ATOM      9  C   UNL     1       2.895   5.627  18.174  0.00  0.00    +0.000 A 
ATOM     10  C   UNL     1       2.525   4.342  18.596  0.00  0.00    +0.000 A 
ENDROOT
BRANCH   7  11
ATOM     11  C   UNL     1       5.612   4.643  15.776  0.00  0.00    +0.000 A 
ATOM     12  C   UNL     1       6.851   5.243  15.896  0.00  0.00    +0.000 A 
ATOM     13  C   UNL     1       7.503   5.072  14.650  0.00  0.00    +0.000 A 
ATOM     14  C   UNL     1       6.639   4.348  13.866  0.00  0.00    +0.000 A 
ATOM     15  O   UNL     1       5.492   4.080  14.539  0.00  0.00    +0.000 OA
ENDBRANCH   7  11
BRANCH   9  16
ATOM     16  C   UNL     1       2.484   6.840  18.925  0.00  0.00    +0.000 C 
ATOM     17  O   UNL     1       2.681   6.867  20.131  0.00  0.00    +0.000 OA
ATOM     18  N   UNL     1       1.957   7.930  18.251  0.00  0.00    +0.000 N 
ATOM     19  H   UNL     1       1.672   7.922  17.276  0.00  0.00    +0.000 HD
BRANCH  18  20
ATOM     20  C   UNL     1       1.763   9.123  19.043  0.00  0.00    +0.000 C 
BRANCH  20  21
ATOM     21  C   UNL     1       0.659  10.044  18.666  0.00  0.00    +0.000 A 
ATOM     22  N   UNL     1      -0.631   9.821  18.527  0.00  0.00    +0.000 NA
ATOM     23  N   UNL     1      -1.266  11.051  18.437  0.00  0.00    +0.000 NA
ATOM     24  C   UNL     1      -0.344  11.992  18.516  0.00  0.00    +0.000 A 
ATOM     25  N   UNL     1       0.873  11.404  18.553  0.00  0.00    +0.000 N 
ATOM     26  C   UNL     1       2.169  12.025  18.337  0.00  0.00    +0.000 C 
ATOM     27  C   UNL     1       2.663  13.261  19.085  0.00  0.00    +0.000 C 
ATOM     28  C   UNL     1       1.719  14.419  19.357  0.00  0.00    +0.000 C 
ATOM     29  C   UNL     1       0.313  14.024  19.792  0.00  0.00    +0.000 C 
ATOM     30  C   UNL     1      -0.546  13.462  18.648  0.00  0.00    +0.000 C 
ENDBRANCH  20  21
ENDBRANCH  18  20
ENDBRANCH   9  16
TORSDOF 4
ENDMDL
MODEL 9
REMARK VINA RESULT:      -7.4      2.464      8.454
REMARK  Name = 
REMARK  5 active torsions:
REMARK  status: ('A' for Active; 'I' for Inactive)
REMARK    1  A    between atoms: C_1  and  C_2
REMARK    2  A    between atoms: C_7  and  C_8
REMARK    3  A    between atoms: C_14  and  C_15
REMARK    4  A    between atoms: N_17  and  C_18
REMARK    5  A    between atoms: C_18  and  C_19
REMARK                            x       y       z     vdW  Elec       q    Type
REMARK                         _______ _______ _______ _____ _____    ______ ____
ROOT
ATOM      1  C   UNL     1       2.147   3.109  22.131  0.00  0.00    +0.000 C 
ATOM      2  C   UNL     1       3.169   2.827  21.092  0.00  0.00    +0.000 A 
ATOM      3  N   UNL     1       4.026   1.813  21.297  0.00  0.00    +0.000 NA
ATOM      4  O   UNL     1       4.840   1.786  20.181  0.00  0.00    +0.000 OA
ATOM      5  C   UNL     1       4.488   2.758  19.313  0.00  0.00    +0.000 A 
ATOM      6  N   UNL     1       5.142   2.984  18.153  0.00  0.00    +0.000 NA
ATOM      7  C   UNL     1       4.636   4.033  17.456  0.00  0.00    +0.000 A 
ATOM      8  C   UNL     1       3.521   4.787  17.834  0.00  0.00    +0.000 A 
ATOM      9  C   UNL     1       2.907   4.535  19.065  0.00  0.00    +0.000 A 
ATOM     10  C   UNL     1       3.397   3.473  19.839  0.00  0.00    +0.000 A 
ENDROOT
BRANCH   7  11
ATOM     11  C   UNL     1       5.469   4.426  16.322  0.00  0.00    +0.000 A 
ATOM     12  C   UNL     1       5.271   4.440  14.954  0.00  0.00    +0.000 A 
ATOM     13  C   UNL     1       6.513   4.791  14.371  0.00  0.00    +0.000 A 
ATOM     14  C   UNL     1       7.376   5.007  15.417  0.00  0.00    +0.000 A 
ATOM     15  O   UNL     1       6.753   4.792  16.603  0.00  0.00    +0.000 OA
ENDBRANCH   7  11
BRANCH   9  16
ATOM     16  C   UNL     1       1.930   5.509  19.612  0.00  0.00    +0.000 C 
ATOM     17  O   UNL     1       0.830   5.096  19.952  0.00  0.00    +0.000 OA
ATOM     18  N   UNL     1       2.294   6.834  19.791  0.00  0.00    +0.000 N 
ATOM     19  H   UNL     1       3.146   7.251  19.429  0.00  0.00    +0.000 HD
BRANCH  18  20
ATOM     20  C   UNL     1       1.340   7.657  20.499  0.00  0.00    +0.000 C 
BRANCH  20  21
ATOM     21  C   UNL     1       1.254   9.096  20.142  0.00  0.00    +0.000 A 
ATOM     22  N   UNL     1       1.506   9.713  19.006  0.00  0.00    +0.000 NA
ATOM     23  N   UNL     1       1.012  11.005  19.107  0.00  0.00    +0.000 NA
ATOM     24  C   UNL     1       0.478  11.145  20.305  0.00  0.00    +0.000 A 
ATOM     25  N   UNL     1       0.703  10.015  21.013  0.00  0.00    +0.000 N 
ATOM     26  C   UNL     1       0.572   9.823  22.449  0.00  0.00    +0.000 C 
ATOM     27  C   UNL     1      -0.682  10.163  23.249  0.00  0.00    +0.000 C 
ATOM     28  C   UNL     1      -1.454  11.437  22.958  0.00  0.00    +0.000 C 
ATOM     29  C   UNL     1      -1.623  11.771  21.481  0.00  0.00    +0.000 C 
ATOM     30  C   UNL     1      -0.333  12.284  20.818  0.00  0.00    +0.000 C 
ENDBRANCH  20  21
ENDBRANCH  18  20
ENDBRANCH   9  16
TORSDOF 4
ENDMDL
