MODEL 1
REMARK VINA RESULT:      -9.1      0.000      0.000
REMARK  Name = 
REMARK  10 active torsions:
REMARK  status: ('A' for Active; 'I' for Inactive)
REMARK    1  A    between atoms: C_1  and  C_2
REMARK    2  A    between atoms: C_5  and  C_6
REMARK    3  A    between atoms: C_7  and  C_8
REMARK    4  A    between atoms: C_8  and  C_9
REMARK    5  A    between atoms: C_9  and  C_10
REMARK    6  A    between atoms: N_12  and  C_13
REMARK    7  A    between atoms: C_15  and  S_16
REMARK    8  A    between atoms: S_16  and  N_19
REMARK    9  A    between atoms: N_19  and  C_20
REMARK   10  A    between atoms: C_29  and  O_30
REMARK                            x       y       z     vdW  Elec       q    Type
REMARK                         _______ _______ _______ _____ _____    ______ ____
ROOT
ATOM      1  C   UNL     1       6.222   6.598  17.000  0.00  0.00    +0.000 A 
ATOM      2  C   UNL     1       5.081   6.373  17.773  0.00  0.00    +0.000 A 
ATOM      3  C   UNL     1       4.388   5.165  17.673  0.00  0.00    +0.000 A 
ATOM      4  C   UNL     1       4.796   4.182  16.766  0.00  0.00    +0.000 A 
ATOM      5  C   UNL     1       5.921   4.409  15.966  0.00  0.00    +0.000 A 
ATOM      6  C   UNL     1       6.619   5.613  16.082  0.00  0.00    +0.000 A 
ENDROOT
BRANCH   1   9
ATOM      7  C   UNL     1       7.956   8.051  18.027  0.00  0.00    +0.000 C 
ATOM      8  O   UNL     1       8.378   7.242  18.848  0.00  0.00    +0.000 OA
ATOM      9  N   UNL     1       6.978   7.790  17.085  0.00  0.00    +0.000 N 
ATOM     10  H   UNL     1       6.852   8.430  16.305  0.00  0.00    +0.000 HD
BRANCH   7  11
ATOM     11  C   UNL     1       8.510   9.462  17.969  0.00  0.00    +0.000 C 
BRANCH  11  12
ATOM     12  C   UNL     1       9.303   9.740  19.250  0.00  0.00    +0.000 C 
BRANCH  12  19
ATOM     13  C   UNL     1       8.549  11.554  21.856  0.00  0.00    +0.000 C 
ATOM     14  C   UNL     1       9.267  11.965  20.627  0.00  0.00    +0.000 A 
ATOM     15  N   UNL     1       9.719  13.219  20.501  0.00  0.00    +0.000 NA
ATOM     16  O   UNL     1      10.361  13.267  19.281  0.00  0.00    +0.000 OA
ATOM     17  C   UNL     1      10.289  12.052  18.679  0.00  0.00    +0.000 A 
ATOM     18  C   UNL     1      10.957  11.931  17.369  0.00  0.00    +0.000 C 
ATOM     19  C   UNL     1       9.589  11.179  19.485  0.00  0.00    +0.000 A 
ENDBRANCH  12  19
ENDBRANCH  11  12
ENDBRANCH   7  11
ENDBRANCH   1   9
BRANCH   3  20
ATOM     20  S   UNL     1       2.925   4.927  18.665  0.00  0.00    +0.000 S 
ATOM     21  O   UNL     1       1.764   5.136  17.828  0.00  0.00    +0.000 OA
ATOM     22  O   UNL     1       3.108   3.688  19.390  0.00  0.00    +0.000 OA
BRANCH  20  23
ATOM     23  N   UNL     1       3.022   6.155  19.820  0.00  0.00    +0.000 N 
ATOM     24  H   UNL     1       3.946   6.222  20.242  0.00  0.00    +0.000 HD
BRANCH  23  25
ATOM     25  C   UNL     1       2.282   7.354  19.632  0.00  0.00    +0.000 A 
ATOM     26  C   UNL     1       2.311   7.998  18.393  0.00  0.00    +0.000 A 
ATOM     27  C   UNL     1       1.545   9.145  18.186  0.00  0.00    +0.000 A 
ATOM     28  C   UNL     1       0.764   9.656  19.223  0.00  0.00    +0.000 A 
ATOM     29  C   UNL     1       0.749   9.014  20.461  0.00  0.00    +0.000 A 
ATOM     30 CL   UNL     1      -0.196   9.666  21.744  0.00  0.00    +0.000 Cl
ATOM     31  C   UNL     1       1.496   7.855  20.668  0.00  0.00    +0.000 A 
ENDBRANCH  23  25
ENDBRANCH  20  23
ENDBRANCH   3  20
BRANCH   6  32
ATOM     32  O   UNL     1       7.719   5.855  15.299  0.00  0.00    +0.000 OA
ATOM     33  H   UNL     1       7.937   5.042  14.814  0.00  0.00    +0.000 HD
ENDBRANCH   6  32
TORSDOF 8
ENDMDL
MODEL 2
REMARK VINA RESULT:      -9.1      0.975      1.282
REMARK  Name = 
REMARK  10 active torsions:
REMARK  status: ('A' for Active; 'I' for Inactive)
REMARK    1  A    between atoms: C_1  and  C_2
REMARK    2  A    between atoms: C_5  and  C_6
REMARK    3  A    between atoms: C_7  and  C_8
REMARK    4  A    between atoms: C_8  and  C_9
REMARK    5  A    between atoms: C_9  and  C_10
REMARK    6  A    between atoms: N_12  and  C_13
REMARK    7  A    between atoms: C_15  and  S_16
REMARK    8  A    between atoms: S_16  and  N_19
REMARK    9  A    between atoms: N_19  and  C_20
REMARK   10  A    between atoms: C_29  and  O_30
REMARK                            x       y       z     vdW  Elec       q    Type
REMARK                         _______ _______ _______ _____ _____    ______ ____
ROOT
ATOM      1  C   UNL     1       6.217   6.447  16.936  0.00  0.00    +0.000 A 
ATOM      2  C   UNL     1       5.098   6.309  17.759  0.00  0.00    +0.000 A 
ATOM      3  C   UNL     1       4.433   5.083  17.846  0.00  0.00    +0.000 A 
ATOM      4  C   UNL     1       4.849   3.991  17.079  0.00  0.00    +0.000 A 
ATOM      5  C   UNL     1       5.952   4.127  16.230  0.00  0.00    +0.000 A 
ATOM      6  C   UNL     1       6.622   5.351  16.158  0.00  0.00    +0.000 A 
ENDROOT
BRANCH   1   9
ATOM      7  C   UNL     1       7.888   8.101  17.741  0.00  0.00    +0.000 C 
ATOM      8  O   UNL     1       8.302   7.456  18.700  0.00  0.00    +0.000 OA
ATOM      9  N   UNL     1       6.945   7.656  16.833  0.00  0.00    +0.000 N 
ATOM     10  H   UNL     1       6.827   8.149  15.952  0.00  0.00    +0.000 HD
BRANCH   7  11
ATOM     11  C   UNL     1       8.412   9.495  17.456  0.00  0.00    +0.000 C 
BRANCH  11  12
ATOM     12  C   UNL     1       8.985  10.087  18.747  0.00  0.00    +0.000 C 
BRANCH  12  19
ATOM     13  C   UNL     1       7.584  12.576  17.170  0.00  0.00    +0.000 C 
ATOM     14  C   UNL     1       8.857  12.569  17.928  0.00  0.00    +0.000 A 
ATOM     15  N   UNL     1       9.573  13.693  18.047  0.00  0.00    +0.000 NA
ATOM     16  O   UNL     1      10.663  13.364  18.826  0.00  0.00    +0.000 OA
ATOM     17  C   UNL     1      10.603  12.050  19.165  0.00  0.00    +0.000 A 
ATOM     18  C   UNL     1      11.689  11.546  20.026  0.00  0.00    +0.000 C 
ATOM     19  C   UNL     1       9.476  11.483  18.608  0.00  0.00    +0.000 A 
ENDBRANCH  12  19
ENDBRANCH  11  12
ENDBRANCH   7  11
ENDBRANCH   1   9
BRANCH   3  20
ATOM     20  S   UNL     1       2.996   4.957  18.895  0.00  0.00    +0.000 S 
ATOM     21  O   UNL     1       1.814   5.070  18.069  0.00  0.00    +0.000 OA
ATOM     22  O   UNL     1       3.201   3.807  19.749  0.00  0.00    +0.000 OA
BRANCH  20  23
ATOM     23  N   UNL     1       3.118   6.307  19.902  0.00  0.00    +0.000 N 
ATOM     24  H   UNL     1       4.060   6.443  20.260  0.00  0.00    +0.000 HD
BRANCH  23  25
ATOM     25  C   UNL     1       2.329   7.458  19.630  0.00  0.00    +0.000 A 
ATOM     26  C   UNL     1       2.365   8.034  18.359  0.00  0.00    +0.000 A 
ATOM     27  C   UNL     1       1.554   9.132  18.069  0.00  0.00    +0.000 A 
ATOM     28  C   UNL     1       0.722   9.662  19.056  0.00  0.00    +0.000 A 
ATOM     29  C   UNL     1       0.700   9.087  20.326  0.00  0.00    +0.000 A 
ATOM     30 CL   UNL     1      -0.308   9.763  21.546  0.00  0.00    +0.000 Cl
ATOM     31  C   UNL     1       1.493   7.977  20.616  0.00  0.00    +0.000 A 
ENDBRANCH  23  25
ENDBRANCH  20  23
ENDBRANCH   3  20
BRANCH   6  32
ATOM     32  O   UNL     1       7.700   5.503  15.324  0.00  0.00    +0.000 OA
ATOM     33  H   UNL     1       7.883   4.650  14.896  0.00  0.00    +0.000 HD
ENDBRANCH   6  32
TORSDOF 8
ENDMDL
MODEL 3
REMARK VINA RESULT:      -8.9      0.869      1.238
REMARK  Name = 
REMARK  10 active torsions:
REMARK  status: ('A' for Active; 'I' for Inactive)
REMARK    1  A    between atoms: C_1  and  C_2
REMARK    2  A    between atoms: C_5  and  C_6
REMARK    3  A    between atoms: C_7  and  C_8
REMARK    4  A    between atoms: C_8  and  C_9
REMARK    5  A    between atoms: C_9  and  C_10
REMARK    6  A    between atoms: N_12  and  C_13
REMARK    7  A    between atoms: C_15  and  S_16
REMARK    8  A    between atoms: S_16  and  N_19
REMARK    9  A    between atoms: N_19  and  C_20
REMARK   10  A    between atoms: C_29  and  O_30
REMARK                            x       y       z     vdW  Elec       q    Type
REMARK                         _______ _______ _______ _____ _____    ______ ____
ROOT
ATOM      1  C   UNL     1       6.201   6.508  16.959  0.00  0.00    +0.000 A 
ATOM      2  C   UNL     1       5.067   6.248  17.730  0.00  0.00    +0.000 A 
ATOM      3  C   UNL     1       4.393   5.031  17.605  0.00  0.00    +0.000 A 
ATOM      4  C   UNL     1       4.814   4.074  16.677  0.00  0.00    +0.000 A 
ATOM      5  C   UNL     1       5.932   4.337  15.878  0.00  0.00    +0.000 A 
ATOM      6  C   UNL     1       6.612   5.550  16.019  0.00  0.00    +0.000 A 
ENDROOT
BRANCH   1   9
ATOM      7  C   UNL     1       7.908   7.971  18.018  0.00  0.00    +0.000 C 
ATOM      8  O   UNL     1       8.337   7.155  18.829  0.00  0.00    +0.000 OA
ATOM      9  N   UNL     1       6.939   7.710  17.067  0.00  0.00    +0.000 N 
ATOM     10  H   UNL     1       6.807   8.360  16.297  0.00  0.00    +0.000 HD
BRANCH   7  11
ATOM     11  C   UNL     1       8.440   9.391  17.987  0.00  0.00    +0.000 C 
BRANCH  11  12
ATOM     12  C   UNL     1       9.244   9.651  19.264  0.00  0.00    +0.000 C 
BRANCH  12  19
ATOM     13  C   UNL     1       8.547  11.489  21.868  0.00  0.00    +0.000 C 
ATOM     14  C   UNL     1       9.271  11.879  20.636  0.00  0.00    +0.000 A 
ATOM     15  N   UNL     1       9.753  13.121  20.505  0.00  0.00    +0.000 NA
ATOM     16  O   UNL     1      10.392  13.150  19.283  0.00  0.00    +0.000 OA
ATOM     17  C   UNL     1      10.287  11.936  18.684  0.00  0.00    +0.000 A 
ATOM     18  C   UNL     1      10.947  11.795  17.372  0.00  0.00    +0.000 C 
ATOM     19  C   UNL     1       9.568  11.083  19.495  0.00  0.00    +0.000 A 
ENDBRANCH  12  19
ENDBRANCH  11  12
ENDBRANCH   7  11
ENDBRANCH   1   9
BRANCH   3  20
ATOM     20  S   UNL     1       2.937   4.749  18.597  0.00  0.00    +0.000 S 
ATOM     21  O   UNL     1       1.773   5.101  17.813  0.00  0.00    +0.000 OA
ATOM     22  O   UNL     1       3.074   3.430  19.175  0.00  0.00    +0.000 OA
BRANCH  20  23
ATOM     23  N   UNL     1       3.110   5.835  19.878  0.00  0.00    +0.000 N 
ATOM     24  H   UNL     1       4.076   5.929  20.182  0.00  0.00    +0.000 HD
BRANCH  23  25
ATOM     25  C   UNL     1       2.271   6.980  19.944  0.00  0.00    +0.000 A 
ATOM     26  C   UNL     1       1.440   7.164  21.051  0.00  0.00    +0.000 A 
ATOM     27  C   UNL     1       0.653   8.312  21.148  0.00  0.00    +0.000 A 
ATOM     28  C   UNL     1       0.686   9.266  20.130  0.00  0.00    +0.000 A 
ATOM     29  C   UNL     1       1.511   9.070  19.023  0.00  0.00    +0.000 A 
ATOM     30 CL   UNL     1       1.525  10.238  17.758  0.00  0.00    +0.000 Cl
ATOM     31  C   UNL     1       2.315   7.935  18.930  0.00  0.00    +0.000 A 
ENDBRANCH  23  25
ENDBRANCH  20  23
ENDBRANCH   3  20
BRANCH   6  32
ATOM     32  O   UNL     1       7.705   5.826  15.238  0.00  0.00    +0.000 OA
ATOM     33  H   UNL     1       8.253   5.024  15.178  0.00  0.00    +0.000 HD
ENDBRANCH   6  32
TORSDOF 8
ENDMDL
MODEL 4
REMARK VINA RESULT:      -8.7      1.262      1.708
REMARK  Name = 
REMARK  10 active torsions:
REMARK  status: ('A' for Active; 'I' for Inactive)
REMARK    1  A    between atoms: C_1  and  C_2
REMARK    2  A    between atoms: C_5  and  C_6
REMARK    3  A    between atoms: C_7  and  C_8
REMARK    4  A    between atoms: C_8  and  C_9
REMARK    5  A    between atoms: C_9  and  C_10
REMARK    6  A    between atoms: N_12  and  C_13
REMARK    7  A    between atoms: C_15  and  S_16
REMARK    8  A    between atoms: S_16  and  N_19
REMARK    9  A    between atoms: N_19  and  C_20
REMARK   10  A    between atoms: C_29  and  O_30
REMARK                            x       y       z     vdW  Elec       q    Type
REMARK                         _______ _______ _______ _____ _____    ______ ____
ROOT
ATOM      1  C   UNL     1       6.129   6.566  16.964  0.00  0.00    +0.000 A 
ATOM      2  C   UNL     1       4.976   6.490  17.747  0.00  0.00    +0.000 A 
ATOM      3  C   UNL     1       4.272   5.289  17.853  0.00  0.00    +0.000 A 
ATOM      4  C   UNL     1       4.683   4.157  17.142  0.00  0.00    +0.000 A 
ATOM      5  C   UNL     1       5.820   4.229  16.332  0.00  0.00    +0.000 A 
ATOM      6  C   UNL     1       6.530   5.430  16.243  0.00  0.00    +0.000 A 
ENDROOT
BRANCH   1   9
ATOM      7  C   UNL     1       7.892   8.145  17.721  0.00  0.00    +0.000 C 
ATOM      8  O   UNL     1       8.320   7.472  18.654  0.00  0.00    +0.000 OA
ATOM      9  N   UNL     1       6.897   7.748  16.847  0.00  0.00    +0.000 N 
ATOM     10  H   UNL     1       6.763   8.257  15.978  0.00  0.00    +0.000 HD
BRANCH   7  11
ATOM     11  C   UNL     1       8.456   9.523  17.431  0.00  0.00    +0.000 C 
BRANCH  11  12
ATOM     12  C   UNL     1       8.913  10.162  18.747  0.00  0.00    +0.000 C 
BRANCH  12  19
ATOM     13  C   UNL     1      11.701  11.487  19.804  0.00  0.00    +0.000 C 
ATOM     14  C   UNL     1      10.597  12.140  19.062  0.00  0.00    +0.000 A 
ATOM     15  N   UNL     1      10.687  13.431  18.723  0.00  0.00    +0.000 NA
ATOM     16  O   UNL     1       9.533  13.719  18.024  0.00  0.00    +0.000 OA
ATOM     17  C   UNL     1       8.755  12.608  17.951  0.00  0.00    +0.000 A 
ATOM     18  C   UNL     1       7.490  12.745  17.205  0.00  0.00    +0.000 C 
ATOM     19  C   UNL     1       9.376  11.567  18.608  0.00  0.00    +0.000 A 
ENDBRANCH  12  19
ENDBRANCH  11  12
ENDBRANCH   7  11
ENDBRANCH   1   9
BRANCH   3  20
ATOM     20  S   UNL     1       2.793   5.243  18.849  0.00  0.00    +0.000 S 
ATOM     21  O   UNL     1       1.659   5.545  18.001  0.00  0.00    +0.000 OA
ATOM     22  O   UNL     1       2.843   4.018  19.617  0.00  0.00    +0.000 OA
BRANCH  20  23
ATOM     23  N   UNL     1       3.021   6.494  19.960  0.00  0.00    +0.000 N 
ATOM     24  H   UNL     1       3.996   6.778  20.033  0.00  0.00    +0.000 HD
BRANCH  23  25
ATOM     25  C   UNL     1       2.019   7.490  20.110  0.00  0.00    +0.000 A 
ATOM     26  C   UNL     1       1.114   7.406  21.171  0.00  0.00    +0.000 A 
ATOM     27  C   UNL     1       0.162   8.408  21.356  0.00  0.00    +0.000 A 
ATOM     28  C   UNL     1       0.103   9.484  20.469  0.00  0.00    +0.000 A 
ATOM     29  C   UNL     1       1.003   9.555  19.406  0.00  0.00    +0.000 A 
ATOM     30 CL   UNL     1       0.907  10.872  18.300  0.00  0.00    +0.000 Cl
ATOM     31  C   UNL     1       1.971   8.568  19.228  0.00  0.00    +0.000 A 
ENDBRANCH  23  25
ENDBRANCH  20  23
ENDBRANCH   3  20
BRANCH   6  32
ATOM     32  O   UNL     1       7.643   5.520  15.447  0.00  0.00    +0.000 OA
ATOM     33  H   UNL     1       8.341   4.960  15.827  0.00  0.00    +0.000 HD
ENDBRANCH   6  32
TORSDOF 8
ENDMDL
MODEL 5
REMARK VINA RESULT:      -8.5      5.204      7.875
REMARK  Name = 
REMARK  10 active torsions:
REMARK  status: ('A' for Active; 'I' for Inactive)
REMARK    1  A    between atoms: C_1  and  C_2
REMARK    2  A    between atoms: C_5  and  C_6
REMARK    3  A    between atoms: C_7  and  C_8
REMARK    4  A    between atoms: C_8  and  C_9
REMARK    5  A    between atoms: C_9  and  C_10
REMARK    6  A    between atoms: N_12  and  C_13
REMARK    7  A    between atoms: C_15  and  S_16
REMARK    8  A    between atoms: S_16  and  N_19
REMARK    9  A    between atoms: N_19  and  C_20
REMARK   10  A    between atoms: C_29  and  O_30
REMARK                            x       y       z     vdW  Elec       q    Type
REMARK                         _______ _______ _______ _____ _____    ______ ____
ROOT
ATOM      1  C   UNL     1       3.239   5.636  19.469  0.00  0.00    +0.000 A 
ATOM      2  C   UNL     1       4.077   6.204  18.507  0.00  0.00    +0.000 A 
ATOM      3  C   UNL     1       4.897   5.394  17.719  0.00  0.00    +0.000 A 
ATOM      4  C   UNL     1       4.927   4.009  17.910  0.00  0.00    +0.000 A 
ATOM      5  C   UNL     1       4.114   3.432  18.891  0.00  0.00    +0.000 A 
ATOM      6  C   UNL     1       3.283   4.247  19.666  0.00  0.00    +0.000 A 
ENDROOT
BRANCH   1   9
ATOM      7  C   UNL     1       1.927   7.684  19.978  0.00  0.00    +0.000 C 
ATOM      8  O   UNL     1       2.144   8.279  18.926  0.00  0.00    +0.000 OA
ATOM      9  N   UNL     1       2.367   6.406  20.273  0.00  0.00    +0.000 N 
ATOM     10  H   UNL     1       1.957   5.905  21.056  0.00  0.00    +0.000 HD
BRANCH   7  11
ATOM     11  C   UNL     1       1.109   8.327  21.081  0.00  0.00    +0.000 C 
BRANCH  11  12
ATOM     12  C   UNL     1       0.033   9.217  20.451  0.00  0.00    +0.000 C 
BRANCH  12  19
ATOM     13  C   UNL     1      -1.046  10.699  23.150  0.00  0.00    +0.000 C 
ATOM     14  C   UNL     1      -0.321  11.294  22.004  0.00  0.00    +0.000 A 
ATOM     15  N   UNL     1      -0.009  12.595  22.008  0.00  0.00    +0.000 NA
ATOM     16  O   UNL     1       0.681  12.822  20.836  0.00  0.00    +0.000 OA
ATOM     17  C   UNL     1       0.777  11.664  20.131  0.00  0.00    +0.000 A 
ATOM     18  C   UNL     1       1.516  11.734  18.857  0.00  0.00    +0.000 C 
ATOM     19  C   UNL     1       0.142  10.653  20.821  0.00  0.00    +0.000 A 
ENDBRANCH  12  19
ENDBRANCH  11  12
ENDBRANCH   7  11
ENDBRANCH   1   9
BRANCH   3  20
ATOM     20  S   UNL     1       5.966   6.163  16.516  0.00  0.00    +0.000 S 
ATOM     21  O   UNL     1       5.143   6.753  15.482  0.00  0.00    +0.000 OA
ATOM     22  O   UNL     1       6.921   6.961  17.254  0.00  0.00    +0.000 OA
BRANCH  20  23
ATOM     23  N   UNL     1       6.842   4.870  15.876  0.00  0.00    +0.000 N 
ATOM     24  H   UNL     1       6.789   4.036  16.457  0.00  0.00    +0.000 HD
BRANCH  23  25
ATOM     25  C   UNL     1       6.915   4.701  14.466  0.00  0.00    +0.000 A 
ATOM     26  C   UNL     1       7.825   5.459  13.726  0.00  0.00    +0.000 A 
ATOM     27  C   UNL     1       7.940   5.261  12.350  0.00  0.00    +0.000 A 
ATOM     28  C   UNL     1       7.133   4.318  11.713  0.00  0.00    +0.000 A 
ATOM     29  C   UNL     1       6.219   3.573  12.458  0.00  0.00    +0.000 A 
ATOM     30 CL   UNL     1       5.206   2.431  11.661  0.00  0.00    +0.000 Cl
ATOM     31  C   UNL     1       6.114   3.751  13.836  0.00  0.00    +0.000 A 
ENDBRANCH  23  25
ENDBRANCH  20  23
ENDBRANCH   3  20
BRANCH   6  32
ATOM     32  O   UNL     1       2.485   3.698  20.637  0.00  0.00    +0.000 OA
ATOM     33  H   UNL     1       2.813   2.806  20.839  0.00  0.00    +0.000 HD
ENDBRANCH   6  32
TORSDOF 8
ENDMDL
MODEL 6
REMARK VINA RESULT:      -8.5      1.767      2.134
REMARK  Name = 
REMARK  10 active torsions:
REMARK  status: ('A' for Active; 'I' for Inactive)
REMARK    1  A    between atoms: C_1  and  C_2
REMARK    2  A    between atoms: C_5  and  C_6
REMARK    3  A    between atoms: C_7  and  C_8
REMARK    4  A    between atoms: C_8  and  C_9
REMARK    5  A    between atoms: C_9  and  C_10
REMARK    6  A    between atoms: N_12  and  C_13
REMARK    7  A    between atoms: C_15  and  S_16
REMARK    8  A    between atoms: S_16  and  N_19
REMARK    9  A    between atoms: N_19  and  C_20
REMARK   10  A    between atoms: C_29  and  O_30
REMARK                            x       y       z     vdW  Elec       q    Type
REMARK                         _______ _______ _______ _____ _____    ______ ____
ROOT
ATOM      1  C   UNL     1       6.767   5.578  17.630  0.00  0.00    +0.000 A 
ATOM      2  C   UNL     1       5.824   4.831  18.338  0.00  0.00    +0.000 A 
ATOM      3  C   UNL     1       5.026   3.894  17.679  0.00  0.00    +0.000 A 
ATOM      4  C   UNL     1       5.126   3.720  16.295  0.00  0.00    +0.000 A 
ATOM      5  C   UNL     1       6.048   4.483  15.571  0.00  0.00    +0.000 A 
ATOM      6  C   UNL     1       6.855   5.408  16.239  0.00  0.00    +0.000 A 
ENDROOT
BRANCH   1   9
ATOM      7  C   UNL     1       7.697   7.862  17.936  0.00  0.00    +0.000 C 
ATOM      8  O   UNL     1       6.955   8.443  17.151  0.00  0.00    +0.000 OA
ATOM      9  N   UNL     1       7.622   6.517  18.252  0.00  0.00    +0.000 N 
ATOM     10  H   UNL     1       8.114   6.168  19.069  0.00  0.00    +0.000 HD
BRANCH   7  11
ATOM     11  C   UNL     1       8.797   8.608  18.666  0.00  0.00    +0.000 C 
BRANCH  11  12
ATOM     12  C   UNL     1       8.717  10.094  18.304  0.00  0.00    +0.000 C 
BRANCH  12  19
ATOM     13  C   UNL     1       8.706  10.760  21.498  0.00  0.00    +0.000 C 
ATOM     14  C   UNL     1       9.654  11.236  20.464  0.00  0.00    +0.000 A 
ATOM     15  N   UNL     1      10.679  12.025  20.806  0.00  0.00    +0.000 NA
ATOM     16  O   UNL     1      11.380  12.257  19.641  0.00  0.00    +0.000 OA
ATOM     17  C   UNL     1      10.775  11.616  18.608  0.00  0.00    +0.000 A 
ATOM     18  C   UNL     1      11.424  11.744  17.290  0.00  0.00    +0.000 C 
ATOM     19  C   UNL     1       9.656  10.956  19.069  0.00  0.00    +0.000 A 
ENDBRANCH  12  19
ENDBRANCH  11  12
ENDBRANCH   7  11
ENDBRANCH   1   9
BRANCH   3  20
ATOM     20  S   UNL     1       3.820   2.976  18.619  0.00  0.00    +0.000 S 
ATOM     21  O   UNL     1       3.727   1.641  18.069  0.00  0.00    +0.000 OA
ATOM     22  O   UNL     1       4.132   3.185  20.017  0.00  0.00    +0.000 OA
BRANCH  20  23
ATOM     23  N   UNL     1       2.378   3.808  18.339  0.00  0.00    +0.000 N 
ATOM     24  H   UNL     1       1.572   3.189  18.290  0.00  0.00    +0.000 HD
BRANCH  23  25
ATOM     25  C   UNL     1       2.196   5.104  18.895  0.00  0.00    +0.000 A 
ATOM     26  C   UNL     1       1.858   5.235  20.244  0.00  0.00    +0.000 A 
ATOM     27  C   UNL     1       1.730   6.504  20.809  0.00  0.00    +0.000 A 
ATOM     28  C   UNL     1       1.923   7.639  20.021  0.00  0.00    +0.000 A 
ATOM     29  C   UNL     1       2.249   7.499  18.673  0.00  0.00    +0.000 A 
ATOM     30 CL   UNL     1       2.458   8.905  17.700  0.00  0.00    +0.000 Cl
ATOM     31  C   UNL     1       2.399   6.234  18.107  0.00  0.00    +0.000 A 
ENDBRANCH  23  25
ENDBRANCH  20  23
ENDBRANCH   3  20
BRANCH   6  32
ATOM     32  O   UNL     1       7.758   6.170  15.543  0.00  0.00    +0.000 OA
ATOM     33  H   UNL     1       8.352   6.603  16.179  0.00  0.00    +0.000 HD
ENDBRANCH   6  32
TORSDOF 8
ENDMDL
MODEL 7
REMARK VINA RESULT:      -8.4      0.944      1.713
REMARK  Name = 
REMARK  10 active torsions:
REMARK  status: ('A' for Active; 'I' for Inactive)
REMARK    1  A    between atoms: C_1  and  C_2
REMARK    2  A    between atoms: C_5  and  C_6
REMARK    3  A    between atoms: C_7  and  C_8
REMARK    4  A    between atoms: C_8  and  C_9
REMARK    5  A    between atoms: C_9  and  C_10
REMARK    6  A    between atoms: N_12  and  C_13
REMARK    7  A    between atoms: C_15  and  S_16
REMARK    8  A    between atoms: S_16  and  N_19
REMARK    9  A    between atoms: N_19  and  C_20
REMARK   10  A    between atoms: C_29  and  O_30
REMARK                            x       y       z     vdW  Elec       q    Type
REMARK                         _______ _______ _______ _____ _____    ______ ____
ROOT
ATOM      1  C   UNL     1       6.483   6.110  17.568  0.00  0.00    +0.000 A 
ATOM      2  C   UNL     1       5.336   5.880  18.331  0.00  0.00    +0.000 A 
ATOM      3  C   UNL     1       4.337   5.024  17.863  0.00  0.00    +0.000 A 
ATOM      4  C   UNL     1       4.448   4.418  16.607  0.00  0.00    +0.000 A 
ATOM      5  C   UNL     1       5.579   4.664  15.823  0.00  0.00    +0.000 A 
ATOM      6  C   UNL     1       6.582   5.510  16.303  0.00  0.00    +0.000 A 
ENDROOT
BRANCH   1   9
ATOM      7  C   UNL     1       7.643   8.299  17.757  0.00  0.00    +0.000 C 
ATOM      8  O   UNL     1       6.780   8.985  17.216  0.00  0.00    +0.000 OA
ATOM      9  N   UNL     1       7.538   6.943  18.007  0.00  0.00    +0.000 N 
ATOM     10  H   UNL     1       8.186   6.503  18.654  0.00  0.00    +0.000 HD
BRANCH   7  11
ATOM     11  C   UNL     1       8.946   8.916  18.227  0.00  0.00    +0.000 C 
BRANCH  11  12
ATOM     12  C   UNL     1       8.763  10.432  18.353  0.00  0.00    +0.000 C 
BRANCH  12  19
ATOM     13  C   UNL     1      11.593  11.780  17.446  0.00  0.00    +0.000 C 
ATOM     14  C   UNL     1      11.013  11.691  18.806  0.00  0.00    +0.000 A 
ATOM     15  N   UNL     1      11.658  12.229  19.848  0.00  0.00    +0.000 NA
ATOM     16  O   UNL     1      10.850  12.010  20.944  0.00  0.00    +0.000 OA
ATOM     17  C   UNL     1       9.732  11.341  20.562  0.00  0.00    +0.000 A 
ATOM     18  C   UNL     1       8.748  11.054  21.622  0.00  0.00    +0.000 C 
ATOM     19  C   UNL     1       9.784  11.096  19.206  0.00  0.00    +0.000 A 
ENDBRANCH  12  19
ENDBRANCH  11  12
ENDBRANCH   7  11
ENDBRANCH   1   9
BRANCH   3  20
ATOM     20  S   UNL     1       2.880   4.774  18.861  0.00  0.00    +0.000 S 
ATOM     21  O   UNL     1       1.715   4.926  18.018  0.00  0.00    +0.000 OA
ATOM     22  O   UNL     1       3.096   3.563  19.623  0.00  0.00    +0.000 OA
BRANCH  20  23
ATOM     23  N   UNL     1       2.942   6.039  19.979  0.00  0.00    +0.000 N 
ATOM     24  H   UNL     1       3.829   6.078  20.476  0.00  0.00    +0.000 HD
BRANCH  23  25
ATOM     25  C   UNL     1       2.280   7.263  19.690  0.00  0.00    +0.000 A 
ATOM     26  C   UNL     1       2.411   7.837  18.424  0.00  0.00    +0.000 A 
ATOM     27  C   UNL     1       1.721   9.010  18.116  0.00  0.00    +0.000 A 
ATOM     28  C   UNL     1       0.916   9.617  19.081  0.00  0.00    +0.000 A 
ATOM     29  C   UNL     1       0.799   9.043  20.346  0.00  0.00    +0.000 A 
ATOM     30 CL   UNL     1      -0.174   9.812  21.540  0.00  0.00    +0.000 Cl
ATOM     31  C   UNL     1       1.469   7.860  20.653  0.00  0.00    +0.000 A 
ENDBRANCH  23  25
ENDBRANCH  20  23
ENDBRANCH   3  20
BRANCH   6  32
ATOM     32  O   UNL     1       7.694   5.768  15.543  0.00  0.00    +0.000 OA
ATOM     33  H   UNL     1       8.302   6.321  16.062  0.00  0.00    +0.000 HD
ENDBRANCH   6  32
TORSDOF 8
ENDMDL
MODEL 8
REMARK VINA RESULT:      -8.4      2.763      3.511
REMARK  Name = 
REMARK  10 active torsions:
REMARK  status: ('A' for Active; 'I' for Inactive)
REMARK    1  A    between atoms: C_1  and  C_2
REMARK    2  A    between atoms: C_5  and  C_6
REMARK    3  A    between atoms: C_7  and  C_8
REMARK    4  A    between atoms: C_8  and  C_9
REMARK    5  A    between atoms: C_9  and  C_10
REMARK    6  A    between atoms: N_12  and  C_13
REMARK    7  A    between atoms: C_15  and  S_16
REMARK    8  A    between atoms: S_16  and  N_19
REMARK    9  A    between atoms: N_19  and  C_20
REMARK   10  A    between atoms: C_29  and  O_30
REMARK                            x       y       z     vdW  Elec       q    Type
REMARK                         _______ _______ _______ _____ _____    ______ ____
ROOT
ATOM      1  C   UNL     1       6.167   6.879  16.850  0.00  0.00    +0.000 A 
ATOM      2  C   UNL     1       4.916   7.042  17.447  0.00  0.00    +0.000 A 
ATOM      3  C   UNL     1       4.000   5.987  17.467  0.00  0.00    +0.000 A 
ATOM      4  C   UNL     1       4.304   4.768  16.852  0.00  0.00    +0.000 A 
ATOM      5  C   UNL     1       5.544   4.603  16.226  0.00  0.00    +0.000 A 
ATOM      6  C   UNL     1       6.461   5.657  16.223  0.00  0.00    +0.000 A 
ENDROOT
BRANCH   1   9
ATOM      7  C   UNL     1       8.073   8.142  17.823  0.00  0.00    +0.000 C 
ATOM      8  O   UNL     1       8.252   7.429  18.807  0.00  0.00    +0.000 OA
ATOM      9  N   UNL     1       7.142   7.903  16.829  0.00  0.00    +0.000 N 
ATOM     10  H   UNL     1       7.213   8.403  15.948  0.00  0.00    +0.000 HD
BRANCH   7  11
ATOM     11  C   UNL     1       8.907   9.389  17.604  0.00  0.00    +0.000 C 
BRANCH  11  12
ATOM     12  C   UNL     1       8.945  10.199  18.904  0.00  0.00    +0.000 C 
BRANCH  12  19
ATOM     13  C   UNL     1      11.623  11.661  20.060  0.00  0.00    +0.000 C 
ATOM     14  C   UNL     1      10.548  12.243  19.223  0.00  0.00    +0.000 A 
ATOM     15  N   UNL     1      10.620  13.520  18.829  0.00  0.00    +0.000 NA
ATOM     16  O   UNL     1       9.504  13.737  18.049  0.00  0.00    +0.000 OA
ATOM     17  C   UNL     1       8.764  12.599  17.983  0.00  0.00    +0.000 A 
ATOM     18  C   UNL     1       7.543  12.660  17.158  0.00  0.00    +0.000 C 
ATOM     19  C   UNL     1       9.374  11.611  18.726  0.00  0.00    +0.000 A 
ENDBRANCH  12  19
ENDBRANCH  11  12
ENDBRANCH   7  11
ENDBRANCH   1   9
BRANCH   3  20
ATOM     20  S   UNL     1       2.406   6.245  18.222  0.00  0.00    +0.000 S 
ATOM     21  O   UNL     1       2.009   7.619  17.997  0.00  0.00    +0.000 OA
ATOM     22  O   UNL     1       1.561   5.148  17.804  0.00  0.00    +0.000 OA
BRANCH  20  23
ATOM     23  N   UNL     1       2.699   6.001  19.867  0.00  0.00    +0.000 N 
ATOM     24  H   UNL     1       2.361   6.769  20.443  0.00  0.00    +0.000 HD
BRANCH  23  25
ATOM     25  C   UNL     1       2.642   4.685  20.402  0.00  0.00    +0.000 A 
ATOM     26  C   UNL     1       1.481   4.252  21.047  0.00  0.00    +0.000 A 
ATOM     27  C   UNL     1       1.398   2.944  21.527  0.00  0.00    +0.000 A 
ATOM     28  C   UNL     1       2.481   2.078  21.377  0.00  0.00    +0.000 A 
ATOM     29  C   UNL     1       3.640   2.522  20.741  0.00  0.00    +0.000 A 
ATOM     30 CL   UNL     1       4.983   1.456  20.584  0.00  0.00    +0.000 Cl
ATOM     31  C   UNL     1       3.722   3.820  20.241  0.00  0.00    +0.000 A 
ENDBRANCH  23  25
ENDBRANCH  20  23
ENDBRANCH   3  20
BRANCH   6  32
ATOM     32  O   UNL     1       7.678   5.515  15.607  0.00  0.00    +0.000 OA
ATOM     33  H   UNL     1       8.372   5.523  16.288  0.00  0.00    +0.000 HD
ENDBRANCH   6  32
TORSDOF 8
ENDMDL
MODEL 9
REMARK VINA RESULT:      -8.3      2.774      3.567
REMARK  Name = 
REMARK  10 active torsions:
REMARK  status: ('A' for Active; 'I' for Inactive)
REMARK    1  A    between atoms: C_1  and  C_2
REMARK    2  A    between atoms: C_5  and  C_6
REMARK    3  A    between atoms: C_7  and  C_8
REMARK    4  A    between atoms: C_8  and  C_9
REMARK    5  A    between atoms: C_9  and  C_10
REMARK    6  A    between atoms: N_12  and  C_13
REMARK    7  A    between atoms: C_15  and  S_16
REMARK    8  A    between atoms: S_16  and  N_19
REMARK    9  A    between atoms: N_19  and  C_20
REMARK   10  A    between atoms: C_29  and  O_30
REMARK                            x       y       z     vdW  Elec       q    Type
REMARK                         _______ _______ _______ _____ _____    ______ ____
ROOT
ATOM      1  C   UNL     1       6.203   6.834  16.852  0.00  0.00    +0.000 A 
ATOM      2  C   UNL     1       4.954   7.002  17.453  0.00  0.00    +0.000 A 
ATOM      3  C   UNL     1       4.023   5.961  17.449  0.00  0.00    +0.000 A 
ATOM      4  C   UNL     1       4.308   4.753  16.805  0.00  0.00    +0.000 A 
ATOM      5  C   UNL     1       5.545   4.584  16.174  0.00  0.00    +0.000 A 
ATOM      6  C   UNL     1       6.478   5.624  16.195  0.00  0.00    +0.000 A 
ENDROOT
BRANCH   1   9
ATOM      7  C   UNL     1       8.117   8.056  17.862  0.00  0.00    +0.000 C 
ATOM      8  O   UNL     1       8.274   7.329  18.838  0.00  0.00    +0.000 OA
ATOM      9  N   UNL     1       7.194   7.844  16.854  0.00  0.00    +0.000 N 
ATOM     10  H   UNL     1       7.282   8.354  15.980  0.00  0.00    +0.000 HD
BRANCH   7  11
ATOM     11  C   UNL     1       8.971   9.294  17.667  0.00  0.00    +0.000 C 
BRANCH  11  12
ATOM     12  C   UNL     1       8.777  10.228  18.866  0.00  0.00    +0.000 C 
BRANCH  12  19
ATOM     13  C   UNL     1       7.543  12.686  17.110  0.00  0.00    +0.000 C 
ATOM     14  C   UNL     1       8.789  12.664  17.910  0.00  0.00    +0.000 A 
ATOM     15  N   UNL     1       9.553  13.760  17.993  0.00  0.00    +0.000 NA
ATOM     16  O   UNL     1      10.602  13.426  18.825  0.00  0.00    +0.000 OA
ATOM     17  C   UNL     1      10.470  12.137  19.231  0.00  0.00    +0.000 A 
ATOM     18  C   UNL     1      11.504  11.634  20.155  0.00  0.00    +0.000 C 
ATOM     19  C   UNL     1       9.335  11.591  18.668  0.00  0.00    +0.000 A 
ENDBRANCH  12  19
ENDBRANCH  11  12
ENDBRANCH   7  11
ENDBRANCH   1   9
BRANCH   3  20
ATOM     20  S   UNL     1       2.433   6.225  18.212  0.00  0.00    +0.000 S 
ATOM     21  O   UNL     1       2.041   7.600  17.992  0.00  0.00    +0.000 OA
ATOM     22  O   UNL     1       1.582   5.132  17.796  0.00  0.00    +0.000 OA
BRANCH  20  23
ATOM     23  N   UNL     1       2.733   5.976  19.855  0.00  0.00    +0.000 N 
ATOM     24  H   UNL     1       2.407   6.747  20.433  0.00  0.00    +0.000 HD
BRANCH  23  25
ATOM     25  C   UNL     1       2.663   4.661  20.389  0.00  0.00    +0.000 A 
ATOM     26  C   UNL     1       1.490   4.229  21.011  0.00  0.00    +0.000 A 
ATOM     27  C   UNL     1       1.396   2.922  21.490  0.00  0.00    +0.000 A 
ATOM     28  C   UNL     1       2.481   2.055  21.363  0.00  0.00    +0.000 A 
ATOM     29  C   UNL     1       3.653   2.497  20.750  0.00  0.00    +0.000 A 
ATOM     30 CL   UNL     1       4.998   1.430  20.622  0.00  0.00    +0.000 Cl
ATOM     31  C   UNL     1       3.746   3.795  20.251  0.00  0.00    +0.000 A 
ENDBRANCH  23  25
ENDBRANCH  20  23
ENDBRANCH   3  20
BRANCH   6  32
ATOM     32  O   UNL     1       7.692   5.478  15.575  0.00  0.00    +0.000 OA
ATOM     33  H   UNL     1       8.012   4.573  15.730  0.00  0.00    +0.000 HD
ENDBRANCH   6  32
TORSDOF 8
ENDMDL
