MODEL 1
REMARK VINA RESULT:      -7.8      0.000      0.000
REMARK  Name = 
REMARK  8 active torsions:
REMARK  status: ('A' for Active; 'I' for Inactive)
REMARK    1  A    between atoms: C_2  and  C_5
REMARK    2  A    between atoms: C_9  and  C_10
REMARK    3  A    between atoms: C_10  and  N_11
REMARK    4  A    between atoms: C_10  and  C_25
REMARK    5  A    between atoms: N_11  and  C_12
REMARK    6  A    between atoms: C_12  and  C_13
REMARK    7  A    between atoms: C_15  and  C_16
REMARK    8  A    between atoms: C_16  and  C_17
REMARK                            x       y       z     vdW  Elec       q    Type
REMARK                         _______ _______ _______ _____ _____    ______ ____
ROOT
ATOM      1  N   UNL     1       1.627   5.631  19.612  0.00  0.00    +0.000 NA
ATOM      2  H   UNL     1       0.800   5.078  19.839  0.00  0.00    +0.000 HD
ENDROOT
BRANCH   1   3
ATOM      3  C   UNL     1       2.750   4.710  19.362  0.00  0.00    +0.000 C 
BRANCH   3   8
ATOM      4  C   UNL     1       6.337   5.854  18.458  0.00  0.00    +0.000 A 
ATOM      5  C   UNL     1       6.099   6.533  17.255  0.00  0.00    +0.000 A 
ATOM      6  C   UNL     1       4.804   6.646  16.758  0.00  0.00    +0.000 A 
ATOM      7  C   UNL     1       3.732   6.081  17.457  0.00  0.00    +0.000 A 
ATOM      8  C   UNL     1       3.926   5.400  18.669  0.00  0.00    +0.000 A 
ATOM      9  C   UNL     1       5.248   5.297  19.157  0.00  0.00    +0.000 A 
BRANCH   4  11
ATOM     10  F   UNL     1       7.799   5.491  20.335  0.00  0.00    +0.000 F 
ATOM     11  C   UNL     1       7.743   5.694  18.986  0.00  0.00    +0.000 C 
ATOM     12  F   UNL     1       8.518   6.787  18.748  0.00  0.00    +0.000 F 
ATOM     13  F   UNL     1       8.399   4.639  18.429  0.00  0.00    +0.000 F 
ENDBRANCH   4  11
ENDBRANCH   3   8
BRANCH   3  14
ATOM     14  C   UNL     1       2.188   3.576  18.522  0.00  0.00    +0.000 C 
ATOM     15  C   UNL     1       2.137   2.174  19.108  0.00  0.00    +0.000 C 
ATOM     16  C   UNL     1       3.049   2.463  17.955  0.00  0.00    +0.000 C 
ENDBRANCH   3  14
ENDBRANCH   1   3
BRANCH   1  17
ATOM     17  C   UNL     1       1.883   6.513  20.761  0.00  0.00    +0.000 C 
BRANCH  17  18
ATOM     18  C   UNL     1       1.500   7.932  20.494  0.00  0.00    +0.000 A 
ATOM     19  N   UNL     1       1.599   8.648  19.391  0.00  0.00    +0.000 NA
ATOM     20  C   UNL     1       0.937   9.808  19.739  0.00  0.00    +0.000 A 
ATOM     21  N   UNL     1       0.432   9.809  20.982  0.00  0.00    +0.000 NA
ATOM     22  O   UNL     1       0.823   8.573  21.493  0.00  0.00    +0.000 OA
BRANCH  20  23
ATOM     23  C   UNL     1       0.613  10.877  18.757  0.00  0.00    +0.000 C 
BRANCH  23  24
ATOM     24  C   UNL     1      -0.856  10.782  18.431  0.00  0.00    +0.000 A 
ATOM     25  C   UNL     1      -1.776  11.669  19.011  0.00  0.00    +0.000 A 
ATOM     26  C   UNL     1      -3.128  11.616  18.668  0.00  0.00    +0.000 A 
ATOM     27  C   UNL     1      -3.579  10.676  17.743  0.00  0.00    +0.000 A 
ATOM     28  C   UNL     1      -2.679   9.784  17.165  0.00  0.00    +0.000 A 
ATOM     29  C   UNL     1      -1.326   9.834  17.506  0.00  0.00    +0.000 A 
ENDBRANCH  23  24
ENDBRANCH  20  23
ENDBRANCH  17  18
ENDBRANCH   1  17
TORSDOF 8
ENDMDL
MODEL 2
REMARK VINA RESULT:      -7.8      1.391      1.728
REMARK  Name = 
REMARK  8 active torsions:
REMARK  status: ('A' for Active; 'I' for Inactive)
REMARK    1  A    between atoms: C_2  and  C_5
REMARK    2  A    between atoms: C_9  and  C_10
REMARK    3  A    between atoms: C_10  and  N_11
REMARK    4  A    between atoms: C_10  and  C_25
REMARK    5  A    between atoms: N_11  and  C_12
REMARK    6  A    between atoms: C_12  and  C_13
REMARK    7  A    between atoms: C_15  and  C_16
REMARK    8  A    between atoms: C_16  and  C_17
REMARK                            x       y       z     vdW  Elec       q    Type
REMARK                         _______ _______ _______ _____ _____    ______ ____
ROOT
ATOM      1  N   UNL     1       1.753   6.036  19.862  0.00  0.00    +0.000 NA
ATOM      2  H   UNL     1       0.889   5.727  20.307  0.00  0.00    +0.000 HD
ENDROOT
BRANCH   1   3
ATOM      3  C   UNL     1       2.806   5.047  20.151  0.00  0.00    +0.000 C 
BRANCH   3   8
ATOM      4  C   UNL     1       6.096   4.965  18.111  0.00  0.00    +0.000 A 
ATOM      5  C   UNL     1       5.637   4.436  16.897  0.00  0.00    +0.000 A 
ATOM      6  C   UNL     1       4.289   4.138  16.727  0.00  0.00    +0.000 A 
ATOM      7  C   UNL     1       3.383   4.365  17.769  0.00  0.00    +0.000 A 
ATOM      8  C   UNL     1       3.800   4.901  18.998  0.00  0.00    +0.000 A 
ATOM      9  C   UNL     1       5.174   5.198  19.149  0.00  0.00    +0.000 A 
BRANCH   4  11
ATOM     10  F   UNL     1       8.384   4.259  17.876  0.00  0.00    +0.000 F 
ATOM     11  C   UNL     1       7.563   5.257  18.316  0.00  0.00    +0.000 C 
ATOM     12  F   UNL     1       7.882   5.442  19.627  0.00  0.00    +0.000 F 
ATOM     13  F   UNL     1       7.974   6.381  17.666  0.00  0.00    +0.000 F 
ENDBRANCH   4  11
ENDBRANCH   3   8
BRANCH   3  14
ATOM     14  C   UNL     1       2.090   3.741  20.447  0.00  0.00    +0.000 C 
ATOM     15  C   UNL     1       2.101   3.195  21.866  0.00  0.00    +0.000 C 
ATOM     16  C   UNL     1       2.823   2.456  20.781  0.00  0.00    +0.000 C 
ENDBRANCH   3  14
ENDBRANCH   1   3
BRANCH   1  17
ATOM     17  C   UNL     1       2.073   7.360  20.417  0.00  0.00    +0.000 C 
BRANCH  17  18
ATOM     18  C   UNL     1       1.557   8.479  19.572  0.00  0.00    +0.000 A 
ATOM     19  N   UNL     1       0.605   9.360  19.815  0.00  0.00    +0.000 NA
ATOM     20  C   UNL     1       0.718  10.210  18.733  0.00  0.00    +0.000 A 
ATOM     21  N   UNL     1       1.698   9.893  17.874  0.00  0.00    +0.000 NA
ATOM     22  O   UNL     1       2.243   8.731  18.419  0.00  0.00    +0.000 OA
BRANCH  20  23
ATOM     23  C   UNL     1      -0.030  11.492  18.635  0.00  0.00    +0.000 C 
BRANCH  23  24
ATOM     24  C   UNL     1      -1.467  11.171  18.309  0.00  0.00    +0.000 A 
ATOM     25  C   UNL     1      -2.513  11.900  18.895  0.00  0.00    +0.000 A 
ATOM     26  C   UNL     1      -3.841  11.639  18.553  0.00  0.00    +0.000 A 
ATOM     27  C   UNL     1      -4.141  10.645  17.623  0.00  0.00    +0.000 A 
ATOM     28  C   UNL     1      -3.115   9.908  17.039  0.00  0.00    +0.000 A 
ATOM     29  C   UNL     1      -1.785  10.167  17.379  0.00  0.00    +0.000 A 
ENDBRANCH  23  24
ENDBRANCH  20  23
ENDBRANCH  17  18
ENDBRANCH   1  17
TORSDOF 8
ENDMDL
MODEL 3
REMARK VINA RESULT:      -7.7      1.926      2.540
REMARK  Name = 
REMARK  8 active torsions:
REMARK  status: ('A' for Active; 'I' for Inactive)
REMARK    1  A    between atoms: C_2  and  C_5
REMARK    2  A    between atoms: C_9  and  C_10
REMARK    3  A    between atoms: C_10  and  N_11
REMARK    4  A    between atoms: C_10  and  C_25
REMARK    5  A    between atoms: N_11  and  C_12
REMARK    6  A    between atoms: C_12  and  C_13
REMARK    7  A    between atoms: C_15  and  C_16
REMARK    8  A    between atoms: C_16  and  C_17
REMARK                            x       y       z     vdW  Elec       q    Type
REMARK                         _______ _______ _______ _____ _____    ______ ____
ROOT
ATOM      1  N   UNL     1       2.646   5.832  19.492  0.00  0.00    +0.000 NA
ATOM      2  H   UNL     1       3.234   6.249  20.215  0.00  0.00    +0.000 HD
ENDROOT
BRANCH   1   3
ATOM      3  C   UNL     1       3.253   4.555  19.076  0.00  0.00    +0.000 C 
BRANCH   3   8
ATOM      4  C   UNL     1       6.114   4.827  16.482  0.00  0.00    +0.000 A 
ATOM      5  C   UNL     1       7.159   5.289  17.295  0.00  0.00    +0.000 A 
ATOM      6  C   UNL     1       6.956   5.481  18.657  0.00  0.00    +0.000 A 
ATOM      7  C   UNL     1       5.705   5.215  19.225  0.00  0.00    +0.000 A 
ATOM      8  C   UNL     1       4.634   4.745  18.448  0.00  0.00    +0.000 A 
ATOM      9  C   UNL     1       4.862   4.555  17.066  0.00  0.00    +0.000 A 
BRANCH   4  11
ATOM     10  F   UNL     1       7.481   5.195  14.536  0.00  0.00    +0.000 F 
ATOM     11  C   UNL     1       6.316   4.651  14.996  0.00  0.00    +0.000 C 
ATOM     12  F   UNL     1       5.327   5.230  14.261  0.00  0.00    +0.000 F 
ATOM     13  F   UNL     1       6.349   3.343  14.619  0.00  0.00    +0.000 F 
ENDBRANCH   4  11
ENDBRANCH   3   8
BRANCH   3  14
ATOM     14  C   UNL     1       2.274   3.919  18.104  0.00  0.00    +0.000 C 
ATOM     15  C   UNL     1       1.183   3.006  18.641  0.00  0.00    +0.000 C 
ATOM     16  C   UNL     1       2.273   2.436  17.786  0.00  0.00    +0.000 C 
ENDBRANCH   3  14
ENDBRANCH   1   3
BRANCH   1  17
ATOM     17  C   UNL     1       2.578   6.797  18.384  0.00  0.00    +0.000 C 
BRANCH  17  18
ATOM     18  C   UNL     1       2.024   8.120  18.806  0.00  0.00    +0.000 A 
ATOM     19  N   UNL     1       1.832   9.223  18.109  0.00  0.00    +0.000 NA
ATOM     20  C   UNL     1       1.155  10.018  19.011  0.00  0.00    +0.000 A 
ATOM     21  N   UNL     1       0.917   9.439  20.197  0.00  0.00    +0.000 NA
ATOM     22  O   UNL     1       1.512   8.184  20.070  0.00  0.00    +0.000 OA
BRANCH  20  23
ATOM     23  C   UNL     1       0.545  11.322  18.636  0.00  0.00    +0.000 C 
BRANCH  23  24
ATOM     24  C   UNL     1      -0.912  11.083  18.327  0.00  0.00    +0.000 A 
ATOM     25  C   UNL     1      -1.301  10.021  17.496  0.00  0.00    +0.000 A 
ATOM     26  C   UNL     1      -2.652   9.767  17.253  0.00  0.00    +0.000 A 
ATOM     27  C   UNL     1      -3.631  10.572  17.832  0.00  0.00    +0.000 A 
ATOM     28  C   UNL     1      -3.260  11.635  18.652  0.00  0.00    +0.000 A 
ATOM     29  C   UNL     1      -1.909  11.891  18.898  0.00  0.00    +0.000 A 
ENDBRANCH  23  24
ENDBRANCH  20  23
ENDBRANCH  17  18
ENDBRANCH   1  17
TORSDOF 8
ENDMDL
MODEL 4
REMARK VINA RESULT:      -7.7      1.983      2.463
REMARK  Name = 
REMARK  8 active torsions:
REMARK  status: ('A' for Active; 'I' for Inactive)
REMARK    1  A    between atoms: C_2  and  C_5
REMARK    2  A    between atoms: C_9  and  C_10
REMARK    3  A    between atoms: C_10  and  N_11
REMARK    4  A    between atoms: C_10  and  C_25
REMARK    5  A    between atoms: N_11  and  C_12
REMARK    6  A    between atoms: C_12  and  C_13
REMARK    7  A    between atoms: C_15  and  C_16
REMARK    8  A    between atoms: C_16  and  C_17
REMARK                            x       y       z     vdW  Elec       q    Type
REMARK                         _______ _______ _______ _____ _____    ______ ____
ROOT
ATOM      1  N   UNL     1       2.044   6.008  18.112  0.00  0.00    +0.000 NA
ATOM      2  H   UNL     1       1.252   6.167  18.735  0.00  0.00    +0.000 HD
ENDROOT
BRANCH   1   3
ATOM      3  C   UNL     1       2.740   4.784  18.545  0.00  0.00    +0.000 C 
BRANCH   3   8
ATOM      4  C   UNL     1       5.912   4.677  16.327  0.00  0.00    +0.000 A 
ATOM      5  C   UNL     1       6.909   4.902  17.286  0.00  0.00    +0.000 A 
ATOM      6  C   UNL     1       6.570   5.056  18.626  0.00  0.00    +0.000 A 
ATOM      7  C   UNL     1       5.230   4.988  19.024  0.00  0.00    +0.000 A 
ATOM      8  C   UNL     1       4.203   4.757  18.097  0.00  0.00    +0.000 A 
ATOM      9  C   UNL     1       4.568   4.602  16.741  0.00  0.00    +0.000 A 
BRANCH   4  11
ATOM     10  F   UNL     1       7.450   5.145  14.536  0.00  0.00    +0.000 F 
ATOM     11  C   UNL     1       6.268   4.545  14.865  0.00  0.00    +0.000 C 
ATOM     12  F   UNL     1       5.334   5.104  14.047  0.00  0.00    +0.000 F 
ATOM     13  F   UNL     1       6.391   3.249  14.467  0.00  0.00    +0.000 F 
ENDBRANCH   4  11
ENDBRANCH   3   8
BRANCH   3  14
ATOM     14  C   UNL     1       1.952   3.622  17.967  0.00  0.00    +0.000 C 
ATOM     15  C   UNL     1       1.073   2.791  18.888  0.00  0.00    +0.000 C 
ATOM     16  C   UNL     1       2.284   2.172  18.261  0.00  0.00    +0.000 C 
ENDBRANCH   3  14
ENDBRANCH   1   3
BRANCH   1  17
ATOM     17  C   UNL     1       2.907   7.196  18.205  0.00  0.00    +0.000 C 
BRANCH  17  18
ATOM     18  C   UNL     1       2.171   8.407  18.678  0.00  0.00    +0.000 A 
ATOM     19  N   UNL     1       1.903   9.538  18.053  0.00  0.00    +0.000 NA
ATOM     20  C   UNL     1       1.072  10.173  18.954  0.00  0.00    +0.000 A 
ATOM     21  N   UNL     1       0.816   9.471  20.068  0.00  0.00    +0.000 NA
ATOM     22  O   UNL     1       1.562   8.306  19.896  0.00  0.00    +0.000 OA
BRANCH  20  23
ATOM     23  C   UNL     1       0.342  11.428  18.629  0.00  0.00    +0.000 C 
BRANCH  23  24
ATOM     24  C   UNL     1      -1.088  11.067  18.313  0.00  0.00    +0.000 A 
ATOM     25  C   UNL     1      -2.150  11.777  18.894  0.00  0.00    +0.000 A 
ATOM     26  C   UNL     1      -3.472  11.479  18.561  0.00  0.00    +0.000 A 
ATOM     27  C   UNL     1      -3.751  10.467  17.645  0.00  0.00    +0.000 A 
ATOM     28  C   UNL     1      -2.709   9.748  17.065  0.00  0.00    +0.000 A 
ATOM     29  C   UNL     1      -1.385  10.044  17.397  0.00  0.00    +0.000 A 
ENDBRANCH  23  24
ENDBRANCH  20  23
ENDBRANCH  17  18
ENDBRANCH   1  17
TORSDOF 8
ENDMDL
MODEL 5
REMARK VINA RESULT:      -7.6      5.114      8.262
REMARK  Name = 
REMARK  8 active torsions:
REMARK  status: ('A' for Active; 'I' for Inactive)
REMARK    1  A    between atoms: C_2  and  C_5
REMARK    2  A    between atoms: C_9  and  C_10
REMARK    3  A    between atoms: C_10  and  N_11
REMARK    4  A    between atoms: C_10  and  C_25
REMARK    5  A    between atoms: N_11  and  C_12
REMARK    6  A    between atoms: C_12  and  C_13
REMARK    7  A    between atoms: C_15  and  C_16
REMARK    8  A    between atoms: C_16  and  C_17
REMARK                            x       y       z     vdW  Elec       q    Type
REMARK                         _______ _______ _______ _____ _____    ______ ____
ROOT
ATOM      1  N   UNL     1       5.312   6.892  17.018  0.00  0.00    +0.000 NA
ATOM      2  H   UNL     1       4.860   7.435  17.755  0.00  0.00    +0.000 HD
ENDROOT
BRANCH   1   3
ATOM      3  C   UNL     1       4.489   5.700  16.746  0.00  0.00    +0.000 C 
BRANCH   3   8
ATOM      4  C   UNL     1       2.051   3.885  19.144  0.00  0.00    +0.000 A 
ATOM      5  C   UNL     1       1.746   4.921  20.039  0.00  0.00    +0.000 A 
ATOM      6  C   UNL     1       2.291   6.187  19.857  0.00  0.00    +0.000 A 
ATOM      7  C   UNL     1       3.149   6.435  18.780  0.00  0.00    +0.000 A 
ATOM      8  C   UNL     1       3.474   5.428  17.857  0.00  0.00    +0.000 A 
ATOM      9  C   UNL     1       2.908   4.148  18.059  0.00  0.00    +0.000 A 
BRANCH   4  11
ATOM     10  F   UNL     1       1.323   2.173  20.671  0.00  0.00    +0.000 F 
ATOM     11  C   UNL     1       1.493   2.498  19.356  0.00  0.00    +0.000 C 
ATOM     12  F   UNL     1       2.295   1.527  18.840  0.00  0.00    +0.000 F 
ATOM     13  F   UNL     1       0.272   2.326  18.776  0.00  0.00    +0.000 F 
ENDBRANCH   4  11
ENDBRANCH   3   8
BRANCH   3  14
ATOM     14  C   UNL     1       5.462   4.546  16.577  0.00  0.00    +0.000 C 
ATOM     15  C   UNL     1       5.866   4.117  15.175  0.00  0.00    +0.000 C 
ATOM     16  C   UNL     1       5.050   3.193  16.026  0.00  0.00    +0.000 C 
ENDBRANCH   3  14
ENDBRANCH   1   3
BRANCH   1  17
ATOM     17  C   UNL     1       6.653   6.537  17.506  0.00  0.00    +0.000 C 
BRANCH  17  18
ATOM     18  C   UNL     1       7.504   7.736  17.774  0.00  0.00    +0.000 A 
ATOM     19  N   UNL     1       7.419   8.963  17.299  0.00  0.00    +0.000 NA
ATOM     20  C   UNL     1       8.376   9.625  18.041  0.00  0.00    +0.000 A 
ATOM     21  N   UNL     1       9.009   8.862  18.945  0.00  0.00    +0.000 NA
ATOM     22  O   UNL     1       8.446   7.601  18.754  0.00  0.00    +0.000 OA
BRANCH  20  23
ATOM     23  C   UNL     1       8.544  11.103  18.005  0.00  0.00    +0.000 C 
BRANCH  23  24
ATOM     24  C   UNL     1       9.858  11.440  18.664  0.00  0.00    +0.000 A 
ATOM     25  C   UNL     1      11.031  11.557  17.901  0.00  0.00    +0.000 A 
ATOM     26  C   UNL     1      12.236  11.921  18.502  0.00  0.00    +0.000 A 
ATOM     27  C   UNL     1      12.288  12.171  19.871  0.00  0.00    +0.000 A 
ATOM     28  C   UNL     1      11.135  12.052  20.643  0.00  0.00    +0.000 A 
ATOM     29  C   UNL     1       9.927  11.687  20.045  0.00  0.00    +0.000 A 
ENDBRANCH  23  24
ENDBRANCH  20  23
ENDBRANCH  17  18
ENDBRANCH   1  17
TORSDOF 8
ENDMDL
MODEL 6
REMARK VINA RESULT:      -7.5      6.530      9.372
REMARK  Name = 
REMARK  8 active torsions:
REMARK  status: ('A' for Active; 'I' for Inactive)
REMARK    1  A    between atoms: C_2  and  C_5
REMARK    2  A    between atoms: C_9  and  C_10
REMARK    3  A    between atoms: C_10  and  N_11
REMARK    4  A    between atoms: C_10  and  C_25
REMARK    5  A    between atoms: N_11  and  C_12
REMARK    6  A    between atoms: C_12  and  C_13
REMARK    7  A    between atoms: C_15  and  C_16
REMARK    8  A    between atoms: C_16  and  C_17
REMARK                            x       y       z     vdW  Elec       q    Type
REMARK                         _______ _______ _______ _____ _____    ______ ____
ROOT
ATOM      1  N   UNL     1       9.181   9.741  18.661  0.00  0.00    +0.000 NA
ATOM      2  H   UNL     1       9.187   9.082  19.440  0.00  0.00    +0.000 HD
ENDROOT
BRANCH   1   3
ATOM      3  C   UNL     1       9.059  11.105  19.205  0.00  0.00    +0.000 C 
BRANCH   3   8
ATOM      4  C   UNL     1      10.229  14.433  17.609  0.00  0.00    +0.000 A 
ATOM      5  C   UNL     1      11.446  14.035  17.037  0.00  0.00    +0.000 A 
ATOM      6  C   UNL     1      11.868  12.713  17.138  0.00  0.00    +0.000 A 
ATOM      7  C   UNL     1      11.080  11.773  17.812  0.00  0.00    +0.000 A 
ATOM      8  C   UNL     1       9.852  12.129  18.392  0.00  0.00    +0.000 A 
ATOM      9  C   UNL     1       9.441  13.476  18.277  0.00  0.00    +0.000 A 
BRANCH   4  11
ATOM     10  F   UNL     1      10.184  16.623  18.604  0.00  0.00    +0.000 F 
ATOM     11  C   UNL     1       9.781  15.873  17.537  0.00  0.00    +0.000 C 
ATOM     12  F   UNL     1       8.427  15.999  17.492  0.00  0.00    +0.000 F 
ATOM     13  F   UNL     1      10.256  16.519  16.436  0.00  0.00    +0.000 F 
ENDBRANCH   4  11
ENDBRANCH   3   8
BRANCH   3  14
ATOM     14  C   UNL     1       9.542  11.031  20.643  0.00  0.00    +0.000 C 
ATOM     15  C   UNL     1       8.719  11.695  21.736  0.00  0.00    +0.000 C 
ATOM     16  C   UNL     1      10.075  12.235  21.397  0.00  0.00    +0.000 C 
ENDBRANCH   3  14
ENDBRANCH   1   3
BRANCH   1  17
ATOM     17  C   UNL     1       8.039   9.385  17.805  0.00  0.00    +0.000 C 
BRANCH  17  18
ATOM     18  C   UNL     1       7.863   7.907  17.665  0.00  0.00    +0.000 A 
ATOM     19  N   UNL     1       7.645   6.985  18.583  0.00  0.00    +0.000 NA
ATOM     20  C   UNL     1       7.418   5.862  17.813  0.00  0.00    +0.000 A 
ATOM     21  N   UNL     1       7.469   6.073  16.490  0.00  0.00    +0.000 NA
ATOM     22  O   UNL     1       7.785   7.427  16.389  0.00  0.00    +0.000 OA
BRANCH  20  23
ATOM     23  C   UNL     1       6.940   4.576  18.387  0.00  0.00    +0.000 C 
BRANCH  23  24
ATOM     24  C   UNL     1       5.432   4.591  18.374  0.00  0.00    +0.000 A 
ATOM     25  C   UNL     1       4.716   5.326  19.333  0.00  0.00    +0.000 A 
ATOM     26  C   UNL     1       3.323   5.384  19.289  0.00  0.00    +0.000 A 
ATOM     27  C   UNL     1       2.625   4.708  18.290  0.00  0.00    +0.000 A 
ATOM     28  C   UNL     1       3.321   3.968  17.337  0.00  0.00    +0.000 A 
ATOM     29  C   UNL     1       4.715   3.908  17.378  0.00  0.00    +0.000 A 
ENDBRANCH  23  24
ENDBRANCH  20  23
ENDBRANCH  17  18
ENDBRANCH   1  17
TORSDOF 8
ENDMDL
MODEL 7
REMARK VINA RESULT:      -7.5      1.205      1.786
REMARK  Name = 
REMARK  8 active torsions:
REMARK  status: ('A' for Active; 'I' for Inactive)
REMARK    1  A    between atoms: C_2  and  C_5
REMARK    2  A    between atoms: C_9  and  C_10
REMARK    3  A    between atoms: C_10  and  N_11
REMARK    4  A    between atoms: C_10  and  C_25
REMARK    5  A    between atoms: N_11  and  C_12
REMARK    6  A    between atoms: C_12  and  C_13
REMARK    7  A    between atoms: C_15  and  C_16
REMARK    8  A    between atoms: C_16  and  C_17
REMARK                            x       y       z     vdW  Elec       q    Type
REMARK                         _______ _______ _______ _____ _____    ______ ____
ROOT
ATOM      1  N   UNL     1       2.638   6.588  20.377  0.00  0.00    +0.000 NA
ATOM      2  H   UNL     1       2.635   7.050  19.467  0.00  0.00    +0.000 HD
ENDROOT
BRANCH   1   3
ATOM      3  C   UNL     1       2.889   5.151  20.170  0.00  0.00    +0.000 C 
BRANCH   3   8
ATOM      4  C   UNL     1       6.019   4.877  17.907  0.00  0.00    +0.000 A 
ATOM      5  C   UNL     1       5.481   4.207  16.798  0.00  0.00    +0.000 A 
ATOM      6  C   UNL     1       4.131   3.876  16.767  0.00  0.00    +0.000 A 
ATOM      7  C   UNL     1       3.301   4.209  17.843  0.00  0.00    +0.000 A 
ATOM      8  C   UNL     1       3.797   4.886  18.968  0.00  0.00    +0.000 A 
ATOM      9  C   UNL     1       5.171   5.215  18.980  0.00  0.00    +0.000 A 
BRANCH   4  11
ATOM     10  F   UNL     1       7.833   6.305  17.228  0.00  0.00    +0.000 F 
ATOM     11  C   UNL     1       7.491   5.208  17.965  0.00  0.00    +0.000 C 
ATOM     12  F   UNL     1       8.274   4.197  17.500  0.00  0.00    +0.000 F 
ATOM     13  F   UNL     1       7.924   5.468  19.230  0.00  0.00    +0.000 F 
ENDBRANCH   4  11
ENDBRANCH   3   8
BRANCH   3  14
ATOM     14  C   UNL     1       1.526   4.503  20.000  0.00  0.00    +0.000 C 
ATOM     15  C   UNL     1       1.107   3.396  20.954  0.00  0.00    +0.000 C 
ATOM     16  C   UNL     1       1.344   3.080  19.509  0.00  0.00    +0.000 C 
ENDBRANCH   3  14
ENDBRANCH   1   3
BRANCH   1  17
ATOM     17  C   UNL     1       1.322   6.834  20.987  0.00  0.00    +0.000 C 
BRANCH  17  18
ATOM     18  C   UNL     1       0.866   8.248  20.820  0.00  0.00    +0.000 A 
ATOM     19  N   UNL     1       1.070   9.097  19.832  0.00  0.00    +0.000 NA
ATOM     20  C   UNL     1       0.268  10.160  20.196  0.00  0.00    +0.000 A 
ATOM     21  N   UNL     1      -0.416   9.978  21.335  0.00  0.00    +0.000 NA
ATOM     22  O   UNL     1      -0.004   8.716  21.763  0.00  0.00    +0.000 OA
BRANCH  20  23
ATOM     23  C   UNL     1       0.008  11.317  19.298  0.00  0.00    +0.000 C 
BRANCH  23  24
ATOM     24  C   UNL     1      -1.348  11.123  18.667  0.00  0.00    +0.000 A 
ATOM     25  C   UNL     1      -1.545  10.141  17.684  0.00  0.00    +0.000 A 
ATOM     26  C   UNL     1      -2.811   9.925  17.138  0.00  0.00    +0.000 A 
ATOM     27  C   UNL     1      -3.896  10.687  17.565  0.00  0.00    +0.000 A 
ATOM     28  C   UNL     1      -3.715  11.671  18.535  0.00  0.00    +0.000 A 
ATOM     29  C   UNL     1      -2.449  11.889  19.083  0.00  0.00    +0.000 A 
ENDBRANCH  23  24
ENDBRANCH  20  23
ENDBRANCH  17  18
ENDBRANCH   1  17
TORSDOF 8
ENDMDL
MODEL 8
REMARK VINA RESULT:      -7.5      0.768      1.396
REMARK  Name = 
REMARK  8 active torsions:
REMARK  status: ('A' for Active; 'I' for Inactive)
REMARK    1  A    between atoms: C_2  and  C_5
REMARK    2  A    between atoms: C_9  and  C_10
REMARK    3  A    between atoms: C_10  and  N_11
REMARK    4  A    between atoms: C_10  and  C_25
REMARK    5  A    between atoms: N_11  and  C_12
REMARK    6  A    between atoms: C_12  and  C_13
REMARK    7  A    between atoms: C_15  and  C_16
REMARK    8  A    between atoms: C_16  and  C_17
REMARK                            x       y       z     vdW  Elec       q    Type
REMARK                         _______ _______ _______ _____ _____    ______ ____
ROOT
ATOM      1  N   UNL     1       2.446   5.534  21.126  0.00  0.00    +0.000 NA
ATOM      2  H   UNL     1       3.123   6.293  21.206  0.00  0.00    +0.000 HD
ENDROOT
BRANCH   1   3
ATOM      3  C   UNL     1       2.856   4.657  20.014  0.00  0.00    +0.000 C 
BRANCH   3   8
ATOM      4  C   UNL     1       6.165   5.820  18.374  0.00  0.00    +0.000 A 
ATOM      5  C   UNL     1       5.678   6.443  17.216  0.00  0.00    +0.000 A 
ATOM      6  C   UNL     1       4.309   6.514  16.983  0.00  0.00    +0.000 A 
ATOM      7  C   UNL     1       3.410   5.962  17.902  0.00  0.00    +0.000 A 
ATOM      8  C   UNL     1       3.856   5.337  19.076  0.00  0.00    +0.000 A 
ATOM      9  C   UNL     1       5.250   5.276  19.296  0.00  0.00    +0.000 A 
BRANCH   4  11
ATOM     10  F   UNL     1       8.230   4.649  17.975  0.00  0.00    +0.000 F 
ATOM     11  C   UNL     1       7.651   5.706  18.618  0.00  0.00    +0.000 C 
ATOM     12  F   UNL     1       7.955   5.543  19.935  0.00  0.00    +0.000 F 
ATOM     13  F   UNL     1       8.340   6.806  18.205  0.00  0.00    +0.000 F 
ENDBRANCH   4  11
ENDBRANCH   3   8
BRANCH   3  14
ATOM     14  C   UNL     1       1.580   4.267  19.290  0.00  0.00    +0.000 C 
ATOM     15  C   UNL     1       0.971   2.898  19.549  0.00  0.00    +0.000 C 
ATOM     16  C   UNL     1       1.540   3.213  18.200  0.00  0.00    +0.000 C 
ENDBRANCH   3  14
ENDBRANCH   1   3
BRANCH   1  17
ATOM     17  C   UNL     1       1.134   6.153  20.883  0.00  0.00    +0.000 C 
BRANCH  17  18
ATOM     18  C   UNL     1       1.220   7.634  20.707  0.00  0.00    +0.000 A 
ATOM     19  N   UNL     1       1.350   8.355  19.610  0.00  0.00    +0.000 NA
ATOM     20  C   UNL     1       1.207   9.640  20.091  0.00  0.00    +0.000 A 
ATOM     21  N   UNL     1       0.978   9.719  21.411  0.00  0.00    +0.000 NA
ATOM     22  O   UNL     1       1.008   8.389  21.825  0.00  0.00    +0.000 OA
BRANCH  20  23
ATOM     23  C   UNL     1       1.092  10.826  19.201  0.00  0.00    +0.000 C 
BRANCH  23  24
ATOM     24  C   UNL     1      -0.358  10.987  18.821  0.00  0.00    +0.000 A 
ATOM     25  C   UNL     1      -0.936  10.165  17.841  0.00  0.00    +0.000 A 
ATOM     26  C   UNL     1      -2.291  10.277  17.528  0.00  0.00    +0.000 A 
ATOM     27  C   UNL     1      -3.087  11.213  18.186  0.00  0.00    +0.000 A 
ATOM     28  C   UNL     1      -2.526  12.042  19.155  0.00  0.00    +0.000 A 
ATOM     29  C   UNL     1      -1.170  11.932  19.471  0.00  0.00    +0.000 A 
ENDBRANCH  23  24
ENDBRANCH  20  23
ENDBRANCH  17  18
ENDBRANCH   1  17
TORSDOF 8
ENDMDL
MODEL 9
REMARK VINA RESULT:      -7.5      4.659      8.333
REMARK  Name = 
REMARK  8 active torsions:
REMARK  status: ('A' for Active; 'I' for Inactive)
REMARK    1  A    between atoms: C_2  and  C_5
REMARK    2  A    between atoms: C_9  and  C_10
REMARK    3  A    between atoms: C_10  and  N_11
REMARK    4  A    between atoms: C_10  and  C_25
REMARK    5  A    between atoms: N_11  and  C_12
REMARK    6  A    between atoms: C_12  and  C_13
REMARK    7  A    between atoms: C_15  and  C_16
REMARK    8  A    between atoms: C_16  and  C_17
REMARK                            x       y       z     vdW  Elec       q    Type
REMARK                         _______ _______ _______ _____ _____    ______ ____
ROOT
ATOM      1  N   UNL     1       3.294   7.244  17.031  0.00  0.00    +0.000 NA
ATOM      2  H   UNL     1       3.082   8.022  16.405  0.00  0.00    +0.000 HD
ENDROOT
BRANCH   1   3
ATOM      3  C   UNL     1       2.748   7.555  18.363  0.00  0.00    +0.000 C 
BRANCH   3   8
ATOM      4  C   UNL     1       1.794   3.892  19.176  0.00  0.00    +0.000 A 
ATOM      5  C   UNL     1       1.634   3.967  20.567  0.00  0.00    +0.000 A 
ATOM      6  C   UNL     1       1.800   5.179  21.228  0.00  0.00    +0.000 A 
ATOM      7  C   UNL     1       2.130   6.332  20.507  0.00  0.00    +0.000 A 
ATOM      8  C   UNL     1       2.293   6.302  19.113  0.00  0.00    +0.000 A 
ATOM      9  C   UNL     1       2.118   5.061  18.461  0.00  0.00    +0.000 A 
BRANCH   4  11
ATOM     10  F   UNL     1       2.283   1.538  19.085  0.00  0.00    +0.000 F 
ATOM     11  C   UNL     1       1.652   2.573  18.456  0.00  0.00    +0.000 C 
ATOM     12  F   UNL     1       2.167   2.605  17.197  0.00  0.00    +0.000 F 
ATOM     13  F   UNL     1       0.354   2.182  18.322  0.00  0.00    +0.000 F 
ENDBRANCH   4  11
ENDBRANCH   3   8
BRANCH   3  14
ATOM     14  C   UNL     1       1.600   8.523  18.134  0.00  0.00    +0.000 C 
ATOM     15  C   UNL     1       1.896  10.009  18.013  0.00  0.00    +0.000 C 
ATOM     16  C   UNL     1       1.122   9.502  19.190  0.00  0.00    +0.000 C 
ENDBRANCH   3  14
ENDBRANCH   1   3
BRANCH   1  17
ATOM     17  C   UNL     1       4.758   7.100  17.055  0.00  0.00    +0.000 C 
BRANCH  17  18
ATOM     18  C   UNL     1       5.246   6.021  16.143  0.00  0.00    +0.000 A 
ATOM     19  N   UNL     1       5.904   6.104  15.004  0.00  0.00    +0.000 NA
ATOM     20  C   UNL     1       6.196   4.780  14.744  0.00  0.00    +0.000 A 
ATOM     21  N   UNL     1       5.764   3.920  15.679  0.00  0.00    +0.000 NA
ATOM     22  O   UNL     1       5.114   4.741  16.599  0.00  0.00    +0.000 OA
BRANCH  20  23
ATOM     23  C   UNL     1       7.100   4.355  13.642  0.00  0.00    +0.000 C 
BRANCH  23  24
ATOM     24  C   UNL     1       6.278   3.602  12.627  0.00  0.00    +0.000 A 
ATOM     25  C   UNL     1       6.808   2.482  11.967  0.00  0.00    +0.000 A 
ATOM     26  C   UNL     1       6.029   1.753  11.067  0.00  0.00    +0.000 A 
ATOM     27  C   UNL     1       4.713   2.132  10.813  0.00  0.00    +0.000 A 
ATOM     28  C   UNL     1       4.176   3.246  11.454  0.00  0.00    +0.000 A 
ATOM     29  C   UNL     1       4.952   3.978  12.355  0.00  0.00    +0.000 A 
ENDBRANCH  23  24
ENDBRANCH  20  23
ENDBRANCH  17  18
ENDBRANCH   1  17
TORSDOF 8
ENDMDL
