MODEL 1
REMARK VINA RESULT:     -10.3      0.000      0.000
REMARK  Name = 
REMARK  3 active torsions:
REMARK  status: ('A' for Active; 'I' for Inactive)
REMARK    1  A    between atoms: C_2  and  C_3
REMARK    2  A    between atoms: C_23  and  C_24
REMARK    3  A    between atoms: C_24  and  C_25
REMARK                            x       y       z     vdW  Elec       q    Type
REMARK                         _______ _______ _______ _____ _____    ______ ____
ROOT
ATOM      1  O   UNL     1       2.204   8.594  18.180  0.00  0.00    +0.000 OA
ATOM      2  C   UNL     1       1.794   8.094  19.232  0.00  0.00    +0.000 C 
ATOM      3  N   UNL     1       2.113   6.778  19.583  0.00  0.00    +0.000 N 
ATOM      4  C   UNL     1       1.682   6.127  20.826  0.00  0.00    +0.000 C 
ATOM      5  C   UNL     1       2.296   4.771  21.145  0.00  0.00    +0.000 C 
ATOM      6  C   UNL     1       2.208   3.912  19.920  0.00  0.00    +0.000 A 
ATOM      7  C   UNL     1       1.845   2.566  19.997  0.00  0.00    +0.000 A 
ATOM      8  C   UNL     1       1.760   1.805  18.833  0.00  0.00    +0.000 A 
ATOM      9  C   UNL     1       2.038   2.389  17.593  0.00  0.00    +0.000 A 
ATOM     10  C   UNL     1       2.405   3.733  17.516  0.00  0.00    +0.000 A 
ATOM     11  C   UNL     1       2.496   4.505  18.678  0.00  0.00    +0.000 A 
ATOM     12  C   UNL     1       2.942   5.964  18.641  0.00  0.00    +0.000 C 
ENDROOT
BRANCH   2  13
ATOM     13  C   UNL     1       0.987   8.964  20.193  0.00  0.00    +0.000 A 
ATOM     14  C   UNL     1       0.174   9.892  19.656  0.00  0.00    +0.000 A 
ATOM     15  C   UNL     1      -0.572  10.808  20.531  0.00  0.00    +0.000 A 
ATOM     16  C   UNL     1      -1.456  11.754  20.010  0.00  0.00    +0.000 A 
ATOM     17  C   UNL     1      -2.138  12.629  20.866  0.00  0.00    +0.000 A 
ATOM     18  C   UNL     1      -1.930  12.573  22.246  0.00  0.00    +0.000 A 
ATOM     19  C   UNL     1      -1.050  11.635  22.778  0.00  0.00    +0.000 A 
ATOM     20  C   UNL     1      -0.385  10.753  21.919  0.00  0.00    +0.000 A 
ATOM     21  C   UNL     1       0.502   9.709  22.469  0.00  0.00    +0.000 A 
ATOM     22  O   UNL     1       0.725   9.606  23.670  0.00  0.00    +0.000 OA
ATOM     23  N   UNL     1       1.063   8.845  21.563  0.00  0.00    +0.000 N 
ATOM     24  H   UNL     1       1.547   8.077  21.991  0.00  0.00    +0.000 HD
ENDBRANCH   2  13
BRANCH  12  25
ATOM     25  C   UNL     1       4.458   6.117  18.977  0.00  0.00    +0.000 C 
BRANCH  25  26
ATOM     26  C   UNL     1       5.417   5.659  17.893  0.00  0.00    +0.000 A 
ATOM     27  C   UNL     1       5.133   5.892  16.545  0.00  0.00    +0.000 A 
ATOM     28  C   UNL     1       6.006   5.442  15.550  0.00  0.00    +0.000 A 
ATOM     29  C   UNL     1       7.168   4.754  15.895  0.00  0.00    +0.000 A 
ATOM     30  C   UNL     1       7.467   4.524  17.236  0.00  0.00    +0.000 A 
ATOM     31  C   UNL     1       6.600   4.979  18.231  0.00  0.00    +0.000 A 
ENDBRANCH  25  26
ENDBRANCH  12  25
TORSDOF 3
ENDMDL
MODEL 2
REMARK VINA RESULT:     -10.1      1.426      1.494
REMARK  Name = 
REMARK  3 active torsions:
REMARK  status: ('A' for Active; 'I' for Inactive)
REMARK    1  A    between atoms: C_2  and  C_3
REMARK    2  A    between atoms: C_23  and  C_24
REMARK    3  A    between atoms: C_24  and  C_25
REMARK                            x       y       z     vdW  Elec       q    Type
REMARK                         _______ _______ _______ _____ _____    ______ ____
ROOT
ATOM      1  O   UNL     1       2.230   8.914  17.152  0.00  0.00    +0.000 OA
ATOM      2  C   UNL     1       1.783   8.701  18.283  0.00  0.00    +0.000 C 
ATOM      3  N   UNL     1       2.017   7.490  18.940  0.00  0.00    +0.000 N 
ATOM      4  C   UNL     1       1.537   7.176  20.291  0.00  0.00    +0.000 C 
ATOM      5  C   UNL     1       2.064   5.900  20.934  0.00  0.00    +0.000 C 
ATOM      6  C   UNL     1       1.934   4.783  19.944  0.00  0.00    +0.000 A 
ATOM      7  C   UNL     1       1.488   3.517  20.327  0.00  0.00    +0.000 A 
ATOM      8  C   UNL     1       1.366   2.509  19.373  0.00  0.00    +0.000 A 
ATOM      9  C   UNL     1       1.689   2.766  18.037  0.00  0.00    +0.000 A 
ATOM     10  C   UNL     1       2.138   4.031  17.654  0.00  0.00    +0.000 A 
ATOM     11  C   UNL     1       2.267   5.049  18.604  0.00  0.00    +0.000 A 
ATOM     12  C   UNL     1       2.802   6.430  18.234  0.00  0.00    +0.000 C 
ENDROOT
BRANCH   2  13
ATOM     13  C   UNL     1       1.022   9.818  18.994  0.00  0.00    +0.000 A 
ATOM     14  C   UNL     1      -0.262  10.015  18.644  0.00  0.00    +0.000 A 
ATOM     15  C   UNL     1      -1.023  11.122  19.240  0.00  0.00    +0.000 A 
ATOM     16  C   UNL     1      -2.369  11.330  18.933  0.00  0.00    +0.000 A 
ATOM     17  C   UNL     1      -3.064  12.406  19.500  0.00  0.00    +0.000 A 
ATOM     18  C   UNL     1      -2.415  13.291  20.365  0.00  0.00    +0.000 A 
ATOM     19  C   UNL     1      -1.073  13.096  20.678  0.00  0.00    +0.000 A 
ATOM     20  C   UNL     1      -0.389  12.009  20.122  0.00  0.00    +0.000 A 
ATOM     21  C   UNL     1       1.016  11.749  20.492  0.00  0.00    +0.000 A 
ATOM     22  O   UNL     1       1.641  12.485  21.247  0.00  0.00    +0.000 OA
ATOM     23  N   UNL     1       1.591  10.625  19.953  0.00  0.00    +0.000 N 
ATOM     24  H   UNL     1       2.496  10.418  20.336  0.00  0.00    +0.000 HD
ENDBRANCH   2  13
BRANCH  12  25
ATOM     25  C   UNL     1       4.322   6.570  18.559  0.00  0.00    +0.000 C 
BRANCH  25  26
ATOM     26  C   UNL     1       5.265   5.927  17.559  0.00  0.00    +0.000 A 
ATOM     27  C   UNL     1       5.021   6.020  16.186  0.00  0.00    +0.000 A 
ATOM     28  C   UNL     1       5.878   5.402  15.271  0.00  0.00    +0.000 A 
ATOM     29  C   UNL     1       6.984   4.682  15.721  0.00  0.00    +0.000 A 
ATOM     30  C   UNL     1       7.244   4.590  17.087  0.00  0.00    +0.000 A 
ATOM     31  C   UNL     1       6.393   5.213  18.002  0.00  0.00    +0.000 A 
ENDBRANCH  25  26
ENDBRANCH  12  25
TORSDOF 3
ENDMDL
MODEL 3
REMARK VINA RESULT:     -10.1      1.459      1.884
REMARK  Name = 
REMARK  3 active torsions:
REMARK  status: ('A' for Active; 'I' for Inactive)
REMARK    1  A    between atoms: C_2  and  C_3
REMARK    2  A    between atoms: C_23  and  C_24
REMARK    3  A    between atoms: C_24  and  C_25
REMARK                            x       y       z     vdW  Elec       q    Type
REMARK                         _______ _______ _______ _____ _____    ______ ____
ROOT
ATOM      1  O   UNL     1       2.291   8.801  17.196  0.00  0.00    +0.000 OA
ATOM      2  C   UNL     1       1.842   8.576  18.325  0.00  0.00    +0.000 C 
ATOM      3  N   UNL     1       2.064   7.353  18.964  0.00  0.00    +0.000 N 
ATOM      4  C   UNL     1       1.582   7.026  20.312  0.00  0.00    +0.000 C 
ATOM      5  C   UNL     1       2.097   5.735  20.936  0.00  0.00    +0.000 C 
ATOM      6  C   UNL     1       1.952   4.634  19.930  0.00  0.00    +0.000 A 
ATOM      7  C   UNL     1       1.493   3.367  20.296  0.00  0.00    +0.000 A 
ATOM      8  C   UNL     1       1.358   2.375  19.327  0.00  0.00    +0.000 A 
ATOM      9  C   UNL     1       1.682   2.647  17.995  0.00  0.00    +0.000 A 
ATOM     10  C   UNL     1       2.145   3.912  17.629  0.00  0.00    +0.000 A 
ATOM     11  C   UNL     1       2.286   4.915  18.593  0.00  0.00    +0.000 A 
ATOM     12  C   UNL     1       2.837   6.295  18.242  0.00  0.00    +0.000 C 
ENDROOT
BRANCH   2  13
ATOM     13  C   UNL     1       1.095   9.692  19.053  0.00  0.00    +0.000 A 
ATOM     14  C   UNL     1       0.705   9.455  20.318  0.00  0.00    +0.000 A 
ATOM     15  C   UNL     1      -0.082  10.462  21.044  0.00  0.00    +0.000 A 
ATOM     16  C   UNL     1      -0.467  10.268  22.372  0.00  0.00    +0.000 A 
ATOM     17  C   UNL     1      -1.235  11.235  23.032  0.00  0.00    +0.000 A 
ATOM     18  C   UNL     1      -1.636  12.396  22.366  0.00  0.00    +0.000 A 
ATOM     19  C   UNL     1      -1.260  12.601  21.042  0.00  0.00    +0.000 A 
ATOM     20  C   UNL     1      -0.479  11.639  20.393  0.00  0.00    +0.000 A 
ATOM     21  C   UNL     1      -0.016  11.868  19.010  0.00  0.00    +0.000 A 
ATOM     22  O   UNL     1      -0.330  12.867  18.372  0.00  0.00    +0.000 OA
ATOM     23  N   UNL     1       0.801  10.905  18.472  0.00  0.00    +0.000 N 
ATOM     24  H   UNL     1       1.196  11.167  17.587  0.00  0.00    +0.000 HD
ENDBRANCH   2  13
BRANCH  12  25
ATOM     25  C   UNL     1       4.358   6.414  18.566  0.00  0.00    +0.000 C 
BRANCH  25  26
ATOM     26  C   UNL     1       5.294   5.811  17.535  0.00  0.00    +0.000 A 
ATOM     27  C   UNL     1       5.014   5.915  16.170  0.00  0.00    +0.000 A 
ATOM     28  C   UNL     1       5.865   5.333  15.226  0.00  0.00    +0.000 A 
ATOM     29  C   UNL     1       7.003   4.641  15.640  0.00  0.00    +0.000 A 
ATOM     30  C   UNL     1       7.299   4.539  16.997  0.00  0.00    +0.000 A 
ATOM     31  C   UNL     1       6.453   5.125  17.941  0.00  0.00    +0.000 A 
ENDBRANCH  25  26
ENDBRANCH  12  25
TORSDOF 3
ENDMDL
MODEL 4
REMARK VINA RESULT:      -9.9      2.033      2.317
REMARK  Name = 
REMARK  3 active torsions:
REMARK  status: ('A' for Active; 'I' for Inactive)
REMARK    1  A    between atoms: C_2  and  C_3
REMARK    2  A    between atoms: C_23  and  C_24
REMARK    3  A    between atoms: C_24  and  C_25
REMARK                            x       y       z     vdW  Elec       q    Type
REMARK                         _______ _______ _______ _____ _____    ______ ____
ROOT
ATOM      1  O   UNL     1       2.737   8.475  16.751  0.00  0.00    +0.000 OA
ATOM      2  C   UNL     1       2.241   8.499  17.881  0.00  0.00    +0.000 C 
ATOM      3  N   UNL     1       2.272   7.376  18.712  0.00  0.00    +0.000 N 
ATOM      4  C   UNL     1       1.723   7.340  20.074  0.00  0.00    +0.000 C 
ATOM      5  C   UNL     1       2.034   6.108  20.913  0.00  0.00    +0.000 C 
ATOM      6  C   UNL     1       1.751   4.890  20.086  0.00  0.00    +0.000 A 
ATOM      7  C   UNL     1       1.107   3.775  20.627  0.00  0.00    +0.000 A 
ATOM      8  C   UNL     1       0.849   2.668  19.821  0.00  0.00    +0.000 A 
ATOM      9  C   UNL     1       1.234   2.675  18.478  0.00  0.00    +0.000 A 
ATOM     10  C   UNL     1       1.881   3.787  17.937  0.00  0.00    +0.000 A 
ATOM     11  C   UNL     1       2.147   4.903  18.737  0.00  0.00    +0.000 A 
ATOM     12  C   UNL     1       2.897   6.118  18.198  0.00  0.00    +0.000 C 
ENDROOT
BRANCH   2  13
ATOM     13  C   UNL     1       1.648   9.810  18.394  0.00  0.00    +0.000 A 
ATOM     14  C   UNL     1       2.294  10.948  18.080  0.00  0.00    +0.000 A 
ATOM     15  C   UNL     1       1.814  12.233  18.606  0.00  0.00    +0.000 A 
ATOM     16  C   UNL     1       2.434  13.437  18.267  0.00  0.00    +0.000 A 
ATOM     17  C   UNL     1       1.968  14.646  18.801  0.00  0.00    +0.000 A 
ATOM     18  C   UNL     1       0.889  14.658  19.688  0.00  0.00    +0.000 A 
ATOM     19  C   UNL     1       0.263  13.464  20.036  0.00  0.00    +0.000 A 
ATOM     20  C   UNL     1       0.723  12.263  19.486  0.00  0.00    +0.000 A 
ATOM     21  C   UNL     1       0.031  10.995  19.792  0.00  0.00    +0.000 A 
ATOM     22  O   UNL     1      -0.922  10.937  20.560  0.00  0.00    +0.000 OA
ATOM     23  N   UNL     1       0.506   9.873  19.159  0.00  0.00    +0.000 N 
ATOM     24  H   UNL     1      -0.075   9.064  19.293  0.00  0.00    +0.000 HD
ENDBRANCH   2  13
BRANCH  12  25
ATOM     25  C   UNL     1       4.413   6.075  18.562  0.00  0.00    +0.000 C 
BRANCH  25  26
ATOM     26  C   UNL     1       5.337   5.593  17.458  0.00  0.00    +0.000 A 
ATOM     27  C   UNL     1       4.986   5.753  16.115  0.00  0.00    +0.000 A 
ATOM     28  C   UNL     1       5.827   5.282  15.102  0.00  0.00    +0.000 A 
ATOM     29  C   UNL     1       7.025   4.645  15.425  0.00  0.00    +0.000 A 
ATOM     30  C   UNL     1       7.390   4.488  16.760  0.00  0.00    +0.000 A 
ATOM     31  C   UNL     1       6.554   4.965  17.772  0.00  0.00    +0.000 A 
ENDBRANCH  25  26
ENDBRANCH  12  25
TORSDOF 3
ENDMDL
MODEL 5
REMARK VINA RESULT:      -9.9      1.263      1.622
REMARK  Name = 
REMARK  3 active torsions:
REMARK  status: ('A' for Active; 'I' for Inactive)
REMARK    1  A    between atoms: C_2  and  C_3
REMARK    2  A    between atoms: C_23  and  C_24
REMARK    3  A    between atoms: C_24  and  C_25
REMARK                            x       y       z     vdW  Elec       q    Type
REMARK                         _______ _______ _______ _____ _____    ______ ____
ROOT
ATOM      1  O   UNL     1       2.465   8.702  17.330  0.00  0.00    +0.000 OA
ATOM      2  C   UNL     1       1.996   8.500  18.454  0.00  0.00    +0.000 C 
ATOM      3  N   UNL     1       2.131   7.259  19.084  0.00  0.00    +0.000 N 
ATOM      4  C   UNL     1       1.621   6.954  20.427  0.00  0.00    +0.000 C 
ATOM      5  C   UNL     1       2.044   5.628  21.043  0.00  0.00    +0.000 C 
ATOM      6  C   UNL     1       1.832   4.546  20.027  0.00  0.00    +0.000 A 
ATOM      7  C   UNL     1       1.287   3.310  20.381  0.00  0.00    +0.000 A 
ATOM      8  C   UNL     1       1.092   2.336  19.404  0.00  0.00    +0.000 A 
ATOM      9  C   UNL     1       1.442   2.597  18.076  0.00  0.00    +0.000 A 
ATOM     10  C   UNL     1       1.991   3.831  17.722  0.00  0.00    +0.000 A 
ATOM     11  C   UNL     1       2.192   4.815  18.695  0.00  0.00    +0.000 A 
ATOM     12  C   UNL     1       2.836   6.157  18.359  0.00  0.00    +0.000 C 
ENDROOT
BRANCH   2  13
ATOM     13  C   UNL     1       1.320   9.657  19.186  0.00  0.00    +0.000 A 
ATOM     14  C   UNL     1       1.058  10.771  18.479  0.00  0.00    +0.000 A 
ATOM     15  C   UNL     1       0.478  11.944  19.147  0.00  0.00    +0.000 A 
ATOM     16  C   UNL     1       0.153  13.101  18.437  0.00  0.00    +0.000 A 
ATOM     17  C   UNL     1      -0.379  14.213  19.103  0.00  0.00    +0.000 A 
ATOM     18  C   UNL     1      -0.578  14.180  20.486  0.00  0.00    +0.000 A 
ATOM     19  C   UNL     1      -0.258  13.033  21.206  0.00  0.00    +0.000 A 
ATOM     20  C   UNL     1       0.258  11.921  20.532  0.00  0.00    +0.000 A 
ATOM     21  C   UNL     1       0.543  10.673  21.268  0.00  0.00    +0.000 A 
ATOM     22  O   UNL     1       0.388  10.579  22.481  0.00  0.00    +0.000 OA
ATOM     23  N   UNL     1       0.984   9.611  20.521  0.00  0.00    +0.000 N 
ATOM     24  H   UNL     1       1.036   8.752  21.040  0.00  0.00    +0.000 HD
ENDBRANCH   2  13
BRANCH  12  25
ATOM     25  C   UNL     1       4.360   6.172  18.692  0.00  0.00    +0.000 C 
BRANCH  25  26
ATOM     26  C   UNL     1       5.272   5.636  17.603  0.00  0.00    +0.000 A 
ATOM     27  C   UNL     1       6.475   5.003  17.929  0.00  0.00    +0.000 A 
ATOM     28  C   UNL     1       7.324   4.537  16.921  0.00  0.00    +0.000 A 
ATOM     29  C   UNL     1       6.979   4.702  15.580  0.00  0.00    +0.000 A 
ATOM     30  C   UNL     1       5.778   5.322  15.243  0.00  0.00    +0.000 A 
ATOM     31  C   UNL     1       4.925   5.782  16.249  0.00  0.00    +0.000 A 
ENDBRANCH  25  26
ENDBRANCH  12  25
TORSDOF 3
ENDMDL
MODEL 6
REMARK VINA RESULT:      -9.7      1.917      2.323
REMARK  Name = 
REMARK  3 active torsions:
REMARK  status: ('A' for Active; 'I' for Inactive)
REMARK    1  A    between atoms: C_2  and  C_3
REMARK    2  A    between atoms: C_23  and  C_24
REMARK    3  A    between atoms: C_24  and  C_25
REMARK                            x       y       z     vdW  Elec       q    Type
REMARK                         _______ _______ _______ _____ _____    ______ ____
ROOT
ATOM      1  O   UNL     1       2.711   8.550  16.772  0.00  0.00    +0.000 OA
ATOM      2  C   UNL     1       2.209   8.572  17.900  0.00  0.00    +0.000 C 
ATOM      3  N   UNL     1       2.243   7.450  18.732  0.00  0.00    +0.000 N 
ATOM      4  C   UNL     1       1.687   7.412  20.091  0.00  0.00    +0.000 C 
ATOM      5  C   UNL     1       2.003   6.183  20.933  0.00  0.00    +0.000 C 
ATOM      6  C   UNL     1       1.731   4.962  20.106  0.00  0.00    +0.000 A 
ATOM      7  C   UNL     1       1.092   3.844  20.645  0.00  0.00    +0.000 A 
ATOM      8  C   UNL     1       0.845   2.734  19.839  0.00  0.00    +0.000 A 
ATOM      9  C   UNL     1       1.236   2.742  18.497  0.00  0.00    +0.000 A 
ATOM     10  C   UNL     1       1.879   3.858  17.959  0.00  0.00    +0.000 A 
ATOM     11  C   UNL     1       2.134   4.976  18.759  0.00  0.00    +0.000 A 
ATOM     12  C   UNL     1       2.879   6.196  18.222  0.00  0.00    +0.000 C 
ENDROOT
BRANCH   2  13
ATOM     13  C   UNL     1       1.606   9.880  18.408  0.00  0.00    +0.000 A 
ATOM     14  C   UNL     1       0.288   9.893  18.678  0.00  0.00    +0.000 A 
ATOM     15  C   UNL     1      -0.363  11.141  19.099  0.00  0.00    +0.000 A 
ATOM     16  C   UNL     1      -1.719  11.181  19.428  0.00  0.00    +0.000 A 
ATOM     17  C   UNL     1      -2.318  12.390  19.806  0.00  0.00    +0.000 A 
ATOM     18  C   UNL     1      -1.569  13.569  19.844  0.00  0.00    +0.000 A 
ATOM     19  C   UNL     1      -0.216  13.543  19.516  0.00  0.00    +0.000 A 
ATOM     20  C   UNL     1       0.379  12.330  19.156  0.00  0.00    +0.000 A 
ATOM     21  C   UNL     1       1.826  12.270  18.869  0.00  0.00    +0.000 A 
ATOM     22  O   UNL     1       2.539  13.267  18.886  0.00  0.00    +0.000 OA
ATOM     23  N   UNL     1       2.342  11.030  18.588  0.00  0.00    +0.000 N 
ATOM     24  H   UNL     1       3.345  11.018  18.532  0.00  0.00    +0.000 HD
ENDBRANCH   2  13
BRANCH  12  25
ATOM     25  C   UNL     1       4.393   6.162  18.594  0.00  0.00    +0.000 C 
BRANCH  25  26
ATOM     26  C   UNL     1       5.317   5.616  17.521  0.00  0.00    +0.000 A 
ATOM     27  C   UNL     1       6.509   4.972  17.866  0.00  0.00    +0.000 A 
ATOM     28  C   UNL     1       7.370   4.496  16.873  0.00  0.00    +0.000 A 
ATOM     29  C   UNL     1       7.048   4.663  15.526  0.00  0.00    +0.000 A 
ATOM     30  C   UNL     1       5.858   5.293  15.169  0.00  0.00    +0.000 A 
ATOM     31  C   UNL     1       4.994   5.763  16.161  0.00  0.00    +0.000 A 
ENDBRANCH  25  26
ENDBRANCH  12  25
TORSDOF 3
ENDMDL
MODEL 7
REMARK VINA RESULT:      -9.4      1.854      2.338
REMARK  Name = 
REMARK  3 active torsions:
REMARK  status: ('A' for Active; 'I' for Inactive)
REMARK    1  A    between atoms: C_2  and  C_3
REMARK    2  A    between atoms: C_23  and  C_24
REMARK    3  A    between atoms: C_24  and  C_25
REMARK                            x       y       z     vdW  Elec       q    Type
REMARK                         _______ _______ _______ _____ _____    ______ ____
ROOT
ATOM      1  O   UNL     1       2.384   8.899  16.954  0.00  0.00    +0.000 OA
ATOM      2  C   UNL     1       1.868   8.809  18.072  0.00  0.00    +0.000 C 
ATOM      3  N   UNL     1       1.991   7.645  18.837  0.00  0.00    +0.000 N 
ATOM      4  C   UNL     1       1.425   7.475  20.181  0.00  0.00    +0.000 C 
ATOM      5  C   UNL     1       1.838   6.229  20.953  0.00  0.00    +0.000 C 
ATOM      6  C   UNL     1       1.685   5.042  20.050  0.00  0.00    +0.000 A 
ATOM      7  C   UNL     1       1.141   3.841  20.509  0.00  0.00    +0.000 A 
ATOM      8  C   UNL     1       1.003   2.766  19.634  0.00  0.00    +0.000 A 
ATOM      9  C   UNL     1       1.407   2.890  18.302  0.00  0.00    +0.000 A 
ATOM     10  C   UNL     1       1.955   4.089  17.843  0.00  0.00    +0.000 A 
ATOM     11  C   UNL     1       2.101   5.174  18.713  0.00  0.00    +0.000 A 
ATOM     12  C   UNL     1       2.742   6.485  18.263  0.00  0.00    +0.000 C 
ENDROOT
BRANCH   2  13
ATOM     13  C   UNL     1       1.146  10.025  18.648  0.00  0.00    +0.000 A 
ATOM     14  C   UNL     1       1.890  10.940  19.295  0.00  0.00    +0.000 A 
ATOM     15  C   UNL     1       1.242  12.094  19.934  0.00  0.00    +0.000 A 
ATOM     16  C   UNL     1       1.986  13.085  20.577  0.00  0.00    +0.000 A 
ATOM     17  C   UNL     1       1.340  14.163  21.196  0.00  0.00    +0.000 A 
ATOM     18  C   UNL     1      -0.055  14.250  21.189  0.00  0.00    +0.000 A 
ATOM     19  C   UNL     1      -0.809  13.268  20.553  0.00  0.00    +0.000 A 
ATOM     20  C   UNL     1      -0.156  12.203  19.922  0.00  0.00    +0.000 A 
ATOM     21  C   UNL     1      -0.935  11.187  19.187  0.00  0.00    +0.000 A 
ATOM     22  O   UNL     1      -2.160  11.208  19.141  0.00  0.00    +0.000 OA
ATOM     23  N   UNL     1      -0.214  10.214  18.542  0.00  0.00    +0.000 N 
ATOM     24  H   UNL     1      -0.775   9.629  17.950  0.00  0.00    +0.000 HD
ENDBRANCH   2  13
BRANCH  12  25
ATOM     25  C   UNL     1       4.249   6.561  18.658  0.00  0.00    +0.000 C 
BRANCH  25  26
ATOM     26  C   UNL     1       5.211   5.888  17.696  0.00  0.00    +0.000 A 
ATOM     27  C   UNL     1       6.377   5.278  18.165  0.00  0.00    +0.000 A 
ATOM     28  C   UNL     1       7.274   4.685  17.271  0.00  0.00    +0.000 A 
ATOM     29  C   UNL     1       7.013   4.700  15.902  0.00  0.00    +0.000 A 
ATOM     30  C   UNL     1       5.849   5.296  15.423  0.00  0.00    +0.000 A 
ATOM     31  C   UNL     1       4.949   5.883  16.315  0.00  0.00    +0.000 A 
ENDBRANCH  25  26
ENDBRANCH  12  25
TORSDOF 3
ENDMDL
MODEL 8
REMARK VINA RESULT:      -9.2      1.092      1.409
REMARK  Name = 
REMARK  3 active torsions:
REMARK  status: ('A' for Active; 'I' for Inactive)
REMARK    1  A    between atoms: C_2  and  C_3
REMARK    2  A    between atoms: C_23  and  C_24
REMARK    3  A    between atoms: C_24  and  C_25
REMARK                            x       y       z     vdW  Elec       q    Type
REMARK                         _______ _______ _______ _____ _____    ______ ____
ROOT
ATOM      1  O   UNL     1       1.804   8.985  17.432  0.00  0.00    +0.000 OA
ATOM      2  C   UNL     1       1.637   8.590  18.589  0.00  0.00    +0.000 C 
ATOM      3  N   UNL     1       2.140   7.357  19.016  0.00  0.00    +0.000 N 
ATOM      4  C   UNL     1       2.000   6.835  20.380  0.00  0.00    +0.000 C 
ATOM      5  C   UNL     1       2.792   5.581  20.726  0.00  0.00    +0.000 C 
ATOM      6  C   UNL     1       2.576   4.571  19.639  0.00  0.00    +0.000 A 
ATOM      7  C   UNL     1       2.366   3.222  19.928  0.00  0.00    +0.000 A 
ATOM      8  C   UNL     1       2.155   2.317  18.889  0.00  0.00    +0.000 A 
ATOM      9  C   UNL     1       2.152   2.761  17.564  0.00  0.00    +0.000 A 
ATOM     10  C   UNL     1       2.365   4.110  17.274  0.00  0.00    +0.000 A 
ATOM     11  C   UNL     1       2.581   5.025  18.308  0.00  0.00    +0.000 A 
ATOM     12  C   UNL     1       2.868   6.499  18.030  0.00  0.00    +0.000 C 
ENDROOT
BRANCH   2  13
ATOM     13  C   UNL     1       0.928   9.508  19.583  0.00  0.00    +0.000 A 
ATOM     14  C   UNL     1       0.994  10.833  19.361  0.00  0.00    +0.000 A 
ATOM     15  C   UNL     1       0.395  11.769  20.322  0.00  0.00    +0.000 A 
ATOM     16  C   UNL     1       0.408  13.148  20.102  0.00  0.00    +0.000 A 
ATOM     17  C   UNL     1      -0.152  14.018  21.046  0.00  0.00    +0.000 A 
ATOM     18  C   UNL     1      -0.716  13.518  22.223  0.00  0.00    +0.000 A 
ATOM     19  C   UNL     1      -0.734  12.145  22.455  0.00  0.00    +0.000 A 
ATOM     20  C   UNL     1      -0.188  11.281  21.500  0.00  0.00    +0.000 A 
ATOM     21  C   UNL     1      -0.256   9.819  21.698  0.00  0.00    +0.000 A 
ATOM     22  O   UNL     1      -0.739   9.317  22.707  0.00  0.00    +0.000 OA
ATOM     23  N   UNL     1       0.244   9.042  20.684  0.00  0.00    +0.000 N 
ATOM     24  H   UNL     1       0.056   8.063  20.802  0.00  0.00    +0.000 HD
ENDBRANCH   2  13
BRANCH  12  25
ATOM     25  C   UNL     1       4.396   6.809  18.060  0.00  0.00    +0.000 C 
BRANCH  25  26
ATOM     26  C   UNL     1       5.251   5.973  17.127  0.00  0.00    +0.000 A 
ATOM     27  C   UNL     1       6.224   5.107  17.634  0.00  0.00    +0.000 A 
ATOM     28  C   UNL     1       7.028   4.360  16.769  0.00  0.00    +0.000 A 
ATOM     29  C   UNL     1       6.868   4.475  15.388  0.00  0.00    +0.000 A 
ATOM     30  C   UNL     1       5.896   5.327  14.870  0.00  0.00    +0.000 A 
ATOM     31  C   UNL     1       5.087   6.069  15.734  0.00  0.00    +0.000 A 
ENDBRANCH  25  26
ENDBRANCH  12  25
TORSDOF 3
ENDMDL
MODEL 9
REMARK VINA RESULT:      -8.8      2.313      8.463
REMARK  Name = 
REMARK  3 active torsions:
REMARK  status: ('A' for Active; 'I' for Inactive)
REMARK    1  A    between atoms: C_2  and  C_3
REMARK    2  A    between atoms: C_23  and  C_24
REMARK    3  A    between atoms: C_24  and  C_25
REMARK                            x       y       z     vdW  Elec       q    Type
REMARK                         _______ _______ _______ _____ _____    ______ ____
ROOT
ATOM      1  O   UNL     1       1.282   9.294  17.227  0.00  0.00    +0.000 OA
ATOM      2  C   UNL     1       1.467   8.814  18.350  0.00  0.00    +0.000 C 
ATOM      3  N   UNL     1       0.668   9.181  19.436  0.00  0.00    +0.000 N 
ATOM      4  C   UNL     1       0.815   8.635  20.792  0.00  0.00    +0.000 C 
ATOM      5  C   UNL     1      -0.273   8.981  21.799  0.00  0.00    +0.000 C 
ATOM      6  C   UNL     1      -0.521  10.459  21.737  0.00  0.00    +0.000 A 
ATOM      7  C   UNL     1      -0.703  11.217  22.895  0.00  0.00    +0.000 A 
ATOM      8  C   UNL     1      -0.916  12.590  22.795  0.00  0.00    +0.000 A 
ATOM      9  C   UNL     1      -0.948  13.205  21.541  0.00  0.00    +0.000 A 
ATOM     10  C   UNL     1      -0.771  12.447  20.382  0.00  0.00    +0.000 A 
ATOM     11  C   UNL     1      -0.558  11.068  20.470  0.00  0.00    +0.000 A 
ATOM     12  C   UNL     1      -0.410  10.196  19.226  0.00  0.00    +0.000 C 
ENDROOT
BRANCH   2  13
ATOM     13  C   UNL     1       2.547   7.748  18.523  0.00  0.00    +0.000 A 
ATOM     14  C   UNL     1       3.586   7.772  17.670  0.00  0.00    +0.000 A 
ATOM     15  C   UNL     1       4.618   6.728  17.740  0.00  0.00    +0.000 A 
ATOM     16  C   UNL     1       5.732   6.746  16.900  0.00  0.00    +0.000 A 
ATOM     17  C   UNL     1       6.690   5.726  16.974  0.00  0.00    +0.000 A 
ATOM     18  C   UNL     1       6.532   4.674  17.880  0.00  0.00    +0.000 A 
ATOM     19  C   UNL     1       5.425   4.643  18.723  0.00  0.00    +0.000 A 
ATOM     20  C   UNL     1       4.482   5.674  18.655  0.00  0.00    +0.000 A 
ATOM     21  C   UNL     1       3.335   5.693  19.585  0.00  0.00    +0.000 A 
ATOM     22  O   UNL     1       3.142   4.801  20.404  0.00  0.00    +0.000 OA
ATOM     23  N   UNL     1       2.495   6.773  19.494  0.00  0.00    +0.000 N 
ATOM     24  H   UNL     1       1.812   6.810  20.230  0.00  0.00    +0.000 HD
ENDBRANCH   2  13
BRANCH  12  25
ATOM     25  C   UNL     1      -1.751   9.497  18.843  0.00  0.00    +0.000 C 
BRANCH  25  26
ATOM     26  C   UNL     1      -2.504  10.120  17.682  0.00  0.00    +0.000 A 
ATOM     27  C   UNL     1      -3.605  10.951  17.909  0.00  0.00    +0.000 A 
ATOM     28  C   UNL     1      -4.312  11.499  16.836  0.00  0.00    +0.000 A 
ATOM     29  C   UNL     1      -3.927  11.218  15.525  0.00  0.00    +0.000 A 
ATOM     30  C   UNL     1      -2.826  10.400  15.285  0.00  0.00    +0.000 A 
ATOM     31  C   UNL     1      -2.114   9.857  16.357  0.00  0.00    +0.000 A 
ENDBRANCH  25  26
ENDBRANCH  12  25
TORSDOF 3
ENDMDL
