MODEL 1
REMARK VINA RESULT:      -8.8      0.000      0.000
REMARK  Name = 
REMARK  4 active torsions:
REMARK  status: ('A' for Active; 'I' for Inactive)
REMARK    1  A    between atoms: C_1  and  N_2
REMARK    2  A    between atoms: C_6  and  C_7
REMARK    3  A    between atoms: C_11  and  N_12
REMARK    4  A    between atoms: C_20  and  C_21
REMARK                            x       y       z     vdW  Elec       q    Type
REMARK                         _______ _______ _______ _____ _____    ______ ____
ROOT
ATOM      1  N   UNL     1       3.685   4.963  19.394  0.00  0.00    +0.000 N 
ATOM      2  C   UNL     1       5.075   5.480  19.439  0.00  0.00    +0.000 C 
ATOM      3  C   UNL     1       5.587   5.128  18.072  0.00  0.00    +0.000 A 
ATOM      4  C   UNL     1       4.856   4.023  17.624  0.00  0.00    +0.000 A 
ATOM      5  C   UNL     1       4.966   3.514  16.344  0.00  0.00    +0.000 A 
ATOM      6  C   UNL     1       5.849   4.162  15.493  0.00  0.00    +0.000 A 
ATOM      7  F   UNL     1       5.942   3.765  14.217  0.00  0.00    +0.000 F 
ATOM      8  C   UNL     1       6.588   5.280  15.911  0.00  0.00    +0.000 A 
ATOM      9  C   UNL     1       6.470   5.786  17.222  0.00  0.00    +0.000 A 
ATOM     10  C   UNL     1       3.728   3.816  18.562  0.00  0.00    +0.000 C 
ATOM     11  O   UNL     1       2.902   2.931  18.441  0.00  0.00    +0.000 OA
ENDROOT
BRANCH   1  16
ATOM     12  C   UNL     1       1.822   8.089  19.799  0.00  0.00    +0.000 A 
ATOM     13  C   UNL     1       2.317   8.708  18.643  0.00  0.00    +0.000 A 
ATOM     14  C   UNL     1       2.793   7.961  17.573  0.00  0.00    +0.000 A 
ATOM     15  C   UNL     1       2.940   6.593  17.708  0.00  0.00    +0.000 A 
ATOM     16  C   UNL     1       2.762   6.009  18.972  0.00  0.00    +0.000 A 
ATOM     17  C   UNL     1       2.056   6.718  19.956  0.00  0.00    +0.000 A 
BRANCH  12  23
ATOM     18  C   UNL     1      -0.629  10.066  19.572  0.00  0.00    +0.000 C 
ATOM     19  N   UNL     1       0.128   9.741  20.745  0.00  0.00    +0.000 N 
ATOM     20  C   UNL     1      -0.115  10.228  21.994  0.00  0.00    +0.000 A 
ATOM     21  N   UNL     1       0.698   9.669  22.853  0.00  0.00    +0.000 NA
ATOM     22  N   UNL     1       1.505   8.802  22.155  0.00  0.00    +0.000 NA
ATOM     23  C   UNL     1       1.187   8.860  20.873  0.00  0.00    +0.000 A 
ENDBRANCH  12  23
ENDBRANCH   1  16
BRANCH   9  24
ATOM     24  C   UNL     1       7.198   7.057  17.582  0.00  0.00    +0.000 C 
ATOM     25  F   UNL     1       7.927   6.976  18.724  0.00  0.00    +0.000 F 
ATOM     26  F   UNL     1       8.072   7.439  16.609  0.00  0.00    +0.000 F 
ATOM     27  F   UNL     1       6.346   8.103  17.754  0.00  0.00    +0.000 F 
ENDBRANCH   9  24
TORSDOF 3
ENDMDL
MODEL 2
REMARK VINA RESULT:      -8.4      1.825      2.575
REMARK  Name = 
REMARK  4 active torsions:
REMARK  status: ('A' for Active; 'I' for Inactive)
REMARK    1  A    between atoms: C_1  and  N_2
REMARK    2  A    between atoms: C_6  and  C_7
REMARK    3  A    between atoms: C_11  and  N_12
REMARK    4  A    between atoms: C_20  and  C_21
REMARK                            x       y       z     vdW  Elec       q    Type
REMARK                         _______ _______ _______ _____ _____    ______ ____
ROOT
ATOM      1  N   UNL     1       3.223   6.150  20.178  0.00  0.00    +0.000 N 
ATOM      2  C   UNL     1       4.407   6.007  19.295  0.00  0.00    +0.000 C 
ATOM      3  C   UNL     1       4.069   4.772  18.511  0.00  0.00    +0.000 A 
ATOM      4  C   UNL     1       3.203   4.003  19.294  0.00  0.00    +0.000 A 
ATOM      5  C   UNL     1       2.577   2.861  18.830  0.00  0.00    +0.000 A 
ATOM      6  C   UNL     1       2.844   2.499  17.519  0.00  0.00    +0.000 A 
ATOM      7  F   UNL     1       2.208   1.448  16.986  0.00  0.00    +0.000 F 
ATOM      8  C   UNL     1       3.701   3.257  16.704  0.00  0.00    +0.000 A 
ATOM      9  C   UNL     1       4.337   4.418  17.192  0.00  0.00    +0.000 A 
ATOM     10  C   UNL     1       2.785   4.830  20.451  0.00  0.00    +0.000 C 
ATOM     11  O   UNL     1       2.024   4.443  21.318  0.00  0.00    +0.000 OA
ENDROOT
BRANCH   1  16
ATOM     12  C   UNL     1       1.124   9.144  19.985  0.00  0.00    +0.000 A 
ATOM     13  C   UNL     1       1.588   9.572  18.734  0.00  0.00    +0.000 A 
ATOM     14  C   UNL     1       2.136   8.677  17.824  0.00  0.00    +0.000 A 
ATOM     15  C   UNL     1       2.384   7.373  18.214  0.00  0.00    +0.000 A 
ATOM     16  C   UNL     1       2.230   7.025  19.565  0.00  0.00    +0.000 A 
ATOM     17  C   UNL     1       1.458   7.849  20.397  0.00  0.00    +0.000 A 
BRANCH  12  23
ATOM     18  C   UNL     1      -1.351  10.993  19.332  0.00  0.00    +0.000 C 
ATOM     19  N   UNL     1      -0.653  10.872  20.578  0.00  0.00    +0.000 N 
ATOM     20  C   UNL     1      -0.974  11.537  21.724  0.00  0.00    +0.000 A 
ATOM     21  N   UNL     1      -0.197  11.138  22.699  0.00  0.00    +0.000 NA
ATOM     22  N   UNL     1       0.664  10.198  22.184  0.00  0.00    +0.000 NA
ATOM     23  C   UNL     1       0.415  10.051  20.894  0.00  0.00    +0.000 A 
ENDBRANCH  12  23
ENDBRANCH   1  16
BRANCH   9  24
ATOM     24  C   UNL     1       5.153   5.257  16.242  0.00  0.00    +0.000 C 
ATOM     25  F   UNL     1       4.682   6.517  16.067  0.00  0.00    +0.000 F 
ATOM     26  F   UNL     1       6.442   5.397  16.662  0.00  0.00    +0.000 F 
ATOM     27  F   UNL     1       5.221   4.705  15.001  0.00  0.00    +0.000 F 
ENDBRANCH   9  24
TORSDOF 3
ENDMDL
MODEL 3
REMARK VINA RESULT:      -8.3      1.838      2.841
REMARK  Name = 
REMARK  4 active torsions:
REMARK  status: ('A' for Active; 'I' for Inactive)
REMARK    1  A    between atoms: C_1  and  N_2
REMARK    2  A    between atoms: C_6  and  C_7
REMARK    3  A    between atoms: C_11  and  N_12
REMARK    4  A    between atoms: C_20  and  C_21
REMARK                            x       y       z     vdW  Elec       q    Type
REMARK                         _______ _______ _______ _____ _____    ______ ____
ROOT
ATOM      1  N   UNL     1       4.177   3.072  19.042  0.00  0.00    +0.000 N 
ATOM      2  C   UNL     1       5.633   3.351  19.097  0.00  0.00    +0.000 C 
ATOM      3  C   UNL     1       5.808   4.340  17.981  0.00  0.00    +0.000 A 
ATOM      4  C   UNL     1       4.783   4.113  17.058  0.00  0.00    +0.000 A 
ATOM      5  C   UNL     1       4.552   4.933  15.969  0.00  0.00    +0.000 A 
ATOM      6  C   UNL     1       5.396   6.024  15.826  0.00  0.00    +0.000 A 
ATOM      7  F   UNL     1       5.175   6.899  14.836  0.00  0.00    +0.000 F 
ATOM      8  C   UNL     1       6.427   6.284  16.743  0.00  0.00    +0.000 A 
ATOM      9  C   UNL     1       6.655   5.436  17.847  0.00  0.00    +0.000 A 
ATOM     10  C   UNL     1       3.818   3.173  17.674  0.00  0.00    +0.000 C 
ATOM     11  O   UNL     1       2.808   2.782  17.121  0.00  0.00    +0.000 OA
ENDROOT
BRANCH   1  16
ATOM     12  C   UNL     1       2.136   5.994  19.882  0.00  0.00    +0.000 A 
ATOM     13  C   UNL     1       1.099   5.280  20.496  0.00  0.00    +0.000 A 
ATOM     14  C   UNL     1       1.316   4.023  21.046  0.00  0.00    +0.000 A 
ATOM     15  C   UNL     1       2.529   3.389  20.842  0.00  0.00    +0.000 A 
ATOM     16  C   UNL     1       3.451   3.955  19.947  0.00  0.00    +0.000 A 
ATOM     17  C   UNL     1       3.326   5.310  19.606  0.00  0.00    +0.000 A 
BRANCH  12  23
ATOM     18  C   UNL     1       1.145   8.472  21.568  0.00  0.00    +0.000 C 
ATOM     19  N   UNL     1       1.493   8.442  20.178  0.00  0.00    +0.000 N 
ATOM     20  C   UNL     1       1.478   9.519  19.343  0.00  0.00    +0.000 A 
ATOM     21  N   UNL     1       1.933   9.173  18.166  0.00  0.00    +0.000 NA
ATOM     22  N   UNL     1       2.243   7.835  18.220  0.00  0.00    +0.000 NA
ATOM     23  C   UNL     1       1.954   7.376  19.426  0.00  0.00    +0.000 A 
ENDBRANCH  12  23
ENDBRANCH   1  16
BRANCH   9  24
ATOM     24  C   UNL     1       7.698   5.825  18.863  0.00  0.00    +0.000 C 
ATOM     25  F   UNL     1       8.287   7.024  18.626  0.00  0.00    +0.000 F 
ATOM     26  F   UNL     1       7.181   5.907  20.121  0.00  0.00    +0.000 F 
ATOM     27  F   UNL     1       8.709   4.917  18.931  0.00  0.00    +0.000 F 
ENDBRANCH   9  24
TORSDOF 3
ENDMDL
MODEL 4
REMARK VINA RESULT:      -8.1      3.802      7.122
REMARK  Name = 
REMARK  4 active torsions:
REMARK  status: ('A' for Active; 'I' for Inactive)
REMARK    1  A    between atoms: C_1  and  N_2
REMARK    2  A    between atoms: C_6  and  C_7
REMARK    3  A    between atoms: C_11  and  N_12
REMARK    4  A    between atoms: C_20  and  C_21
REMARK                            x       y       z     vdW  Elec       q    Type
REMARK                         _______ _______ _______ _____ _____    ______ ____
ROOT
ATOM      1  N   UNL     1       3.488   3.142  17.064  0.00  0.00    +0.000 N 
ATOM      2  C   UNL     1       2.651   4.367  17.100  0.00  0.00    +0.000 C 
ATOM      3  C   UNL     1       2.395   4.531  18.571  0.00  0.00    +0.000 A 
ATOM      4  C   UNL     1       2.485   3.265  19.155  0.00  0.00    +0.000 A 
ATOM      5  C   UNL     1       2.441   3.058  20.521  0.00  0.00    +0.000 A 
ATOM      6  C   UNL     1       2.307   4.187  21.314  0.00  0.00    +0.000 A 
ATOM      7  F   UNL     1       2.337   4.061  22.646  0.00  0.00    +0.000 F 
ATOM      8  C   UNL     1       2.225   5.473  20.756  0.00  0.00    +0.000 A 
ATOM      9  C   UNL     1       2.266   5.670  19.360  0.00  0.00    +0.000 A 
ATOM     10  C   UNL     1       3.034   2.336  18.139  0.00  0.00    +0.000 C 
ATOM     11  O   UNL     1       3.238   1.154  18.344  0.00  0.00    +0.000 OA
ENDROOT
BRANCH   1  16
ATOM     12  C   UNL     1       6.545   4.674  15.756  0.00  0.00    +0.000 A 
ATOM     13  C   UNL     1       6.809   5.466  16.881  0.00  0.00    +0.000 A 
ATOM     14  C   UNL     1       6.324   5.119  18.136  0.00  0.00    +0.000 A 
ATOM     15  C   UNL     1       5.430   4.071  18.256  0.00  0.00    +0.000 A 
ATOM     16  C   UNL     1       4.904   3.486  17.093  0.00  0.00    +0.000 A 
ATOM     17  C   UNL     1       5.574   3.672  15.875  0.00  0.00    +0.000 A 
BRANCH  12  23
ATOM     18  C   UNL     1       5.702   3.549  12.929  0.00  0.00    +0.000 C 
ATOM     19  N   UNL     1       6.796   4.424  13.232  0.00  0.00    +0.000 N 
ATOM     20  C   UNL     1       7.657   4.948  12.316  0.00  0.00    +0.000 A 
ATOM     21  N   UNL     1       8.484   5.774  12.906  0.00  0.00    +0.000 NA
ATOM     22  N   UNL     1       8.171   5.786  14.245  0.00  0.00    +0.000 NA
ATOM     23  C   UNL     1       7.168   4.950  14.457  0.00  0.00    +0.000 A 
ENDBRANCH  12  23
ENDBRANCH   1  16
BRANCH   9  24
ATOM     24  C   UNL     1       2.291   7.078  18.821  0.00  0.00    +0.000 C 
ATOM     25  F   UNL     1       1.963   8.028  19.732  0.00  0.00    +0.000 F 
ATOM     26  F   UNL     1       3.522   7.422  18.349  0.00  0.00    +0.000 F 
ATOM     27  F   UNL     1       1.430   7.242  17.780  0.00  0.00    +0.000 F 
ENDBRANCH   9  24
TORSDOF 3
ENDMDL
MODEL 5
REMARK VINA RESULT:      -8.0      3.475      4.732
REMARK  Name = 
REMARK  4 active torsions:
REMARK  status: ('A' for Active; 'I' for Inactive)
REMARK    1  A    between atoms: C_1  and  N_2
REMARK    2  A    between atoms: C_6  and  C_7
REMARK    3  A    between atoms: C_11  and  N_12
REMARK    4  A    between atoms: C_20  and  C_21
REMARK                            x       y       z     vdW  Elec       q    Type
REMARK                         _______ _______ _______ _____ _____    ______ ____
ROOT
ATOM      1  N   UNL     1       2.533   6.504  17.603  0.00  0.00    +0.000 N 
ATOM      2  C   UNL     1       1.596   5.376  17.833  0.00  0.00    +0.000 C 
ATOM      3  C   UNL     1       2.474   4.371  18.521  0.00  0.00    +0.000 A 
ATOM      4  C   UNL     1       3.789   4.621  18.120  0.00  0.00    +0.000 A 
ATOM      5  C   UNL     1       4.882   3.973  18.666  0.00  0.00    +0.000 A 
ATOM      6  C   UNL     1       4.616   3.043  19.660  0.00  0.00    +0.000 A 
ATOM      7  F   UNL     1       5.637   2.439  20.282  0.00  0.00    +0.000 F 
ATOM      8  C   UNL     1       3.306   2.779  20.091  0.00  0.00    +0.000 A 
ATOM      9  C   UNL     1       2.201   3.444  19.522  0.00  0.00    +0.000 A 
ATOM     10  C   UNL     1       3.803   5.911  17.390  0.00  0.00    +0.000 C 
ATOM     11  O   UNL     1       4.807   6.409  16.916  0.00  0.00    +0.000 OA
ENDROOT
BRANCH   1  16
ATOM     12  C   UNL     1       1.235   9.451  19.347  0.00  0.00    +0.000 A 
ATOM     13  C   UNL     1       0.876   8.781  20.524  0.00  0.00    +0.000 A 
ATOM     14  C   UNL     1       1.493   7.594  20.895  0.00  0.00    +0.000 A 
ATOM     15  C   UNL     1       2.357   6.969  20.014  0.00  0.00    +0.000 A 
ATOM     16  C   UNL     1       2.465   7.459  18.702  0.00  0.00    +0.000 A 
ATOM     17  C   UNL     1       2.041   8.768  18.427  0.00  0.00    +0.000 A 
BRANCH  12  23
ATOM     18  C   UNL     1      -1.553  10.128  18.029  0.00  0.00    +0.000 C 
ATOM     19  N   UNL     1      -0.522  11.045  18.415  0.00  0.00    +0.000 N 
ATOM     20  C   UNL     1      -0.594  12.400  18.297  0.00  0.00    +0.000 A 
ATOM     21  N   UNL     1       0.474  12.948  18.820  0.00  0.00    +0.000 NA
ATOM     22  N   UNL     1       1.276  11.932  19.283  0.00  0.00    +0.000 NA
ATOM     23  C   UNL     1       0.695  10.774  19.018  0.00  0.00    +0.000 A 
ENDBRANCH  12  23
ENDBRANCH   1  16
BRANCH   9  24
ATOM     24  C   UNL     1       0.829   3.208  20.102  0.00  0.00    +0.000 C 
ATOM     25  F   UNL     1       0.163   4.342  20.435  0.00  0.00    +0.000 F 
ATOM     26  F   UNL     1       0.016   2.539  19.236  0.00  0.00    +0.000 F 
ATOM     27  F   UNL     1       0.875   2.453  21.233  0.00  0.00    +0.000 F 
ENDBRANCH   9  24
TORSDOF 3
ENDMDL
MODEL 6
REMARK VINA RESULT:      -7.8      4.097      7.760
REMARK  Name = 
REMARK  4 active torsions:
REMARK  status: ('A' for Active; 'I' for Inactive)
REMARK    1  A    between atoms: C_1  and  N_2
REMARK    2  A    between atoms: C_6  and  C_7
REMARK    3  A    between atoms: C_11  and  N_12
REMARK    4  A    between atoms: C_20  and  C_21
REMARK                            x       y       z     vdW  Elec       q    Type
REMARK                         _______ _______ _______ _____ _____    ______ ____
ROOT
ATOM      1  N   UNL     1       0.724   8.292  21.209  0.00  0.00    +0.000 N 
ATOM      2  C   UNL     1      -0.518   8.617  20.465  0.00  0.00    +0.000 C 
ATOM      3  C   UNL     1      -0.331  10.075  20.159  0.00  0.00    +0.000 A 
ATOM      4  C   UNL     1       0.513  10.603  21.141  0.00  0.00    +0.000 A 
ATOM      5  C   UNL     1       1.013  11.890  21.094  0.00  0.00    +0.000 A 
ATOM      6  C   UNL     1       0.640  12.660  20.003  0.00  0.00    +0.000 A 
ATOM      7  F   UNL     1       1.153  13.888  19.860  0.00  0.00    +0.000 F 
ATOM      8  C   UNL     1      -0.197  12.153  18.995  0.00  0.00    +0.000 A 
ATOM      9  C   UNL     1      -0.704  10.839  19.058  0.00  0.00    +0.000 A 
ATOM     10  C   UNL     1       1.065   9.469  21.920  0.00  0.00    +0.000 C 
ATOM     11  O   UNL     1       1.842   9.602  22.848  0.00  0.00    +0.000 OA
ENDROOT
BRANCH   1  16
ATOM     12  C   UNL     1       2.365   5.733  19.168  0.00  0.00    +0.000 A 
ATOM     13  C   UNL     1       2.310   6.445  17.963  0.00  0.00    +0.000 A 
ATOM     14  C   UNL     1       2.227   7.831  17.948  0.00  0.00    +0.000 A 
ATOM     15  C   UNL     1       2.027   8.516  19.133  0.00  0.00    +0.000 A 
ATOM     16  C   UNL     1       1.748   7.788  20.302  0.00  0.00    +0.000 A 
ATOM     17  C   UNL     1       2.076   6.425  20.350  0.00  0.00    +0.000 A 
BRANCH  12  23
ATOM     18  C   UNL     1       5.133   4.215  19.110  0.00  0.00    +0.000 C 
ATOM     19  N   UNL     1       3.821   3.641  19.144  0.00  0.00    +0.000 N 
ATOM     20  C   UNL     1       3.550   2.306  19.187  0.00  0.00    +0.000 A 
ATOM     21  N   UNL     1       2.260   2.119  19.299  0.00  0.00    +0.000 NA
ATOM     22  N   UNL     1       1.662   3.357  19.318  0.00  0.00    +0.000 NA
ATOM     23  C   UNL     1       2.597   4.285  19.197  0.00  0.00    +0.000 A 
ENDBRANCH  12  23
ENDBRANCH   1  16
BRANCH   9  24
ATOM     24  C   UNL     1      -1.503  10.308  17.894  0.00  0.00    +0.000 C 
ATOM     25  F   UNL     1      -2.650   9.676  18.249  0.00  0.00    +0.000 F 
ATOM     26  F   UNL     1      -1.873  11.298  17.034  0.00  0.00    +0.000 F 
ATOM     27  F   UNL     1      -0.794   9.413  17.154  0.00  0.00    +0.000 F 
ENDBRANCH   9  24
TORSDOF 3
ENDMDL
MODEL 7
REMARK VINA RESULT:      -7.8      4.346      7.785
REMARK  Name = 
REMARK  4 active torsions:
REMARK  status: ('A' for Active; 'I' for Inactive)
REMARK    1  A    between atoms: C_1  and  N_2
REMARK    2  A    between atoms: C_6  and  C_7
REMARK    3  A    between atoms: C_11  and  N_12
REMARK    4  A    between atoms: C_20  and  C_21
REMARK                            x       y       z     vdW  Elec       q    Type
REMARK                         _______ _______ _______ _____ _____    ______ ____
ROOT
ATOM      1  N   UNL     1       0.697   8.372  21.131  0.00  0.00    +0.000 N 
ATOM      2  C   UNL     1      -0.541   8.661  20.366  0.00  0.00    +0.000 C 
ATOM      3  C   UNL     1      -0.440  10.144  20.150  0.00  0.00    +0.000 A 
ATOM      4  C   UNL     1       0.338  10.665  21.188  0.00  0.00    +0.000 A 
ATOM      5  C   UNL     1       0.754  11.982  21.232  0.00  0.00    +0.000 A 
ATOM      6  C   UNL     1       0.364  12.790  20.174  0.00  0.00    +0.000 A 
ATOM      7  F   UNL     1       0.800  14.055  20.119  0.00  0.00    +0.000 F 
ATOM      8  C   UNL     1      -0.408  12.292  19.112  0.00  0.00    +0.000 A 
ATOM      9  C   UNL     1      -0.830  10.947  19.083  0.00  0.00    +0.000 A 
ATOM     10  C   UNL     1       0.940   9.525  21.919  0.00  0.00    +0.000 C 
ATOM     11  O   UNL     1       1.678   9.651  22.878  0.00  0.00    +0.000 OA
ENDROOT
BRANCH   1  16
ATOM     12  C   UNL     1       2.809   5.986  19.326  0.00  0.00    +0.000 A 
ATOM     13  C   UNL     1       2.553   6.498  18.047  0.00  0.00    +0.000 A 
ATOM     14  C   UNL     1       2.156   7.816  17.865  0.00  0.00    +0.000 A 
ATOM     15  C   UNL     1       1.845   8.594  18.965  0.00  0.00    +0.000 A 
ATOM     16  C   UNL     1       1.778   7.989  20.230  0.00  0.00    +0.000 A 
ATOM     17  C   UNL     1       2.409   6.752  20.428  0.00  0.00    +0.000 A 
BRANCH  12  23
ATOM     18  C   UNL     1       1.269   3.356  20.147  0.00  0.00    +0.000 C 
ATOM     19  N   UNL     1       2.673   3.509  19.907  0.00  0.00    +0.000 N 
ATOM     20  C   UNL     1       3.593   2.505  19.971  0.00  0.00    +0.000 A 
ATOM     21  N   UNL     1       4.768   2.958  19.613  0.00  0.00    +0.000 NA
ATOM     22  N   UNL     1       4.625   4.294  19.320  0.00  0.00    +0.000 NA
ATOM     23  C   UNL     1       3.365   4.643  19.522  0.00  0.00    +0.000 A 
ENDBRANCH  12  23
ENDBRANCH   1  16
BRANCH   9  24
ATOM     24  C   UNL     1      -1.558  10.436  17.865  0.00  0.00    +0.000 C 
ATOM     25  F   UNL     1      -0.846   9.551  17.122  0.00  0.00    +0.000 F 
ATOM     26  F   UNL     1      -2.718   9.800  18.191  0.00  0.00    +0.000 F 
ATOM     27  F   UNL     1      -1.907  11.442  17.018  0.00  0.00    +0.000 F 
ENDBRANCH   9  24
TORSDOF 3
ENDMDL
MODEL 8
REMARK VINA RESULT:      -7.7      1.921      2.858
REMARK  Name = 
REMARK  4 active torsions:
REMARK  status: ('A' for Active; 'I' for Inactive)
REMARK    1  A    between atoms: C_1  and  N_2
REMARK    2  A    between atoms: C_6  and  C_7
REMARK    3  A    between atoms: C_11  and  N_12
REMARK    4  A    between atoms: C_20  and  C_21
REMARK                            x       y       z     vdW  Elec       q    Type
REMARK                         _______ _______ _______ _____ _____    ______ ____
ROOT
ATOM      1  N   UNL     1       3.151   6.368  20.092  0.00  0.00    +0.000 N 
ATOM      2  C   UNL     1       4.347   6.153  19.240  0.00  0.00    +0.000 C 
ATOM      3  C   UNL     1       3.999   4.881  18.522  0.00  0.00    +0.000 A 
ATOM      4  C   UNL     1       3.106   4.174  19.332  0.00  0.00    +0.000 A 
ATOM      5  C   UNL     1       2.467   3.019  18.923  0.00  0.00    +0.000 A 
ATOM      6  C   UNL     1       2.749   2.578  17.639  0.00  0.00    +0.000 A 
ATOM      7  F   UNL     1       2.103   1.509  17.156  0.00  0.00    +0.000 F 
ATOM      8  C   UNL     1       3.633   3.273  16.798  0.00  0.00    +0.000 A 
ATOM      9  C   UNL     1       4.282   4.447  17.230  0.00  0.00    +0.000 A 
ATOM     10  C   UNL     1       2.684   5.073  20.433  0.00  0.00    +0.000 C 
ATOM     11  O   UNL     1       1.901   4.751  21.306  0.00  0.00    +0.000 OA
ENDROOT
BRANCH   1  16
ATOM     12  C   UNL     1       0.959   9.285  19.785  0.00  0.00    +0.000 A 
ATOM     13  C   UNL     1       1.521   9.770  18.597  0.00  0.00    +0.000 A 
ATOM     14  C   UNL     1       2.189   8.926  17.718  0.00  0.00    +0.000 A 
ATOM     15  C   UNL     1       2.451   7.621  18.092  0.00  0.00    +0.000 A 
ATOM     16  C   UNL     1       2.186   7.223  19.413  0.00  0.00    +0.000 A 
ATOM     17  C   UNL     1       1.306   7.990  20.191  0.00  0.00    +0.000 A 
BRANCH  12  23
ATOM     18  C   UNL     1       0.887   9.347  22.941  0.00  0.00    +0.000 C 
ATOM     19  N   UNL     1       0.098  10.125  22.032  0.00  0.00    +0.000 N 
ATOM     20  C   UNL     1      -0.817  11.066  22.396  0.00  0.00    +0.000 A 
ATOM     21  N   UNL     1      -1.297  11.654  21.330  0.00  0.00    +0.000 NA
ATOM     22  N   UNL     1      -0.694  11.081  20.235  0.00  0.00    +0.000 NA
ATOM     23  C   UNL     1       0.132  10.134  20.648  0.00  0.00    +0.000 A 
ENDBRANCH  12  23
ENDBRANCH   1  16
BRANCH   9  24
ATOM     24  C   UNL     1       5.130   5.216  16.249  0.00  0.00    +0.000 C 
ATOM     25  F   UNL     1       4.675   6.466  15.980  0.00  0.00    +0.000 F 
ATOM     26  F   UNL     1       6.409   5.373  16.692  0.00  0.00    +0.000 F 
ATOM     27  F   UNL     1       5.224   4.583  15.048  0.00  0.00    +0.000 F 
ENDBRANCH   9  24
TORSDOF 3
ENDMDL
MODEL 9
REMARK VINA RESULT:      -7.7      3.474      4.769
REMARK  Name = 
REMARK  4 active torsions:
REMARK  status: ('A' for Active; 'I' for Inactive)
REMARK    1  A    between atoms: C_1  and  N_2
REMARK    2  A    between atoms: C_6  and  C_7
REMARK    3  A    between atoms: C_11  and  N_12
REMARK    4  A    between atoms: C_20  and  C_21
REMARK                            x       y       z     vdW  Elec       q    Type
REMARK                         _______ _______ _______ _____ _____    ______ ____
ROOT
ATOM      1  N   UNL     1       2.595   6.488  17.596  0.00  0.00    +0.000 N 
ATOM      2  C   UNL     1       1.664   5.351  17.795  0.00  0.00    +0.000 C 
ATOM      3  C   UNL     1       2.527   4.360  18.523  0.00  0.00    +0.000 A 
ATOM      4  C   UNL     1       3.854   4.624  18.171  0.00  0.00    +0.000 A 
ATOM      5  C   UNL     1       4.932   3.992  18.762  0.00  0.00    +0.000 A 
ATOM      6  C   UNL     1       4.640   3.064  19.750  0.00  0.00    +0.000 A 
ATOM      7  F   UNL     1       5.643   2.476  20.415  0.00  0.00    +0.000 F 
ATOM      8  C   UNL     1       3.317   2.786  20.132  0.00  0.00    +0.000 A 
ATOM      9  C   UNL     1       2.227   3.434  19.517  0.00  0.00    +0.000 A 
ATOM     10  C   UNL     1       3.880   5.909  17.434  0.00  0.00    +0.000 C 
ATOM     11  O   UNL     1       4.895   6.418  16.997  0.00  0.00    +0.000 OA
ENDROOT
BRANCH   1  16
ATOM     12  C   UNL     1       1.037   9.275  19.388  0.00  0.00    +0.000 A 
ATOM     13  C   UNL     1       0.846   8.589  20.594  0.00  0.00    +0.000 A 
ATOM     14  C   UNL     1       1.637   7.499  20.937  0.00  0.00    +0.000 A 
ATOM     15  C   UNL     1       2.516   6.975  20.007  0.00  0.00    +0.000 A 
ATOM     16  C   UNL     1       2.473   7.448  18.685  0.00  0.00    +0.000 A 
ATOM     17  C   UNL     1       1.865   8.685  18.425  0.00  0.00    +0.000 A 
BRANCH  12  23
ATOM     18  C   UNL     1       1.585  12.175  20.508  0.00  0.00    +0.000 C 
ATOM     19  N   UNL     1       0.550  11.767  19.605  0.00  0.00    +0.000 N 
ATOM     20  C   UNL     1      -0.375  12.597  19.046  0.00  0.00    +0.000 A 
ATOM     21  N   UNL     1      -1.119  11.927  18.203  0.00  0.00    +0.000 NA
ATOM     22  N   UNL     1      -0.685  10.623  18.214  0.00  0.00    +0.000 NA
ATOM     23  C   UNL     1       0.307  10.509  19.081  0.00  0.00    +0.000 A 
ENDBRANCH  12  23
ENDBRANCH   1  16
BRANCH   9  24
ATOM     24  C   UNL     1       0.837   3.185  20.045  0.00  0.00    +0.000 C 
ATOM     25  F   UNL     1       0.025   2.520  19.185  0.00  0.00    +0.000 F 
ATOM     26  F   UNL     1       0.850   2.446  21.190  0.00  0.00    +0.000 F 
ATOM     27  F   UNL     1       0.191   4.342  20.353  0.00  0.00    +0.000 F 
ENDBRANCH   9  24
TORSDOF 3
ENDMDL
