MODEL 1
REMARK VINA RESULT:      -8.7      0.000      0.000
REMARK  Name = 
REMARK  6 active torsions:
REMARK  status: ('A' for Active; 'I' for Inactive)
REMARK    1  A    between atoms: C_1  and  C_2
REMARK    2  A    between atoms: C_6  and  O_7
REMARK    3  A    between atoms: O_7  and  C_8
REMARK    4  A    between atoms: C_11  and  N_12
REMARK    5  A    between atoms: C_18  and  C_19
REMARK    6  A    between atoms: C_27  and  C_28
REMARK                            x       y       z     vdW  Elec       q    Type
REMARK                         _______ _______ _______ _____ _____    ______ ____
ROOT
ATOM      1  C   UNL     1       2.507   7.499  18.464  0.00  0.00    +0.000 A 
ATOM      2  C   UNL     1       2.238   7.359  19.817  0.00  0.00    +0.000 A 
ATOM      3  C   UNL     1       1.415   8.305  20.436  0.00  0.00    +0.000 A 
ATOM      4  C   UNL     1       0.890   9.358  19.691  0.00  0.00    +0.000 A 
ATOM      5  C   UNL     1       1.257   9.425  18.349  0.00  0.00    +0.000 A 
ATOM      6  N   UNL     1       2.065   8.539  17.724  0.00  0.00    +0.000 NA
ENDROOT
BRANCH   4   7
ATOM      7  N   UNL     1       0.006  10.339  20.189  0.00  0.00    +0.000 N 
ATOM      8  C   UNL     1      -0.160  10.730  21.494  0.00  0.00    +0.000 C 
ATOM      9  O   UNL     1       0.488  10.295  22.442  0.00  0.00    +0.000 OA
ATOM     10  N   UNL     1      -1.110  11.715  21.684  0.00  0.00    +0.000 N 
ATOM     11  C   UNL     1      -2.045  12.303  20.739  0.00  0.00    +0.000 C 
ATOM     12  C   UNL     1      -2.417  13.629  21.383  0.00  0.00    +0.000 C 
ATOM     13  C   UNL     1      -2.393  13.338  22.888  0.00  0.00    +0.000 C 
ATOM     14  C   UNL     1      -1.388  12.189  23.031  0.00  0.00    +0.000 C 
ATOM     15  H   UNL     1      -0.497  10.865  19.496  0.00  0.00    +0.000 HD
BRANCH  13  16
ATOM     16  C   UNL     1      -3.741  12.981  23.417  0.00  0.00    +0.000 A 
ATOM     17  N   UNL     1      -4.037  12.154  24.396  0.00  0.00    +0.000 NA
ATOM     18  N   UNL     1      -5.406  12.104  24.513  0.00  0.00    +0.000 NA
ATOM     19  C   UNL     1      -5.914  12.905  23.607  0.00  0.00    +0.000 A 
ATOM     20  N   UNL     1      -4.908  13.481  22.897  0.00  0.00    +0.000 N 
ATOM     21  H   UNL     1      -5.003  14.138  22.136  0.00  0.00    +0.000 HD
ENDBRANCH  13  16
ENDBRANCH   4   7
BRANCH   1  22
ATOM     22  O   UNL     1       3.275   6.504  17.869  0.00  0.00    +0.000 OA
BRANCH  22  28
ATOM     23  C   UNL     1       4.537   2.184  19.921  0.00  0.00    +0.000 C 
ATOM     24  C   UNL     1       3.580   3.065  19.165  0.00  0.00    +0.000 A 
ATOM     25  C   UNL     1       2.354   2.525  18.747  0.00  0.00    +0.000 A 
ATOM     26  C   UNL     1       1.428   3.305  18.062  0.00  0.00    +0.000 A 
ATOM     27  C   UNL     1       1.722   4.634  17.779  0.00  0.00    +0.000 A 
ATOM     28  C   UNL     1       2.960   5.185  18.139  0.00  0.00    +0.000 A 
ATOM     29  C   UNL     1       3.888   4.416  18.870  0.00  0.00    +0.000 A 
ATOM     30  C   UNL     1       5.197   5.006  19.328  0.00  0.00    +0.000 C 
ENDBRANCH  22  28
ENDBRANCH   1  22
TORSDOF 4
ENDMDL
MODEL 2
REMARK VINA RESULT:      -8.2      0.989      1.423
REMARK  Name = 
REMARK  6 active torsions:
REMARK  status: ('A' for Active; 'I' for Inactive)
REMARK    1  A    between atoms: C_1  and  C_2
REMARK    2  A    between atoms: C_6  and  O_7
REMARK    3  A    between atoms: O_7  and  C_8
REMARK    4  A    between atoms: C_11  and  N_12
REMARK    5  A    between atoms: C_18  and  C_19
REMARK    6  A    between atoms: C_27  and  C_28
REMARK                            x       y       z     vdW  Elec       q    Type
REMARK                         _______ _______ _______ _____ _____    ______ ____
ROOT
ATOM      1  C   UNL     1       2.578   7.172  18.443  0.00  0.00    +0.000 A 
ATOM      2  C   UNL     1       2.239   8.255  17.646  0.00  0.00    +0.000 A 
ATOM      3  C   UNL     1       1.568   9.332  18.232  0.00  0.00    +0.000 A 
ATOM      4  C   UNL     1       1.255   9.296  19.589  0.00  0.00    +0.000 A 
ATOM      5  C   UNL     1       1.608   8.143  20.287  0.00  0.00    +0.000 A 
ATOM      6  N   UNL     1       2.238   7.076  19.747  0.00  0.00    +0.000 NA
ENDROOT
BRANCH   4   7
ATOM      7  N   UNL     1       0.633  10.342  20.304  0.00  0.00    +0.000 N 
ATOM      8  C   UNL     1      -0.174  10.236  21.408  0.00  0.00    +0.000 C 
ATOM      9  O   UNL     1      -0.446   9.182  21.977  0.00  0.00    +0.000 OA
ATOM     10  N   UNL     1      -0.649  11.439  21.894  0.00  0.00    +0.000 N 
ATOM     11  C   UNL     1      -0.532  12.778  21.341  0.00  0.00    +0.000 C 
ATOM     12  C   UNL     1      -0.770  13.681  22.540  0.00  0.00    +0.000 C 
ATOM     13  C   UNL     1      -1.787  12.917  23.394  0.00  0.00    +0.000 C 
ATOM     14  C   UNL     1      -1.534  11.444  23.048  0.00  0.00    +0.000 C 
ATOM     15  H   UNL     1       0.879  11.273  20.016  0.00  0.00    +0.000 HD
BRANCH  13  16
ATOM     16  C   UNL     1      -3.191  13.332  23.110  0.00  0.00    +0.000 A 
ATOM     17  N   UNL     1      -3.634  14.525  22.775  0.00  0.00    +0.000 NA
ATOM     18  N   UNL     1      -5.001  14.453  22.649  0.00  0.00    +0.000 NA
ATOM     19  C   UNL     1      -5.360  13.216  22.902  0.00  0.00    +0.000 A 
ATOM     20  N   UNL     1      -4.259  12.475  23.192  0.00  0.00    +0.000 N 
ATOM     21  H   UNL     1      -4.234  11.494  23.429  0.00  0.00    +0.000 HD
ENDBRANCH  13  16
ENDBRANCH   4   7
BRANCH   1  22
ATOM     22  O   UNL     1       3.301   6.149  17.839  0.00  0.00    +0.000 OA
BRANCH  22  28
ATOM     23  C   UNL     1       4.638   1.961  20.108  0.00  0.00    +0.000 C 
ATOM     24  C   UNL     1       3.660   2.790  19.320  0.00  0.00    +0.000 A 
ATOM     25  C   UNL     1       2.434   2.216  18.951  0.00  0.00    +0.000 A 
ATOM     26  C   UNL     1       1.490   2.948  18.239  0.00  0.00    +0.000 A 
ATOM     27  C   UNL     1       1.766   4.262  17.878  0.00  0.00    +0.000 A 
ATOM     28  C   UNL     1       3.004   4.844  18.187  0.00  0.00    +0.000 A 
ATOM     29  C   UNL     1       3.950   4.125  18.945  0.00  0.00    +0.000 A 
ATOM     30  C   UNL     1       5.260   4.752  19.349  0.00  0.00    +0.000 C 
ENDBRANCH  22  28
ENDBRANCH   1  22
TORSDOF 4
ENDMDL
MODEL 3
REMARK VINA RESULT:      -8.1      0.733      1.679
REMARK  Name = 
REMARK  6 active torsions:
REMARK  status: ('A' for Active; 'I' for Inactive)
REMARK    1  A    between atoms: C_1  and  C_2
REMARK    2  A    between atoms: C_6  and  O_7
REMARK    3  A    between atoms: O_7  and  C_8
REMARK    4  A    between atoms: C_11  and  N_12
REMARK    5  A    between atoms: C_18  and  C_19
REMARK    6  A    between atoms: C_27  and  C_28
REMARK                            x       y       z     vdW  Elec       q    Type
REMARK                         _______ _______ _______ _____ _____    ______ ____
ROOT
ATOM      1  C   UNL     1       2.464   7.688  18.163  0.00  0.00    +0.000 A 
ATOM      2  C   UNL     1       2.259   7.410  19.506  0.00  0.00    +0.000 A 
ATOM      3  C   UNL     1       1.510   8.311  20.268  0.00  0.00    +0.000 A 
ATOM      4  C   UNL     1       0.992   9.458  19.672  0.00  0.00    +0.000 A 
ATOM      5  C   UNL     1       1.291   9.658  18.326  0.00  0.00    +0.000 A 
ATOM      6  N   UNL     1       2.027   8.818  17.565  0.00  0.00    +0.000 NA
ENDROOT
BRANCH   4   7
ATOM      7  N   UNL     1       0.176  10.409  20.321  0.00  0.00    +0.000 N 
ATOM      8  C   UNL     1      -0.348  10.336  21.587  0.00  0.00    +0.000 C 
ATOM      9  O   UNL     1      -0.141   9.420  22.378  0.00  0.00    +0.000 OA
ATOM     10  N   UNL     1      -1.120  11.421  21.955  0.00  0.00    +0.000 N 
ATOM     11  C   UNL     1      -1.567  12.557  21.166  0.00  0.00    +0.000 C 
ATOM     12  C   UNL     1      -1.897  13.610  22.212  0.00  0.00    +0.000 C 
ATOM     13  C   UNL     1      -2.430  12.806  23.403  0.00  0.00    +0.000 C 
ATOM     14  C   UNL     1      -1.747  11.439  23.268  0.00  0.00    +0.000 C 
ATOM     15  H   UNL     1       0.034  11.272  19.826  0.00  0.00    +0.000 HD
BRANCH  13  16
ATOM     16  C   UNL     1      -3.917  12.699  23.393  0.00  0.00    +0.000 A 
ATOM     17  N   UNL     1      -4.709  12.455  22.370  0.00  0.00    +0.000 NA
ATOM     18  N   UNL     1      -6.008  12.485  22.819  0.00  0.00    +0.000 NA
ATOM     19  C   UNL     1      -5.980  12.739  24.106  0.00  0.00    +0.000 A 
ATOM     20  N   UNL     1      -4.691  12.877  24.512  0.00  0.00    +0.000 N 
ATOM     21  H   UNL     1      -4.369  13.078  25.448  0.00  0.00    +0.000 HD
ENDBRANCH  13  16
ENDBRANCH   4   7
BRANCH   1  22
ATOM     22  O   UNL     1       3.158   6.737  17.422  0.00  0.00    +0.000 OA
BRANCH  22  28
ATOM     23  C   UNL     1       2.602   2.068  18.960  0.00  0.00    +0.000 C 
ATOM     24  C   UNL     1       3.403   3.335  18.826  0.00  0.00    +0.000 A 
ATOM     25  C   UNL     1       4.692   3.379  19.380  0.00  0.00    +0.000 A 
ATOM     26  C   UNL     1       5.477   4.522  19.266  0.00  0.00    +0.000 A 
ATOM     27  C   UNL     1       4.979   5.638  18.603  0.00  0.00    +0.000 A 
ATOM     28  C   UNL     1       3.675   5.640  18.086  0.00  0.00    +0.000 A 
ATOM     29  C   UNL     1       2.886   4.474  18.159  0.00  0.00    +0.000 A 
ATOM     30  C   UNL     1       1.508   4.428  17.551  0.00  0.00    +0.000 C 
ENDBRANCH  22  28
ENDBRANCH   1  22
TORSDOF 4
ENDMDL
MODEL 4
REMARK VINA RESULT:      -8.0      1.784      2.718
REMARK  Name = 
REMARK  6 active torsions:
REMARK  status: ('A' for Active; 'I' for Inactive)
REMARK    1  A    between atoms: C_1  and  C_2
REMARK    2  A    between atoms: C_6  and  O_7
REMARK    3  A    between atoms: O_7  and  C_8
REMARK    4  A    between atoms: C_11  and  N_12
REMARK    5  A    between atoms: C_18  and  C_19
REMARK    6  A    between atoms: C_27  and  C_28
REMARK                            x       y       z     vdW  Elec       q    Type
REMARK                         _______ _______ _______ _____ _____    ______ ____
ROOT
ATOM      1  C   UNL     1       2.925   5.797  19.393  0.00  0.00    +0.000 A 
ATOM      2  C   UNL     1       2.201   5.726  20.574  0.00  0.00    +0.000 A 
ATOM      3  C   UNL     1       1.449   6.838  20.964  0.00  0.00    +0.000 A 
ATOM      4  C   UNL     1       1.442   7.982  20.169  0.00  0.00    +0.000 A 
ATOM      5  C   UNL     1       2.236   7.958  19.024  0.00  0.00    +0.000 A 
ATOM      6  N   UNL     1       2.990   6.908  18.629  0.00  0.00    +0.000 NA
ENDROOT
BRANCH   4   7
ATOM      7  N   UNL     1       0.681   9.141  20.427  0.00  0.00    +0.000 N 
ATOM      8  C   UNL     1       0.297   9.635  21.648  0.00  0.00    +0.000 C 
ATOM      9  O   UNL     1       0.606   9.143  22.730  0.00  0.00    +0.000 OA
ATOM     10  N   UNL     1      -0.455  10.793  21.592  0.00  0.00    +0.000 N 
ATOM     11  C   UNL     1      -1.007  11.491  20.443  0.00  0.00    +0.000 C 
ATOM     12  C   UNL     1      -1.246  12.900  20.961  0.00  0.00    +0.000 C 
ATOM     13  C   UNL     1      -1.632  12.701  22.431  0.00  0.00    +0.000 C 
ATOM     14  C   UNL     1      -0.938  11.392  22.827  0.00  0.00    +0.000 C 
ATOM     15  H   UNL     1       0.468   9.711  19.626  0.00  0.00    +0.000 HD
BRANCH  13  16
ATOM     16  C   UNL     1      -3.109  12.640  22.625  0.00  0.00    +0.000 A 
ATOM     17  N   UNL     1      -3.775  12.199  23.671  0.00  0.00    +0.000 NA
ATOM     18  N   UNL     1      -5.118  12.296  23.394  0.00  0.00    +0.000 NA
ATOM     19  C   UNL     1      -5.242  12.801  22.190  0.00  0.00    +0.000 A 
ATOM     20  N   UNL     1      -4.009  13.038  21.669  0.00  0.00    +0.000 N 
ATOM     21  H   UNL     1      -3.800  13.420  20.758  0.00  0.00    +0.000 HD
ENDBRANCH  13  16
ENDBRANCH   4   7
BRANCH   1  22
ATOM     22  O   UNL     1       3.609   4.649  19.005  0.00  0.00    +0.000 OA
BRANCH  22  28
ATOM     23  C   UNL     1       6.848   4.253  15.287  0.00  0.00    +0.000 C 
ATOM     24  C   UNL     1       6.493   4.603  16.707  0.00  0.00    +0.000 A 
ATOM     25  C   UNL     1       7.504   5.079  17.556  0.00  0.00    +0.000 A 
ATOM     26  C   UNL     1       7.221   5.433  18.871  0.00  0.00    +0.000 A 
ATOM     27  C   UNL     1       5.924   5.307  19.356  0.00  0.00    +0.000 A 
ATOM     28  C   UNL     1       4.906   4.784  18.546  0.00  0.00    +0.000 A 
ATOM     29  C   UNL     1       5.172   4.462  17.200  0.00  0.00    +0.000 A 
ATOM     30  C   UNL     1       4.080   3.963  16.289  0.00  0.00    +0.000 C 
ENDBRANCH  22  28
ENDBRANCH   1  22
TORSDOF 4
ENDMDL
MODEL 5
REMARK VINA RESULT:      -8.0      1.721      2.061
REMARK  Name = 
REMARK  6 active torsions:
REMARK  status: ('A' for Active; 'I' for Inactive)
REMARK    1  A    between atoms: C_1  and  C_2
REMARK    2  A    between atoms: C_6  and  O_7
REMARK    3  A    between atoms: O_7  and  C_8
REMARK    4  A    between atoms: C_11  and  N_12
REMARK    5  A    between atoms: C_18  and  C_19
REMARK    6  A    between atoms: C_27  and  C_28
REMARK                            x       y       z     vdW  Elec       q    Type
REMARK                         _______ _______ _______ _____ _____    ______ ____
ROOT
ATOM      1  C   UNL     1       2.451   7.486  18.433  0.00  0.00    +0.000 A 
ATOM      2  C   UNL     1       2.242   7.352  19.797  0.00  0.00    +0.000 A 
ATOM      3  C   UNL     1       1.504   8.337  20.460  0.00  0.00    +0.000 A 
ATOM      4  C   UNL     1       1.000   9.422  19.747  0.00  0.00    +0.000 A 
ATOM      5  C   UNL     1       1.302   9.477  18.388  0.00  0.00    +0.000 A 
ATOM      6  N   UNL     1       2.028   8.553  17.720  0.00  0.00    +0.000 NA
ENDROOT
BRANCH   4   7
ATOM      7  N   UNL     1       0.196  10.445  20.292  0.00  0.00    +0.000 N 
ATOM      8  C   UNL     1       0.549  11.751  20.525  0.00  0.00    +0.000 C 
ATOM      9  O   UNL     1       1.640  12.241  20.246  0.00  0.00    +0.000 OA
ATOM     10  N   UNL     1      -0.451  12.528  21.077  0.00  0.00    +0.000 N 
ATOM     11  C   UNL     1      -1.766  12.147  21.566  0.00  0.00    +0.000 C 
ATOM     12  C   UNL     1      -2.547  13.451  21.541  0.00  0.00    +0.000 C 
ATOM     13  C   UNL     1      -1.505  14.523  21.878  0.00  0.00    +0.000 C 
ATOM     14  C   UNL     1      -0.180  13.923  21.390  0.00  0.00    +0.000 C 
ATOM     15  H   UNL     1      -0.768  10.207  20.448  0.00  0.00    +0.000 HD
BRANCH  13  16
ATOM     16  C   UNL     1      -1.478  14.848  23.333  0.00  0.00    +0.000 A 
ATOM     17  N   UNL     1      -0.443  15.191  24.071  0.00  0.00    +0.000 NA
ATOM     18  N   UNL     1      -0.878  15.359  25.364  0.00  0.00    +0.000 NA
ATOM     19  C   UNL     1      -2.169  15.123  25.385  0.00  0.00    +0.000 A 
ATOM     20  N   UNL     1      -2.591  14.803  24.134  0.00  0.00    +0.000 N 
ATOM     21  H   UNL     1      -3.533  14.570  23.854  0.00  0.00    +0.000 HD
ENDBRANCH  13  16
ENDBRANCH   4   7
BRANCH   1  22
ATOM     22  O   UNL     1       3.133   6.455  17.796  0.00  0.00    +0.000 OA
BRANCH  22  28
ATOM     23  C   UNL     1       4.443   2.236  20.022  0.00  0.00    +0.000 C 
ATOM     24  C   UNL     1       3.465   3.084  19.254  0.00  0.00    +0.000 A 
ATOM     25  C   UNL     1       2.224   2.530  18.903  0.00  0.00    +0.000 A 
ATOM     26  C   UNL     1       1.281   3.280  18.209  0.00  0.00    +0.000 A 
ATOM     27  C   UNL     1       1.570   4.592  17.851  0.00  0.00    +0.000 A 
ATOM     28  C   UNL     1       2.822   5.153  18.142  0.00  0.00    +0.000 A 
ATOM     29  C   UNL     1       3.770   4.417  18.881  0.00  0.00    +0.000 A 
ATOM     30  C   UNL     1       5.095   5.021  19.267  0.00  0.00    +0.000 C 
ENDBRANCH  22  28
ENDBRANCH   1  22
TORSDOF 4
ENDMDL
MODEL 6
REMARK VINA RESULT:      -8.0      1.847      2.809
REMARK  Name = 
REMARK  6 active torsions:
REMARK  status: ('A' for Active; 'I' for Inactive)
REMARK    1  A    between atoms: C_1  and  C_2
REMARK    2  A    between atoms: C_6  and  O_7
REMARK    3  A    between atoms: O_7  and  C_8
REMARK    4  A    between atoms: C_11  and  N_12
REMARK    5  A    between atoms: C_18  and  C_19
REMARK    6  A    between atoms: C_27  and  C_28
REMARK                            x       y       z     vdW  Elec       q    Type
REMARK                         _______ _______ _______ _____ _____    ______ ____
ROOT
ATOM      1  C   UNL     1       2.398   7.692  18.548  0.00  0.00    +0.000 A 
ATOM      2  C   UNL     1       1.741   8.732  17.907  0.00  0.00    +0.000 A 
ATOM      3  C   UNL     1       0.898   9.554  18.660  0.00  0.00    +0.000 A 
ATOM      4  C   UNL     1       0.734   9.314  20.023  0.00  0.00    +0.000 A 
ATOM      5  C   UNL     1       1.411   8.220  20.556  0.00  0.00    +0.000 A 
ATOM      6  N   UNL     1       2.218   7.394  19.853  0.00  0.00    +0.000 NA
ENDROOT
BRANCH   4   7
ATOM      7  N   UNL     1      -0.043  10.105  20.895  0.00  0.00    +0.000 N 
ATOM      8  C   UNL     1      -0.379  11.428  20.749  0.00  0.00    +0.000 C 
ATOM      9  O   UNL     1      -0.075  12.124  19.784  0.00  0.00    +0.000 OA
ATOM     10  N   UNL     1      -1.150  11.944  21.773  0.00  0.00    +0.000 N 
ATOM     11  C   UNL     1      -1.547  11.342  23.035  0.00  0.00    +0.000 C 
ATOM     12  C   UNL     1      -2.764  12.153  23.450  0.00  0.00    +0.000 C 
ATOM     13  C   UNL     1      -2.468  13.567  22.939  0.00  0.00    +0.000 C 
ATOM     14  C   UNL     1      -1.544  13.343  21.735  0.00  0.00    +0.000 C 
ATOM     15  H   UNL     1      -0.464   9.619  21.668  0.00  0.00    +0.000 HD
BRANCH  13  16
ATOM     16  C   UNL     1      -1.841  14.427  23.982  0.00  0.00    +0.000 A 
ATOM     17  N   UNL     1      -0.614  14.900  24.017  0.00  0.00    +0.000 NA
ATOM     18  N   UNL     1      -0.463  15.611  25.184  0.00  0.00    +0.000 NA
ATOM     19  C   UNL     1      -1.602  15.562  25.832  0.00  0.00    +0.000 A 
ATOM     20  N   UNL     1      -2.499  14.834  25.116  0.00  0.00    +0.000 N 
ATOM     21  H   UNL     1      -3.454  14.628  25.371  0.00  0.00    +0.000 HD
ENDBRANCH  13  16
ENDBRANCH   4   7
BRANCH   1  22
ATOM     22  O   UNL     1       3.279   6.937  17.781  0.00  0.00    +0.000 OA
BRANCH  22  28
ATOM     23  C   UNL     1       2.476   2.131  18.635  0.00  0.00    +0.000 C 
ATOM     24  C   UNL     1       3.335   3.365  18.697  0.00  0.00    +0.000 A 
ATOM     25  C   UNL     1       4.609   3.270  19.279  0.00  0.00    +0.000 A 
ATOM     26  C   UNL     1       5.446   4.379  19.344  0.00  0.00    +0.000 A 
ATOM     27  C   UNL     1       5.016   5.599  18.834  0.00  0.00    +0.000 A 
ATOM     28  C   UNL     1       3.729   5.735  18.295  0.00  0.00    +0.000 A 
ATOM     29  C   UNL     1       2.888   4.609  18.186  0.00  0.00    +0.000 A 
ATOM     30  C   UNL     1       1.526   4.713  17.548  0.00  0.00    +0.000 C 
ENDBRANCH  22  28
ENDBRANCH   1  22
TORSDOF 4
ENDMDL
MODEL 7
REMARK VINA RESULT:      -7.9      1.424      1.680
REMARK  Name = 
REMARK  6 active torsions:
REMARK  status: ('A' for Active; 'I' for Inactive)
REMARK    1  A    between atoms: C_1  and  C_2
REMARK    2  A    between atoms: C_6  and  O_7
REMARK    3  A    between atoms: O_7  and  C_8
REMARK    4  A    between atoms: C_11  and  N_12
REMARK    5  A    between atoms: C_18  and  C_19
REMARK    6  A    between atoms: C_27  and  C_28
REMARK                            x       y       z     vdW  Elec       q    Type
REMARK                         _______ _______ _______ _____ _____    ______ ____
ROOT
ATOM      1  C   UNL     1       2.243   7.479  19.939  0.00  0.00    +0.000 A 
ATOM      2  C   UNL     1       2.112   8.444  18.952  0.00  0.00    +0.000 A 
ATOM      3  C   UNL     1       1.160   9.453  19.126  0.00  0.00    +0.000 A 
ATOM      4  C   UNL     1       0.368   9.467  20.271  0.00  0.00    +0.000 A 
ATOM      5  C   UNL     1       0.556   8.427  21.180  0.00  0.00    +0.000 A 
ATOM      6  N   UNL     1       1.453   7.427  21.034  0.00  0.00    +0.000 NA
ENDROOT
BRANCH   4   7
ATOM      7  N   UNL     1      -0.583  10.460  20.584  0.00  0.00    +0.000 N 
ATOM      8  C   UNL     1      -0.785  11.074  21.795  0.00  0.00    +0.000 C 
ATOM      9  O   UNL     1      -0.115  10.868  22.803  0.00  0.00    +0.000 OA
ATOM     10  N   UNL     1      -1.800  12.011  21.805  0.00  0.00    +0.000 N 
ATOM     11  C   UNL     1      -2.767  12.349  20.774  0.00  0.00    +0.000 C 
ATOM     12  C   UNL     1      -3.232  13.743  21.163  0.00  0.00    +0.000 C 
ATOM     13  C   UNL     1      -3.199  13.738  22.695  0.00  0.00    +0.000 C 
ATOM     14  C   UNL     1      -2.118  12.706  23.043  0.00  0.00    +0.000 C 
ATOM     15  H   UNL     1      -1.117  10.814  19.809  0.00  0.00    +0.000 HD
BRANCH  13  16
ATOM     16  C   UNL     1      -4.522  13.394  23.289  0.00  0.00    +0.000 A 
ATOM     17  N   UNL     1      -4.846  12.332  23.994  0.00  0.00    +0.000 NA
ATOM     18  N   UNL     1      -6.184  12.415  24.302  0.00  0.00    +0.000 NA
ATOM     19  C   UNL     1      -6.644  13.529  23.784  0.00  0.00    +0.000 A 
ATOM     20  N   UNL     1      -5.638  14.180  23.143  0.00  0.00    +0.000 N 
ATOM     21  H   UNL     1      -5.702  15.059  22.650  0.00  0.00    +0.000 HD
ENDBRANCH  13  16
ENDBRANCH   4   7
BRANCH   1  22
ATOM     22  O   UNL     1       3.244   6.530  19.763  0.00  0.00    +0.000 OA
BRANCH  22  28
ATOM     23  C   UNL     1       4.927   3.858  15.956  0.00  0.00    +0.000 C 
ATOM     24  C   UNL     1       3.876   4.197  16.978  0.00  0.00    +0.000 A 
ATOM     25  C   UNL     1       2.681   3.461  16.984  0.00  0.00    +0.000 A 
ATOM     26  C   UNL     1       1.687   3.725  17.922  0.00  0.00    +0.000 A 
ATOM     27  C   UNL     1       1.874   4.735  18.859  0.00  0.00    +0.000 A 
ATOM     28  C   UNL     1       3.035   5.521  18.842  0.00  0.00    +0.000 A 
ATOM     29  C   UNL     1       4.066   5.235  17.924  0.00  0.00    +0.000 A 
ATOM     30  C   UNL     1       5.353   6.020  17.930  0.00  0.00    +0.000 C 
ENDBRANCH  22  28
ENDBRANCH   1  22
TORSDOF 4
ENDMDL
MODEL 8
REMARK VINA RESULT:      -7.9      1.522      2.154
REMARK  Name = 
REMARK  6 active torsions:
REMARK  status: ('A' for Active; 'I' for Inactive)
REMARK    1  A    between atoms: C_1  and  C_2
REMARK    2  A    between atoms: C_6  and  O_7
REMARK    3  A    between atoms: O_7  and  C_8
REMARK    4  A    between atoms: C_11  and  N_12
REMARK    5  A    between atoms: C_18  and  C_19
REMARK    6  A    between atoms: C_27  and  C_28
REMARK                            x       y       z     vdW  Elec       q    Type
REMARK                         _______ _______ _______ _____ _____    ______ ____
ROOT
ATOM      1  C   UNL     1       1.857   7.536  20.039  0.00  0.00    +0.000 A 
ATOM      2  C   UNL     1       1.102   7.395  21.194  0.00  0.00    +0.000 A 
ATOM      3  C   UNL     1       0.233   8.429  21.554  0.00  0.00    +0.000 A 
ATOM      4  C   UNL     1       0.144   9.568  20.757  0.00  0.00    +0.000 A 
ATOM      5  C   UNL     1       0.975   9.622  19.641  0.00  0.00    +0.000 A 
ATOM      6  N   UNL     1       1.840   8.650  19.274  0.00  0.00    +0.000 NA
ENDROOT
BRANCH   4   7
ATOM      7  N   UNL     1      -0.734  10.648  20.986  0.00  0.00    +0.000 N 
ATOM      8  C   UNL     1      -1.024  11.251  22.184  0.00  0.00    +0.000 C 
ATOM      9  O   UNL     1      -0.511  10.952  23.260  0.00  0.00    +0.000 OA
ATOM     10  N   UNL     1      -1.933  12.289  22.103  0.00  0.00    +0.000 N 
ATOM     11  C   UNL     1      -2.722  12.750  20.973  0.00  0.00    +0.000 C 
ATOM     12  C   UNL     1      -3.088  14.176  21.352  0.00  0.00    +0.000 C 
ATOM     13  C   UNL     1      -3.250  14.132  22.876  0.00  0.00    +0.000 C 
ATOM     14  C   UNL     1      -2.333  12.985  23.316  0.00  0.00    +0.000 C 
ATOM     15  H   UNL     1      -1.127  11.073  20.164  0.00  0.00    +0.000 HD
BRANCH  13  16
ATOM     16  C   UNL     1      -4.666  13.915  23.289  0.00  0.00    +0.000 A 
ATOM     17  N   UNL     1      -5.627  14.808  23.400  0.00  0.00    +0.000 NA
ATOM     18  N   UNL     1      -6.757  14.165  23.847  0.00  0.00    +0.000 NA
ATOM     19  C   UNL     1      -6.463  12.895  23.992  0.00  0.00    +0.000 A 
ATOM     20  N   UNL     1      -5.164  12.689  23.650  0.00  0.00    +0.000 N 
ATOM     21  H   UNL     1      -4.665  11.811  23.667  0.00  0.00    +0.000 HD
ENDBRANCH  13  16
ENDBRANCH   4   7
BRANCH   1  22
ATOM     22  O   UNL     1       2.661   6.461  19.677  0.00  0.00    +0.000 OA
BRANCH  22  28
ATOM     23  C   UNL     1       0.675   2.073  18.546  0.00  0.00    +0.000 C 
ATOM     24  C   UNL     1       1.317   3.030  19.514  0.00  0.00    +0.000 A 
ATOM     25  C   UNL     1       1.533   2.608  20.835  0.00  0.00    +0.000 A 
ATOM     26  C   UNL     1       2.140   3.450  21.761  0.00  0.00    +0.000 A 
ATOM     27  C   UNL     1       2.532   4.728  21.379  0.00  0.00    +0.000 A 
ATOM     28  C   UNL     1       2.280   5.194  20.081  0.00  0.00    +0.000 A 
ATOM     29  C   UNL     1       1.704   4.336  19.122  0.00  0.00    +0.000 A 
ATOM     30  C   UNL     1       1.487   4.790  17.702  0.00  0.00    +0.000 C 
ENDBRANCH  22  28
ENDBRANCH   1  22
TORSDOF 4
ENDMDL
MODEL 9
REMARK VINA RESULT:      -7.9      1.256      1.461
REMARK  Name = 
REMARK  6 active torsions:
REMARK  status: ('A' for Active; 'I' for Inactive)
REMARK    1  A    between atoms: C_1  and  C_2
REMARK    2  A    between atoms: C_6  and  O_7
REMARK    3  A    between atoms: O_7  and  C_8
REMARK    4  A    between atoms: C_11  and  N_12
REMARK    5  A    between atoms: C_18  and  C_19
REMARK    6  A    between atoms: C_27  and  C_28
REMARK                            x       y       z     vdW  Elec       q    Type
REMARK                         _______ _______ _______ _____ _____    ______ ____
ROOT
ATOM      1  C   UNL     1       2.080   7.638  19.806  0.00  0.00    +0.000 A 
ATOM      2  C   UNL     1       1.614   7.624  21.112  0.00  0.00    +0.000 A 
ATOM      3  C   UNL     1       0.713   8.616  21.510  0.00  0.00    +0.000 A 
ATOM      4  C   UNL     1       0.308   9.589  20.600  0.00  0.00    +0.000 A 
ATOM      5  C   UNL     1       0.869   9.532  19.326  0.00  0.00    +0.000 A 
ATOM      6  N   UNL     1       1.756   8.599  18.914  0.00  0.00    +0.000 NA
ENDROOT
BRANCH   4   7
ATOM      7  N   UNL     1      -0.635  10.604  20.866  0.00  0.00    +0.000 N 
ATOM      8  C   UNL     1      -0.906  11.198  22.073  0.00  0.00    +0.000 C 
ATOM      9  O   UNL     1      -0.317  10.950  23.122  0.00  0.00    +0.000 OA
ATOM     10  N   UNL     1      -1.893  12.164  22.032  0.00  0.00    +0.000 N 
ATOM     11  C   UNL     1      -2.771  12.553  20.942  0.00  0.00    +0.000 C 
ATOM     12  C   UNL     1      -3.224  13.952  21.329  0.00  0.00    +0.000 C 
ATOM     13  C   UNL     1      -3.302  13.913  22.859  0.00  0.00    +0.000 C 
ATOM     14  C   UNL     1      -2.280  12.842  23.259  0.00  0.00    +0.000 C 
ATOM     15  H   UNL     1      -1.100  10.989  20.063  0.00  0.00    +0.000 HD
BRANCH  13  16
ATOM     16  C   UNL     1      -4.675  13.597  23.348  0.00  0.00    +0.000 A 
ATOM     17  N   UNL     1      -5.138  12.445  23.784  0.00  0.00    +0.000 NA
ATOM     18  N   UNL     1      -6.468  12.609  24.093  0.00  0.00    +0.000 NA
ATOM     19  C   UNL     1      -6.784  13.858  23.846  0.00  0.00    +0.000 A 
ATOM     20  N   UNL     1      -5.691  14.518  23.381  0.00  0.00    +0.000 N 
ATOM     21  H   UNL     1      -5.641  15.489  23.106  0.00  0.00    +0.000 HD
ENDBRANCH  13  16
ENDBRANCH   4   7
BRANCH   1  22
ATOM     22  O   UNL     1       2.923   6.598  19.428  0.00  0.00    +0.000 OA
BRANCH  22  28
ATOM     23  C   UNL     1       3.030   1.931  17.792  0.00  0.00    +0.000 C 
ATOM     24  C   UNL     1       2.512   3.004  18.712  0.00  0.00    +0.000 A 
ATOM     25  C   UNL     1       1.538   2.663  19.663  0.00  0.00    +0.000 A 
ATOM     26  C   UNL     1       1.042   3.616  20.547  0.00  0.00    +0.000 A 
ATOM     27  C   UNL     1       1.509   4.924  20.485  0.00  0.00    +0.000 A 
ATOM     28  C   UNL     1       2.443   5.304  19.510  0.00  0.00    +0.000 A 
ATOM     29  C   UNL     1       2.983   4.338  18.637  0.00  0.00    +0.000 A 
ATOM     30  C   UNL     1       4.039   4.707  17.626  0.00  0.00    +0.000 C 
ENDBRANCH  22  28
ENDBRANCH   1  22
TORSDOF 4
ENDMDL
