MODEL 1
REMARK VINA RESULT:      -8.6      0.000      0.000
REMARK  Name = 
REMARK  3 active torsions:
REMARK  status: ('A' for Active; 'I' for Inactive)
REMARK    1  A    between atoms: C_5  and  C_6
REMARK    2  A    between atoms: C_6  and  O_8
REMARK    3  A    between atoms: C_20  and  C_21
REMARK                            x       y       z     vdW  Elec       q    Type
REMARK                         _______ _______ _______ _____ _____    ______ ____
ROOT
ATOM      1  O   UNL     1      -2.103  12.415  18.933  0.00  0.00    +0.000 OA
ATOM      2  C   UNL     1      -1.372  11.453  18.806  0.00  0.00    +0.000 C 
ATOM      3  C   UNL     1      -1.632  10.248  17.957  0.00  0.00    +0.000 C 
ATOM      4  C   UNL     1      -0.226   9.968  17.478  0.00  0.00    +0.000 C 
ATOM      5  C   UNL     1       0.646  10.329  18.694  0.00  0.00    +0.000 C 
ATOM      6  N   UNL     1      -0.194  11.175  19.525  0.00  0.00    +0.000 N 
ATOM      7  C   UNL     1      -0.355  10.916  20.906  0.00  0.00    +0.000 A 
ATOM      8  C   UNL     1      -1.171  11.760  21.681  0.00  0.00    +0.000 A 
ATOM      9  C   UNL     1      -1.530  11.418  22.978  0.00  0.00    +0.000 A 
ATOM     10  C   UNL     1      -1.069  10.230  23.539  0.00  0.00    +0.000 A 
ATOM     11  C   UNL     1      -0.217   9.408  22.799  0.00  0.00    +0.000 A 
ATOM     12  C   UNL     1       0.144   9.752  21.489  0.00  0.00    +0.000 A 
ATOM     13  C   UNL     1       0.952   8.805  20.696  0.00  0.00    +0.000 A 
ATOM     14  N   UNL     1       1.403   7.731  21.244  0.00  0.00    +0.000 NA
ATOM     15  C   UNL     1       2.055   6.835  20.440  0.00  0.00    +0.000 A 
ATOM     16  O   UNL     1       2.345   5.726  20.863  0.00  0.00    +0.000 OA
ATOM     17  C   UNL     1       2.387   7.144  18.992  0.00  0.00    +0.000 A 
ATOM     18  N   UNL     1       1.930   8.238  18.455  0.00  0.00    +0.000 NA
ATOM     19  N   UNL     1       1.175   9.089  19.309  0.00  0.00    +0.000 N 
ENDROOT
BRANCH  17  20
ATOM     20  C   UNL     1       3.160   6.201  18.134  0.00  0.00    +0.000 A 
ATOM     21  C   UNL     1       4.344   6.663  17.525  0.00  0.00    +0.000 A 
ATOM     22  C   UNL     1       5.069   5.834  16.667  0.00  0.00    +0.000 A 
ATOM     23  C   UNL     1       4.621   4.542  16.424  0.00  0.00    +0.000 A 
ATOM     24  F   UNL     1       5.302   3.755  15.581  0.00  0.00    +0.000 F 
ATOM     25  C   UNL     1       3.476   4.057  17.043  0.00  0.00    +0.000 A 
ATOM     26  C   UNL     1       2.748   4.877  17.906  0.00  0.00    +0.000 A 
ENDBRANCH  17  20
BRANCH   5  27
ATOM     27  C   UNL     1       1.858  11.196  18.197  0.00  0.00    +0.000 C 
ATOM     28  O   UNL     1       2.214  12.247  18.715  0.00  0.00    +0.000 OA
BRANCH  27  29
ATOM     29  O   UNL     1       2.528  10.702  17.114  0.00  0.00    +0.000 OA
ATOM     30  H   UNL     1       2.213   9.828  16.796  0.00  0.00    +0.000 HD
ENDBRANCH  27  29
ENDBRANCH   5  27
TORSDOF 3
ENDMDL
MODEL 2
REMARK VINA RESULT:      -8.0      3.040      8.004
REMARK  Name = 
REMARK  3 active torsions:
REMARK  status: ('A' for Active; 'I' for Inactive)
REMARK    1  A    between atoms: C_5  and  C_6
REMARK    2  A    between atoms: C_6  and  O_8
REMARK    3  A    between atoms: C_20  and  C_21
REMARK                            x       y       z     vdW  Elec       q    Type
REMARK                         _______ _______ _______ _____ _____    ______ ____
ROOT
ATOM      1  O   UNL     1       3.110   1.686  17.388  0.00  0.00    +0.000 OA
ATOM      2  C   UNL     1       2.749   2.778  17.780  0.00  0.00    +0.000 C 
ATOM      3  C   UNL     1       1.347   3.305  17.770  0.00  0.00    +0.000 C 
ATOM      4  C   UNL     1       1.364   4.091  19.060  0.00  0.00    +0.000 C 
ATOM      5  C   UNL     1       2.790   4.669  19.111  0.00  0.00    +0.000 C 
ATOM      6  N   UNL     1       3.563   3.849  18.194  0.00  0.00    +0.000 N 
ATOM      7  C   UNL     1       4.374   4.436  17.195  0.00  0.00    +0.000 A 
ATOM      8  C   UNL     1       5.115   3.611  16.328  0.00  0.00    +0.000 A 
ATOM      9  C   UNL     1       5.744   4.132  15.205  0.00  0.00    +0.000 A 
ATOM     10  C   UNL     1       5.661   5.493  14.928  0.00  0.00    +0.000 A 
ATOM     11  C   UNL     1       4.973   6.331  15.807  0.00  0.00    +0.000 A 
ATOM     12  C   UNL     1       4.336   5.806  16.940  0.00  0.00    +0.000 A 
ATOM     13  C   UNL     1       3.521   6.701  17.785  0.00  0.00    +0.000 A 
ATOM     14  N   UNL     1       3.490   7.964  17.537  0.00  0.00    +0.000 NA
ATOM     15  C   UNL     1       2.638   8.735  18.281  0.00  0.00    +0.000 A 
ATOM     16  O   UNL     1       2.434   9.900  17.973  0.00  0.00    +0.000 OA
ATOM     17  C   UNL     1       1.870   8.175  19.463  0.00  0.00    +0.000 A 
ATOM     18  N   UNL     1       1.918   6.897  19.705  0.00  0.00    +0.000 NA
ATOM     19  N   UNL     1       2.743   6.126  18.841  0.00  0.00    +0.000 N 
ENDROOT
BRANCH  17  20
ATOM     20  C   UNL     1       0.996   9.028  20.321  0.00  0.00    +0.000 A 
ATOM     21  C   UNL     1       1.065   8.868  21.718  0.00  0.00    +0.000 A 
ATOM     22  C   UNL     1       0.225   9.602  22.557  0.00  0.00    +0.000 A 
ATOM     23  C   UNL     1      -0.677  10.502  22.005  0.00  0.00    +0.000 A 
ATOM     24  F   UNL     1      -1.500  11.188  22.808  0.00  0.00    +0.000 F 
ATOM     25  C   UNL     1      -0.735  10.700  20.631  0.00  0.00    +0.000 A 
ATOM     26  C   UNL     1       0.106   9.974  19.786  0.00  0.00    +0.000 A 
ENDBRANCH  17  20
BRANCH   5  27
ATOM     27  C   UNL     1       3.366   4.447  20.556  0.00  0.00    +0.000 C 
ATOM     28  O   UNL     1       4.441   3.913  20.796  0.00  0.00    +0.000 OA
BRANCH  27  29
ATOM     29  O   UNL     1       2.578   4.898  21.577  0.00  0.00    +0.000 OA
ATOM     30  H   UNL     1       1.802   5.430  21.297  0.00  0.00    +0.000 HD
ENDBRANCH  27  29
ENDBRANCH   5  27
TORSDOF 3
ENDMDL
MODEL 3
REMARK VINA RESULT:      -7.3      4.008      6.530
REMARK  Name = 
REMARK  3 active torsions:
REMARK  status: ('A' for Active; 'I' for Inactive)
REMARK    1  A    between atoms: C_5  and  C_6
REMARK    2  A    between atoms: C_6  and  O_8
REMARK    3  A    between atoms: C_20  and  C_21
REMARK                            x       y       z     vdW  Elec       q    Type
REMARK                         _______ _______ _______ _____ _____    ______ ____
ROOT
ATOM      1  O   UNL     1       2.283   3.225  21.967  0.00  0.00    +0.000 OA
ATOM      2  C   UNL     1       2.826   3.425  20.899  0.00  0.00    +0.000 C 
ATOM      3  C   UNL     1       4.260   3.149  20.568  0.00  0.00    +0.000 C 
ATOM      4  C   UNL     1       4.107   2.698  19.135  0.00  0.00    +0.000 C 
ATOM      5  C   UNL     1       2.972   3.588  18.597  0.00  0.00    +0.000 C 
ATOM      6  N   UNL     1       2.290   4.087  19.778  0.00  0.00    +0.000 N 
ATOM      7  C   UNL     1       2.022   5.467  19.941  0.00  0.00    +0.000 A 
ATOM      8  C   UNL     1       1.354   5.914  21.095  0.00  0.00    +0.000 A 
ATOM      9  C   UNL     1       1.267   7.267  21.396  0.00  0.00    +0.000 A 
ATOM     10  C   UNL     1       1.834   8.208  20.543  0.00  0.00    +0.000 A 
ATOM     11  C   UNL     1       2.456   7.782  19.367  0.00  0.00    +0.000 A 
ATOM     12  C   UNL     1       2.545   6.416  19.064  0.00  0.00    +0.000 A 
ATOM     13  C   UNL     1       3.309   5.994  17.873  0.00  0.00    +0.000 A 
ATOM     14  N   UNL     1       3.791   6.881  17.074  0.00  0.00    +0.000 NA
ATOM     15  C   UNL     1       4.581   6.442  16.045  0.00  0.00    +0.000 A 
ATOM     16  O   UNL     1       5.208   7.243  15.366  0.00  0.00    +0.000 OA
ATOM     17  C   UNL     1       4.765   4.967  15.742  0.00  0.00    +0.000 A 
ATOM     18  N   UNL     1       4.264   4.084  16.556  0.00  0.00    +0.000 NA
ATOM     19  N   UNL     1       3.534   4.595  17.664  0.00  0.00    +0.000 N 
ENDROOT
BRANCH  17  20
ATOM     20  C   UNL     1       5.566   4.487  14.578  0.00  0.00    +0.000 A 
ATOM     21  C   UNL     1       6.901   4.919  14.459  0.00  0.00    +0.000 A 
ATOM     22  C   UNL     1       7.671   4.543  13.357  0.00  0.00    +0.000 A 
ATOM     23  C   UNL     1       7.114   3.729  12.380  0.00  0.00    +0.000 A 
ATOM     24  F   UNL     1       7.845   3.389  11.310  0.00  0.00    +0.000 F 
ATOM     25  C   UNL     1       5.812   3.264  12.498  0.00  0.00    +0.000 A 
ATOM     26  C   UNL     1       5.036   3.630  13.599  0.00  0.00    +0.000 A 
ENDBRANCH  17  20
BRANCH   5  27
ATOM     27  C   UNL     1       1.962   2.683  17.805  0.00  0.00    +0.000 C 
ATOM     28  O   UNL     1       0.746   2.824  17.825  0.00  0.00    +0.000 OA
BRANCH  27  29
ATOM     29  O   UNL     1       2.526   1.688  17.058  0.00  0.00    +0.000 OA
ATOM     30  H   UNL     1       3.022   1.994  16.268  0.00  0.00    +0.000 HD
ENDBRANCH  27  29
ENDBRANCH   5  27
TORSDOF 3
ENDMDL
MODEL 4
REMARK VINA RESULT:      -7.3      3.114      7.751
REMARK  Name = 
REMARK  3 active torsions:
REMARK  status: ('A' for Active; 'I' for Inactive)
REMARK    1  A    between atoms: C_5  and  C_6
REMARK    2  A    between atoms: C_6  and  O_8
REMARK    3  A    between atoms: C_20  and  C_21
REMARK                            x       y       z     vdW  Elec       q    Type
REMARK                         _______ _______ _______ _____ _____    ______ ____
ROOT
ATOM      1  O   UNL     1       3.703   2.182  17.932  0.00  0.00    +0.000 OA
ATOM      2  C   UNL     1       3.163   3.271  17.971  0.00  0.00    +0.000 C 
ATOM      3  C   UNL     1       1.956   3.691  17.190  0.00  0.00    +0.000 C 
ATOM      4  C   UNL     1       1.283   4.568  18.219  0.00  0.00    +0.000 C 
ATOM      5  C   UNL     1       2.462   5.251  18.936  0.00  0.00    +0.000 C 
ATOM      6  N   UNL     1       3.618   4.427  18.634  0.00  0.00    +0.000 N 
ATOM      7  C   UNL     1       4.815   4.996  18.139  0.00  0.00    +0.000 A 
ATOM      8  C   UNL     1       5.917   4.168  17.862  0.00  0.00    +0.000 A 
ATOM      9  C   UNL     1       7.023   4.650  17.175  0.00  0.00    +0.000 A 
ATOM     10  C   UNL     1       7.062   5.977  16.760  0.00  0.00    +0.000 A 
ATOM     11  C   UNL     1       5.997   6.825  17.072  0.00  0.00    +0.000 A 
ATOM     12  C   UNL     1       4.879   6.338  17.764  0.00  0.00    +0.000 A 
ATOM     13  C   UNL     1       3.722   7.230  17.976  0.00  0.00    +0.000 A 
ATOM     14  N   UNL     1       3.792   8.465  17.621  0.00  0.00    +0.000 NA
ATOM     15  C   UNL     1       2.658   9.223  17.741  0.00  0.00    +0.000 A 
ATOM     16  O   UNL     1       2.614  10.345  17.257  0.00  0.00    +0.000 OA
ATOM     17  C   UNL     1       1.403   8.697  18.411  0.00  0.00    +0.000 A 
ATOM     18  N   UNL     1       1.352   7.447  18.770  0.00  0.00    +0.000 NA
ATOM     19  N   UNL     1       2.524   6.677  18.535  0.00  0.00    +0.000 N 
ENDROOT
BRANCH  17  20
ATOM     20  C   UNL     1       0.190   9.543  18.608  0.00  0.00    +0.000 A 
ATOM     21  C   UNL     1      -0.759   9.606  17.569  0.00  0.00    +0.000 A 
ATOM     22  C   UNL     1      -1.880  10.429  17.685  0.00  0.00    +0.000 A 
ATOM     23  C   UNL     1      -2.061  11.182  18.838  0.00  0.00    +0.000 A 
ATOM     24  F   UNL     1      -3.123  11.992  18.938  0.00  0.00    +0.000 F 
ATOM     25  C   UNL     1      -1.154  11.105  19.887  0.00  0.00    +0.000 A 
ATOM     26  C   UNL     1      -0.033  10.281  19.782  0.00  0.00    +0.000 A 
ENDBRANCH  17  20
BRANCH   5  27
ATOM     27  C   UNL     1       2.212   5.179  20.485  0.00  0.00    +0.000 C 
ATOM     28  O   UNL     1       2.114   4.138  21.121  0.00  0.00    +0.000 OA
BRANCH  27  29
ATOM     29  O   UNL     1       2.106   6.384  21.119  0.00  0.00    +0.000 OA
ATOM     30  H   UNL     1       2.912   6.944  21.083  0.00  0.00    +0.000 HD
ENDBRANCH  27  29
ENDBRANCH   5  27
TORSDOF 3
ENDMDL
MODEL 5
REMARK VINA RESULT:      -7.2      2.152      3.202
REMARK  Name = 
REMARK  3 active torsions:
REMARK  status: ('A' for Active; 'I' for Inactive)
REMARK    1  A    between atoms: C_5  and  C_6
REMARK    2  A    between atoms: C_6  and  O_8
REMARK    3  A    between atoms: C_20  and  C_21
REMARK                            x       y       z     vdW  Elec       q    Type
REMARK                         _______ _______ _______ _____ _____    ______ ____
ROOT
ATOM      1  O   UNL     1      -5.237  12.933  19.152  0.00  0.00    +0.000 OA
ATOM      2  C   UNL     1      -4.250  12.226  19.200  0.00  0.00    +0.000 C 
ATOM      3  C   UNL     1      -4.177  10.778  18.822  0.00  0.00    +0.000 C 
ATOM      4  C   UNL     1      -2.795  10.746  18.212  0.00  0.00    +0.000 C 
ATOM      5  C   UNL     1      -1.994  11.730  19.084  0.00  0.00    +0.000 C 
ATOM      6  N   UNL     1      -2.994  12.547  19.749  0.00  0.00    +0.000 N 
ATOM      7  C   UNL     1      -2.961  12.749  21.149  0.00  0.00    +0.000 A 
ATOM      8  C   UNL     1      -3.943  13.551  21.759  0.00  0.00    +0.000 A 
ATOM      9  C   UNL     1      -4.077  13.596  23.140  0.00  0.00    +0.000 A 
ATOM     10  C   UNL     1      -3.223  12.851  23.948  0.00  0.00    +0.000 A 
ATOM     11  C   UNL     1      -2.212  12.090  23.358  0.00  0.00    +0.000 A 
ATOM     12  C   UNL     1      -2.078  12.043  21.964  0.00  0.00    +0.000 A 
ATOM     13  C   UNL     1      -1.072  11.139  21.370  0.00  0.00    +0.000 A 
ATOM     14  N   UNL     1      -0.265  10.489  22.133  0.00  0.00    +0.000 NA
ATOM     15  C   UNL     1       0.575   9.584  21.542  0.00  0.00    +0.000 A 
ATOM     16  O   UNL     1       1.233   8.815  22.227  0.00  0.00    +0.000 OA
ATOM     17  C   UNL     1       0.684   9.451  20.034  0.00  0.00    +0.000 A 
ATOM     18  N   UNL     1      -0.135  10.121  19.277  0.00  0.00    +0.000 NA
ATOM     19  N   UNL     1      -1.055  10.974  19.947  0.00  0.00    +0.000 N 
ENDROOT
BRANCH  17  20
ATOM     20  C   UNL     1       1.650   8.518  19.385  0.00  0.00    +0.000 A 
ATOM     21  C   UNL     1       2.232   8.900  18.161  0.00  0.00    +0.000 A 
ATOM     22  C   UNL     1       3.097   8.035  17.488  0.00  0.00    +0.000 A 
ATOM     23  C   UNL     1       3.389   6.795  18.039  0.00  0.00    +0.000 A 
ATOM     24  F   UNL     1       4.198   5.954  17.380  0.00  0.00    +0.000 F 
ATOM     25  C   UNL     1       2.852   6.415  19.262  0.00  0.00    +0.000 A 
ATOM     26  C   UNL     1       1.992   7.275  19.944  0.00  0.00    +0.000 A 
ENDBRANCH  17  20
BRANCH   5  27
ATOM     27  C   UNL     1      -1.159  12.667  18.139  0.00  0.00    +0.000 C 
ATOM     28  O   UNL     1      -0.332  13.481  18.528  0.00  0.00    +0.000 OA
BRANCH  27  29
ATOM     29  O   UNL     1      -1.409  12.525  16.803  0.00  0.00    +0.000 OA
ATOM     30  H   UNL     1      -1.704  13.343  16.348  0.00  0.00    +0.000 HD
ENDBRANCH  27  29
ENDBRANCH   5  27
TORSDOF 3
ENDMDL
MODEL 6
REMARK VINA RESULT:      -7.1      4.775      8.533
REMARK  Name = 
REMARK  3 active torsions:
REMARK  status: ('A' for Active; 'I' for Inactive)
REMARK    1  A    between atoms: C_5  and  C_6
REMARK    2  A    between atoms: C_6  and  O_8
REMARK    3  A    between atoms: C_20  and  C_21
REMARK                            x       y       z     vdW  Elec       q    Type
REMARK                         _______ _______ _______ _____ _____    ______ ____
ROOT
ATOM      1  O   UNL     1       1.850   9.786  17.619  0.00  0.00    +0.000 OA
ATOM      2  C   UNL     1       0.955  10.256  18.293  0.00  0.00    +0.000 C 
ATOM      3  C   UNL     1      -0.512  10.175  18.000  0.00  0.00    +0.000 C 
ATOM      4  C   UNL     1      -1.042  10.035  19.408  0.00  0.00    +0.000 C 
ATOM      5  C   UNL     1      -0.101  10.927  20.238  0.00  0.00    +0.000 C 
ATOM      6  N   UNL     1       1.081  11.100  19.413  0.00  0.00    +0.000 N 
ATOM      7  C   UNL     1       1.619  12.385  19.164  0.00  0.00    +0.000 A 
ATOM      8  C   UNL     1       2.769  12.515  18.365  0.00  0.00    +0.000 A 
ATOM      9  C   UNL     1       3.196  13.759  17.919  0.00  0.00    +0.000 A 
ATOM     10  C   UNL     1       2.493  14.906  18.274  0.00  0.00    +0.000 A 
ATOM     11  C   UNL     1       1.379  14.797  19.108  0.00  0.00    +0.000 A 
ATOM     12  C   UNL     1       0.946  13.541  19.557  0.00  0.00    +0.000 A 
ATOM     13  C   UNL     1      -0.301  13.451  20.343  0.00  0.00    +0.000 A 
ATOM     14  N   UNL     1      -0.915  14.526  20.695  0.00  0.00    +0.000 NA
ATOM     15  C   UNL     1      -2.121  14.387  21.329  0.00  0.00    +0.000 A 
ATOM     16  O   UNL     1      -2.829  15.363  21.526  0.00  0.00    +0.000 OA
ATOM     17  C   UNL     1      -2.656  13.033  21.754  0.00  0.00    +0.000 A 
ATOM     18  N   UNL     1      -2.019  11.956  21.396  0.00  0.00    +0.000 NA
ATOM     19  N   UNL     1      -0.822  12.154  20.654  0.00  0.00    +0.000 N 
ENDROOT
BRANCH  17  20
ATOM     20  C   UNL     1      -3.935  12.883  22.509  0.00  0.00    +0.000 A 
ATOM     21  C   UNL     1      -5.146  12.918  21.790  0.00  0.00    +0.000 A 
ATOM     22  C   UNL     1      -6.368  12.840  22.460  0.00  0.00    +0.000 A 
ATOM     23  C   UNL     1      -6.384  12.718  23.843  0.00  0.00    +0.000 A 
ATOM     24  F   UNL     1      -7.557  12.669  24.487  0.00  0.00    +0.000 F 
ATOM     25  C   UNL     1      -5.200  12.646  24.565  0.00  0.00    +0.000 A 
ATOM     26  C   UNL     1      -3.974  12.717  23.903  0.00  0.00    +0.000 A 
ENDBRANCH  17  20
BRANCH   5  27
ATOM     27  C   UNL     1       0.325  10.136  21.527  0.00  0.00    +0.000 C 
ATOM     28  O   UNL     1       0.752   8.989  21.525  0.00  0.00    +0.000 OA
BRANCH  27  29
ATOM     29  O   UNL     1       0.192  10.818  22.703  0.00  0.00    +0.000 OA
ATOM     30  H   UNL     1      -0.113  10.277  23.464  0.00  0.00    +0.000 HD
ENDBRANCH  27  29
ENDBRANCH   5  27
TORSDOF 3
ENDMDL
MODEL 7
REMARK VINA RESULT:      -7.1      2.681      4.051
REMARK  Name = 
REMARK  3 active torsions:
REMARK  status: ('A' for Active; 'I' for Inactive)
REMARK    1  A    between atoms: C_5  and  C_6
REMARK    2  A    between atoms: C_6  and  O_8
REMARK    3  A    between atoms: C_20  and  C_21
REMARK                            x       y       z     vdW  Elec       q    Type
REMARK                         _______ _______ _______ _____ _____    ______ ____
ROOT
ATOM      1  O   UNL     1      -6.286  11.647  18.128  0.00  0.00    +0.000 OA
ATOM      2  C   UNL     1      -5.179  11.186  18.324  0.00  0.00    +0.000 C 
ATOM      3  C   UNL     1      -4.847   9.745  18.563  0.00  0.00    +0.000 C 
ATOM      4  C   UNL     1      -3.525   9.667  17.836  0.00  0.00    +0.000 C 
ATOM      5  C   UNL     1      -2.881  11.037  18.112  0.00  0.00    +0.000 C 
ATOM      6  N   UNL     1      -3.979  11.898  18.517  0.00  0.00    +0.000 N 
ATOM      7  C   UNL     1      -3.902  12.679  19.694  0.00  0.00    +0.000 A 
ATOM      8  C   UNL     1      -4.982  13.505  20.052  0.00  0.00    +0.000 A 
ATOM      9  C   UNL     1      -5.039  14.113  21.299  0.00  0.00    +0.000 A 
ATOM     10  C   UNL     1      -4.008  13.921  22.215  0.00  0.00    +0.000 A 
ATOM     11  C   UNL     1      -2.905  13.145  21.854  0.00  0.00    +0.000 A 
ATOM     12  C   UNL     1      -2.849  12.530  20.596  0.00  0.00    +0.000 A 
ATOM     13  C   UNL     1      -1.724  11.623  20.290  0.00  0.00    +0.000 A 
ATOM     14  N   UNL     1      -0.761  11.491  21.133  0.00  0.00    +0.000 NA
ATOM     15  C   UNL     1       0.203  10.560  20.852  0.00  0.00    +0.000 A 
ATOM     16  O   UNL     1       1.038  10.265  21.694  0.00  0.00    +0.000 OA
ATOM     17  C   UNL     1       0.243   9.816  19.531  0.00  0.00    +0.000 A 
ATOM     18  N   UNL     1      -0.735   9.966  18.686  0.00  0.00    +0.000 NA
ATOM     19  N   UNL     1      -1.762  10.873  19.070  0.00  0.00    +0.000 N 
ENDROOT
BRANCH  17  20
ATOM     20  C   UNL     1       1.332   8.853  19.192  0.00  0.00    +0.000 A 
ATOM     21  C   UNL     1       2.038   9.036  17.987  0.00  0.00    +0.000 A 
ATOM     22  C   UNL     1       3.025   8.128  17.600  0.00  0.00    +0.000 A 
ATOM     23  C   UNL     1       3.316   7.044  18.419  0.00  0.00    +0.000 A 
ATOM     24  F   UNL     1       4.245   6.159  18.036  0.00  0.00    +0.000 F 
ATOM     25  C   UNL     1       2.655   6.867  19.627  0.00  0.00    +0.000 A 
ATOM     26  C   UNL     1       1.671   7.774  20.024  0.00  0.00    +0.000 A 
ENDBRANCH  17  20
BRANCH   5  27
ATOM     27  C   UNL     1      -2.304  11.597  16.762  0.00  0.00    +0.000 C 
ATOM     28  O   UNL     1      -2.671  11.236  15.651  0.00  0.00    +0.000 OA
BRANCH  27  29
ATOM     29  O   UNL     1      -1.333  12.550  16.890  0.00  0.00    +0.000 OA
ATOM     30  H   UNL     1      -0.443  12.278  16.578  0.00  0.00    +0.000 HD
ENDBRANCH  27  29
ENDBRANCH   5  27
TORSDOF 3
ENDMDL
MODEL 8
REMARK VINA RESULT:      -6.9      3.183      7.996
REMARK  Name = 
REMARK  3 active torsions:
REMARK  status: ('A' for Active; 'I' for Inactive)
REMARK    1  A    between atoms: C_5  and  C_6
REMARK    2  A    between atoms: C_6  and  O_8
REMARK    3  A    between atoms: C_20  and  C_21
REMARK                            x       y       z     vdW  Elec       q    Type
REMARK                         _______ _______ _______ _____ _____    ______ ____
ROOT
ATOM      1  O   UNL     1       2.281   1.385  18.240  0.00  0.00    +0.000 OA
ATOM      2  C   UNL     1       1.975   2.501  18.612  0.00  0.00    +0.000 C 
ATOM      3  C   UNL     1       0.613   3.119  18.537  0.00  0.00    +0.000 C 
ATOM      4  C   UNL     1       0.624   3.909  19.825  0.00  0.00    +0.000 C 
ATOM      5  C   UNL     1       2.081   4.392  19.938  0.00  0.00    +0.000 C 
ATOM      6  N   UNL     1       2.839   3.519  19.060  0.00  0.00    +0.000 N 
ATOM      7  C   UNL     1       3.731   4.045  18.096  0.00  0.00    +0.000 A 
ATOM      8  C   UNL     1       4.454   3.169  17.266  0.00  0.00    +0.000 A 
ATOM      9  C   UNL     1       5.166   3.641  16.171  0.00  0.00    +0.000 A 
ATOM     10  C   UNL     1       5.185   5.003  15.887  0.00  0.00    +0.000 A 
ATOM     11  C   UNL     1       4.515   5.889  16.732  0.00  0.00    +0.000 A 
ATOM     12  C   UNL     1       3.795   5.413  17.836  0.00  0.00    +0.000 A 
ATOM     13  C   UNL     1       3.004   6.365  18.641  0.00  0.00    +0.000 A 
ATOM     14  N   UNL     1       3.067   7.625  18.388  0.00  0.00    +0.000 NA
ATOM     15  C   UNL     1       2.235   8.455  19.091  0.00  0.00    +0.000 A 
ATOM     16  O   UNL     1       2.122   9.629  18.771  0.00  0.00    +0.000 OA
ATOM     17  C   UNL     1       1.379   7.953  20.239  0.00  0.00    +0.000 A 
ATOM     18  N   UNL     1       1.332   6.677  20.486  0.00  0.00    +0.000 NA
ATOM     19  N   UNL     1       2.142   5.848  19.662  0.00  0.00    +0.000 N 
ENDROOT
BRANCH  17  20
ATOM     20  C   UNL     1       0.525   8.866  21.054  0.00  0.00    +0.000 A 
ATOM     21  C   UNL     1      -0.247   9.836  20.386  0.00  0.00    +0.000 A 
ATOM     22  C   UNL     1      -1.016  10.750  21.109  0.00  0.00    +0.000 A 
ATOM     23  C   UNL     1      -1.023  10.690  22.496  0.00  0.00    +0.000 A 
ATOM     24  F   UNL     1      -1.741  11.583  23.191  0.00  0.00    +0.000 F 
ATOM     25  C   UNL     1      -0.297   9.718  23.171  0.00  0.00    +0.000 A 
ATOM     26  C   UNL     1       0.470   8.798  22.456  0.00  0.00    +0.000 A 
ENDBRANCH  17  20
BRANCH   5  27
ATOM     27  C   UNL     1       2.576   4.141  21.408  0.00  0.00    +0.000 C 
ATOM     28  O   UNL     1       2.647   3.038  21.934  0.00  0.00    +0.000 OA
BRANCH  27  29
ATOM     29  O   UNL     1       2.940   5.260  22.103  0.00  0.00    +0.000 OA
ATOM     30  H   UNL     1       3.663   5.784  21.694  0.00  0.00    +0.000 HD
ENDBRANCH  27  29
ENDBRANCH   5  27
TORSDOF 3
ENDMDL
MODEL 9
REMARK VINA RESULT:      -6.8      2.547      4.006
REMARK  Name = 
REMARK  3 active torsions:
REMARK  status: ('A' for Active; 'I' for Inactive)
REMARK    1  A    between atoms: C_5  and  C_6
REMARK    2  A    between atoms: C_6  and  O_8
REMARK    3  A    between atoms: C_20  and  C_21
REMARK                            x       y       z     vdW  Elec       q    Type
REMARK                         _______ _______ _______ _____ _____    ______ ____
ROOT
ATOM      1  O   UNL     1      -5.220  14.133  19.812  0.00  0.00    +0.000 OA
ATOM      2  C   UNL     1      -4.323  13.316  19.876  0.00  0.00    +0.000 C 
ATOM      3  C   UNL     1      -4.426  11.859  19.548  0.00  0.00    +0.000 C 
ATOM      4  C   UNL     1      -3.064  11.643  18.929  0.00  0.00    +0.000 C 
ATOM      5  C   UNL     1      -2.143  12.554  19.760  0.00  0.00    +0.000 C 
ATOM      6  N   UNL     1      -3.031  13.505  20.404  0.00  0.00    +0.000 N 
ATOM      7  C   UNL     1      -2.958  13.748  21.796  0.00  0.00    +0.000 A 
ATOM      8  C   UNL     1      -3.831  14.681  22.386  0.00  0.00    +0.000 A 
ATOM      9  C   UNL     1      -3.942  14.787  23.766  0.00  0.00    +0.000 A 
ATOM     10  C   UNL     1      -3.173  13.974  24.592  0.00  0.00    +0.000 A 
ATOM     11  C   UNL     1      -2.265  13.079  24.021  0.00  0.00    +0.000 A 
ATOM     12  C   UNL     1      -2.154  12.970  22.628  0.00  0.00    +0.000 A 
ATOM     13  C   UNL     1      -1.270  11.934  22.058  0.00  0.00    +0.000 A 
ATOM     14  N   UNL     1      -0.536  11.219  22.836  0.00  0.00    +0.000 NA
ATOM     15  C   UNL     1       0.185  10.203  22.269  0.00  0.00    +0.000 A 
ATOM     16  O   UNL     1       0.755   9.384  22.975  0.00  0.00    +0.000 OA
ATOM     17  C   UNL     1       0.259  10.007  20.767  0.00  0.00    +0.000 A 
ATOM     18  N   UNL     1      -0.485  10.744  19.993  0.00  0.00    +0.000 NA
ATOM     19  N   UNL     1      -1.289  11.721  20.641  0.00  0.00    +0.000 N 
ENDROOT
BRANCH  17  20
ATOM     20  C   UNL     1       1.100   8.945  20.142  0.00  0.00    +0.000 A 
ATOM     21  C   UNL     1       1.581   9.153  18.835  0.00  0.00    +0.000 A 
ATOM     22  C   UNL     1       2.324   8.163  18.188  0.00  0.00    +0.000 A 
ATOM     23  C   UNL     1       2.595   6.971  18.847  0.00  0.00    +0.000 A 
ATOM     24  F   UNL     1       3.285   6.011  18.218  0.00  0.00    +0.000 F 
ATOM     25  C   UNL     1       2.160   6.763  20.149  0.00  0.00    +0.000 A 
ATOM     26  C   UNL     1       1.422   7.750  20.805  0.00  0.00    +0.000 A 
ENDBRANCH  17  20
BRANCH   5  27
ATOM     27  C   UNL     1      -1.215  13.353  18.776  0.00  0.00    +0.000 C 
ATOM     28  O   UNL     1      -0.627  14.387  19.068  0.00  0.00    +0.000 OA
BRANCH  27  29
ATOM     29  O   UNL     1      -1.087  12.819  17.526  0.00  0.00    +0.000 OA
ATOM     30  H   UNL     1      -0.396  13.235  16.966  0.00  0.00    +0.000 HD
ENDBRANCH  27  29
ENDBRANCH   5  27
TORSDOF 3
ENDMDL
