MODEL 1
REMARK VINA RESULT:      -9.4      0.000      0.000
REMARK  Name = 
REMARK  3 active torsions:
REMARK  status: ('A' for Active; 'I' for Inactive)
REMARK    1  A    between atoms: C_2  and  C_16
REMARK    2  A    between atoms: N_3  and  C_4
REMARK    3  A    between atoms: C_8  and  N_9
REMARK                            x       y       z     vdW  Elec       q    Type
REMARK                         _______ _______ _______ _____ _____    ______ ____
ROOT
ATOM      1  O   UNL     1       2.733   7.869  18.368  0.00  0.00    +0.000 OA
ATOM      2  C   UNL     1       2.175   7.622  19.431  0.00  0.00    +0.000 C 
ATOM      3  N   UNL     1       2.293   6.432  20.140  0.00  0.00    +0.000 N 
ATOM      4  H   UNL     1       1.761   6.418  21.001  0.00  0.00    +0.000 HD
ENDROOT
BRANCH   2   5
ATOM      5  C   UNL     1       1.268   8.575  20.085  0.00  0.00    +0.000 A 
ATOM      6  C   UNL     1       0.696   8.548  21.347  0.00  0.00    +0.000 A 
ATOM      7  C   UNL     1      -0.018   9.763  21.652  0.00  0.00    +0.000 A 
ATOM      8  C   UNL     1       0.031  10.649  20.597  0.00  0.00    +0.000 A 
ATOM      9  S   UNL     1       0.776   9.980  19.237  0.00  0.00    +0.000 S 
ATOM     10  C   UNL     1      -0.453  12.025  20.631  0.00  0.00    +0.000 A 
ATOM     11  C   UNL     1      -0.313  12.904  19.543  0.00  0.00    +0.000 A 
ATOM     12  C   UNL     1      -0.678  14.242  19.652  0.00  0.00    +0.000 A 
ATOM     13  C   UNL     1      -1.207  14.713  20.847  0.00  0.00    +0.000 A 
ATOM     14  C   UNL     1      -1.378  13.844  21.928  0.00  0.00    +0.000 A 
ATOM     15  C   UNL     1      -1.002  12.495  21.837  0.00  0.00    +0.000 A 
ATOM     16  C   UNL     1      -1.158  11.594  23.049  0.00  0.00    +0.000 C 
ATOM     17  C   UNL     1      -0.706  10.116  22.937  0.00  0.00    +0.000 C 
ENDBRANCH   2   5
BRANCH   3  18
ATOM     18  C   UNL     1       3.017   5.264  19.860  0.00  0.00    +0.000 A 
ATOM     19  C   UNL     1       2.802   4.056  20.504  0.00  0.00    +0.000 A 
ATOM     20  C   UNL     1       3.571   2.952  20.156  0.00  0.00    +0.000 A 
ATOM     21  C   UNL     1       4.565   3.048  19.174  0.00  0.00    +0.000 A 
ATOM     22  C   UNL     1       4.820   4.255  18.518  0.00  0.00    +0.000 A 
ATOM     23  C   UNL     1       4.023   5.357  18.871  0.00  0.00    +0.000 A 
BRANCH  22  24
ATOM     24  N   UNL     1       5.851   4.368  17.536  0.00  0.00    +0.000 N 
ATOM     25  C   UNL     1       5.645   4.131  16.139  0.00  0.00    +0.000 C 
ATOM     26  C   UNL     1       6.951   4.546  15.508  0.00  0.00    +0.000 C 
ATOM     27  O   UNL     1       7.889   4.587  16.577  0.00  0.00    +0.000 OA
ATOM     28  C   UNL     1       7.203   4.597  17.764  0.00  0.00    +0.000 C 
ATOM     29  O   UNL     1       7.781   4.794  18.822  0.00  0.00    +0.000 OA
ENDBRANCH  22  24
ENDBRANCH   3  18
TORSDOF 3
ENDMDL
MODEL 2
REMARK VINA RESULT:      -9.3      2.335      3.580
REMARK  Name = 
REMARK  3 active torsions:
REMARK  status: ('A' for Active; 'I' for Inactive)
REMARK    1  A    between atoms: C_2  and  C_16
REMARK    2  A    between atoms: N_3  and  C_4
REMARK    3  A    between atoms: C_8  and  N_9
REMARK                            x       y       z     vdW  Elec       q    Type
REMARK                         _______ _______ _______ _____ _____    ______ ____
ROOT
ATOM      1  O   UNL     1       2.531   5.481  18.388  0.00  0.00    +0.000 OA
ATOM      2  C   UNL     1       3.017   6.605  18.318  0.00  0.00    +0.000 C 
ATOM      3  N   UNL     1       4.319   6.891  17.924  0.00  0.00    +0.000 N 
ATOM      4  H   UNL     1       4.534   7.880  17.922  0.00  0.00    +0.000 HD
ENDROOT
BRANCH   2   5
ATOM      5  C   UNL     1       2.263   7.813  18.676  0.00  0.00    +0.000 A 
ATOM      6  C   UNL     1       1.700   8.792  17.872  0.00  0.00    +0.000 A 
ATOM      7  C   UNL     1       0.911   9.734  18.625  0.00  0.00    +0.000 A 
ATOM      8  C   UNL     1       0.925   9.434  19.971  0.00  0.00    +0.000 A 
ATOM      9  S   UNL     1       1.976   8.162  20.329  0.00  0.00    +0.000 S 
ATOM     10  C   UNL     1       0.110  10.091  20.988  0.00  0.00    +0.000 A 
ATOM     11  C   UNL     1       0.118   9.694  22.336  0.00  0.00    +0.000 A 
ATOM     12  C   UNL     1      -0.759  10.262  23.254  0.00  0.00    +0.000 A 
ATOM     13  C   UNL     1      -1.644  11.248  22.838  0.00  0.00    +0.000 A 
ATOM     14  C   UNL     1      -1.644  11.671  21.506  0.00  0.00    +0.000 A 
ATOM     15  C   UNL     1      -0.774  11.099  20.566  0.00  0.00    +0.000 A 
ATOM     16  C   UNL     1      -0.838  11.552  19.118  0.00  0.00    +0.000 C 
ATOM     17  C   UNL     1       0.109  10.883  18.089  0.00  0.00    +0.000 C 
ENDBRANCH   2   5
BRANCH   3  18
ATOM     18  C   UNL     1       5.369   6.044  17.538  0.00  0.00    +0.000 A 
ATOM     19  C   UNL     1       6.324   5.558  18.416  0.00  0.00    +0.000 A 
ATOM     20  C   UNL     1       7.328   4.725  17.938  0.00  0.00    +0.000 A 
ATOM     21  C   UNL     1       7.392   4.380  16.582  0.00  0.00    +0.000 A 
ATOM     22  C   UNL     1       6.455   4.866  15.666  0.00  0.00    +0.000 A 
ATOM     23  C   UNL     1       5.439   5.696  16.169  0.00  0.00    +0.000 A 
BRANCH  22  24
ATOM     24  N   UNL     1       6.531   4.543  14.277  0.00  0.00    +0.000 N 
ATOM     25  C   UNL     1       5.692   3.571  13.644  0.00  0.00    +0.000 C 
ATOM     26  C   UNL     1       6.017   3.718  12.177  0.00  0.00    +0.000 C 
ATOM     27  O   UNL     1       7.250   4.427  12.135  0.00  0.00    +0.000 OA
ATOM     28  C   UNL     1       7.470   5.001  13.361  0.00  0.00    +0.000 C 
ATOM     29  O   UNL     1       8.383   5.796  13.528  0.00  0.00    +0.000 OA
ENDBRANCH  22  24
ENDBRANCH   3  18
TORSDOF 3
ENDMDL
MODEL 3
REMARK VINA RESULT:      -9.2      3.458      9.770
REMARK  Name = 
REMARK  3 active torsions:
REMARK  status: ('A' for Active; 'I' for Inactive)
REMARK    1  A    between atoms: C_2  and  C_16
REMARK    2  A    between atoms: N_3  and  C_4
REMARK    3  A    between atoms: C_8  and  N_9
REMARK                            x       y       z     vdW  Elec       q    Type
REMARK                         _______ _______ _______ _____ _____    ______ ____
ROOT
ATOM      1  O   UNL     1       1.214   8.535  20.883  0.00  0.00    +0.000 OA
ATOM      2  C   UNL     1       1.591   8.408  19.723  0.00  0.00    +0.000 C 
ATOM      3  N   UNL     1       1.320   9.298  18.691  0.00  0.00    +0.000 N 
ATOM      4  H   UNL     1       1.724   9.025  17.803  0.00  0.00    +0.000 HD
ENDROOT
BRANCH   2   5
ATOM      5  C   UNL     1       2.378   7.252  19.274  0.00  0.00    +0.000 A 
ATOM      6  C   UNL     1       2.336   5.926  19.677  0.00  0.00    +0.000 A 
ATOM      7  C   UNL     1       3.178   5.080  18.869  0.00  0.00    +0.000 A 
ATOM      8  C   UNL     1       3.834   5.808  17.899  0.00  0.00    +0.000 A 
ATOM      9  S   UNL     1       3.565   7.468  18.057  0.00  0.00    +0.000 S 
ATOM     10  C   UNL     1       4.639   5.241  16.821  0.00  0.00    +0.000 A 
ATOM     11  C   UNL     1       5.228   6.033  15.820  0.00  0.00    +0.000 A 
ATOM     12  C   UNL     1       5.887   5.450  14.743  0.00  0.00    +0.000 A 
ATOM     13  C   UNL     1       5.982   4.066  14.664  0.00  0.00    +0.000 A 
ATOM     14  C   UNL     1       5.425   3.268  15.667  0.00  0.00    +0.000 A 
ATOM     15  C   UNL     1       4.746   3.841  16.753  0.00  0.00    +0.000 A 
ATOM     16  C   UNL     1       4.112   2.939  17.797  0.00  0.00    +0.000 C 
ATOM     17  C   UNL     1       3.338   3.592  18.970  0.00  0.00    +0.000 C 
ENDBRANCH   2   5
BRANCH   3  18
ATOM     18  C   UNL     1       0.585  10.493  18.676  0.00  0.00    +0.000 A 
ATOM     19  C   UNL     1       1.078  11.701  19.140  0.00  0.00    +0.000 A 
ATOM     20  C   UNL     1       0.272  12.832  19.084  0.00  0.00    +0.000 A 
ATOM     21  C   UNL     1      -1.032  12.762  18.577  0.00  0.00    +0.000 A 
ATOM     22  C   UNL     1      -1.566  11.556  18.117  0.00  0.00    +0.000 A 
ATOM     23  C   UNL     1      -0.733  10.426  18.167  0.00  0.00    +0.000 A 
BRANCH  22  24
ATOM     24  N   UNL     1      -2.904  11.471  17.625  0.00  0.00    +0.000 N 
ATOM     25  C   UNL     1      -4.063  11.652  18.445  0.00  0.00    +0.000 C 
ATOM     26  C   UNL     1      -5.205  11.650  17.459  0.00  0.00    +0.000 C 
ATOM     27  O   UNL     1      -4.673  11.078  16.269  0.00  0.00    +0.000 OA
ATOM     28  C   UNL     1      -3.304  11.093  16.349  0.00  0.00    +0.000 C 
ATOM     29  O   UNL     1      -2.615  10.804  15.381  0.00  0.00    +0.000 OA
ENDBRANCH  22  24
ENDBRANCH   3  18
TORSDOF 3
ENDMDL
MODEL 4
REMARK VINA RESULT:      -9.1      1.493      2.278
REMARK  Name = 
REMARK  3 active torsions:
REMARK  status: ('A' for Active; 'I' for Inactive)
REMARK    1  A    between atoms: C_2  and  C_16
REMARK    2  A    between atoms: N_3  and  C_4
REMARK    3  A    between atoms: C_8  and  N_9
REMARK                            x       y       z     vdW  Elec       q    Type
REMARK                         _______ _______ _______ _____ _____    ______ ____
ROOT
ATOM      1  O   UNL     1       1.863   6.398  21.072  0.00  0.00    +0.000 OA
ATOM      2  C   UNL     1       1.732   7.117  20.088  0.00  0.00    +0.000 C 
ATOM      3  N   UNL     1       2.026   6.746  18.781  0.00  0.00    +0.000 N 
ATOM      4  H   UNL     1       1.846   7.476  18.102  0.00  0.00    +0.000 HD
ENDROOT
BRANCH   2   5
ATOM      5  C   UNL     1       1.259   8.504  20.184  0.00  0.00    +0.000 A 
ATOM      6  C   UNL     1       1.277   9.525  19.246  0.00  0.00    +0.000 A 
ATOM      7  C   UNL     1       0.571  10.698  19.698  0.00  0.00    +0.000 A 
ATOM      8  C   UNL     1       0.064  10.517  20.968  0.00  0.00    +0.000 A 
ATOM      9  S   UNL     1       0.554   9.051  21.647  0.00  0.00    +0.000 S 
ATOM     10  C   UNL     1      -0.829  11.443  21.657  0.00  0.00    +0.000 A 
ATOM     11  C   UNL     1      -1.368  11.171  22.926  0.00  0.00    +0.000 A 
ATOM     12  C   UNL     1      -2.308  12.020  23.501  0.00  0.00    +0.000 A 
ATOM     13  C   UNL     1      -2.707  13.163  22.820  0.00  0.00    +0.000 A 
ATOM     14  C   UNL     1      -2.158  13.460  21.570  0.00  0.00    +0.000 A 
ATOM     15  C   UNL     1      -1.218  12.607  20.972  0.00  0.00    +0.000 A 
ATOM     16  C   UNL     1      -0.682  12.940  19.591  0.00  0.00    +0.000 C 
ATOM     17  C   UNL     1       0.331  11.966  18.935  0.00  0.00    +0.000 C 
ENDBRANCH   2   5
BRANCH   3  18
ATOM     18  C   UNL     1       2.528   5.546  18.257  0.00  0.00    +0.000 A 
ATOM     19  C   UNL     1       1.887   4.325  18.389  0.00  0.00    +0.000 A 
ATOM     20  C   UNL     1       2.463   3.189  17.834  0.00  0.00    +0.000 A 
ATOM     21  C   UNL     1       3.686   3.262  17.154  0.00  0.00    +0.000 A 
ATOM     22  C   UNL     1       4.367   4.474  17.018  0.00  0.00    +0.000 A 
ATOM     23  C   UNL     1       3.763   5.615  17.572  0.00  0.00    +0.000 A 
BRANCH  22  24
ATOM     24  N   UNL     1       5.628   4.551  16.351  0.00  0.00    +0.000 N 
ATOM     25  C   UNL     1       5.771   4.581  14.927  0.00  0.00    +0.000 C 
ATOM     26  C   UNL     1       7.243   4.846  14.720  0.00  0.00    +0.000 C 
ATOM     27  O   UNL     1       7.858   4.543  15.966  0.00  0.00    +0.000 OA
ATOM     28  C   UNL     1       6.888   4.489  16.934  0.00  0.00    +0.000 C 
ATOM     29  O   UNL     1       7.185   4.405  18.117  0.00  0.00    +0.000 OA
ENDBRANCH  22  24
ENDBRANCH   3  18
TORSDOF 3
ENDMDL
MODEL 5
REMARK VINA RESULT:      -9.0      1.417      2.207
REMARK  Name = 
REMARK  3 active torsions:
REMARK  status: ('A' for Active; 'I' for Inactive)
REMARK    1  A    between atoms: C_2  and  C_16
REMARK    2  A    between atoms: N_3  and  C_4
REMARK    3  A    between atoms: C_8  and  N_9
REMARK                            x       y       z     vdW  Elec       q    Type
REMARK                         _______ _______ _______ _____ _____    ______ ____
ROOT
ATOM      1  O   UNL     1       2.924   8.489  17.356  0.00  0.00    +0.000 OA
ATOM      2  C   UNL     1       2.145   8.374  18.296  0.00  0.00    +0.000 C 
ATOM      3  N   UNL     1       2.091   7.289  19.163  0.00  0.00    +0.000 N 
ATOM      4  H   UNL     1       1.384   7.379  19.882  0.00  0.00    +0.000 HD
ENDROOT
BRANCH   2   5
ATOM      5  C   UNL     1       1.131   9.390  18.607  0.00  0.00    +0.000 A 
ATOM      6  C   UNL     1       0.143   9.946  17.809  0.00  0.00    +0.000 A 
ATOM      7  C   UNL     1      -0.744  10.806  18.553  0.00  0.00    +0.000 A 
ATOM      8  C   UNL     1      -0.375  10.876  19.880  0.00  0.00    +0.000 A 
ATOM      9  S   UNL     1       1.073  10.061  20.182  0.00  0.00    +0.000 S 
ATOM     10  C   UNL     1      -1.144  11.531  20.933  0.00  0.00    +0.000 A 
ATOM     11  C   UNL     1      -0.749  11.509  22.282  0.00  0.00    +0.000 A 
ATOM     12  C   UNL     1      -1.566  12.041  23.275  0.00  0.00    +0.000 A 
ATOM     13  C   UNL     1      -2.781  12.617  22.928  0.00  0.00    +0.000 A 
ATOM     14  C   UNL     1      -3.173  12.670  21.587  0.00  0.00    +0.000 A 
ATOM     15  C   UNL     1      -2.365  12.127  20.576  0.00  0.00    +0.000 A 
ATOM     16  C   UNL     1      -2.849  12.160  19.137  0.00  0.00    +0.000 C 
ATOM     17  C   UNL     1      -1.956  11.525  18.040  0.00  0.00    +0.000 C 
ENDBRANCH   2   5
BRANCH   3  18
ATOM     18  C   UNL     1       2.842   6.105  19.201  0.00  0.00    +0.000 A 
ATOM     19  C   UNL     1       2.624   5.088  20.116  0.00  0.00    +0.000 A 
ATOM     20  C   UNL     1       3.422   3.952  20.075  0.00  0.00    +0.000 A 
ATOM     21  C   UNL     1       4.448   3.826  19.128  0.00  0.00    +0.000 A 
ATOM     22  C   UNL     1       4.705   4.839  18.202  0.00  0.00    +0.000 A 
ATOM     23  C   UNL     1       3.879   5.975  18.248  0.00  0.00    +0.000 A 
BRANCH  22  24
ATOM     24  N   UNL     1       5.767   4.732  17.253  0.00  0.00    +0.000 N 
ATOM     25  C   UNL     1       5.560   4.496  15.856  0.00  0.00    +0.000 C 
ATOM     26  C   UNL     1       6.938   4.644  15.259  0.00  0.00    +0.000 C 
ATOM     27  O   UNL     1       7.837   4.542  16.358  0.00  0.00    +0.000 OA
ATOM     28  C   UNL     1       7.131   4.714  17.521  0.00  0.00    +0.000 C 
ATOM     29  O   UNL     1       7.705   4.832  18.593  0.00  0.00    +0.000 OA
ENDBRANCH  22  24
ENDBRANCH   3  18
TORSDOF 3
ENDMDL
MODEL 6
REMARK VINA RESULT:      -8.9      1.141      2.224
REMARK  Name = 
REMARK  3 active torsions:
REMARK  status: ('A' for Active; 'I' for Inactive)
REMARK    1  A    between atoms: C_2  and  C_16
REMARK    2  A    between atoms: N_3  and  C_4
REMARK    3  A    between atoms: C_8  and  N_9
REMARK                            x       y       z     vdW  Elec       q    Type
REMARK                         _______ _______ _______ _____ _____    ______ ____
ROOT
ATOM      1  O   UNL     1       2.381   8.498  17.182  0.00  0.00    +0.000 OA
ATOM      2  C   UNL     1       2.081   8.607  18.365  0.00  0.00    +0.000 C 
ATOM      3  N   UNL     1       2.252   7.620  19.329  0.00  0.00    +0.000 N 
ATOM      4  H   UNL     1       1.950   7.900  20.254  0.00  0.00    +0.000 HD
ENDROOT
BRANCH   2   5
ATOM      5  C   UNL     1       1.466   9.823  18.913  0.00  0.00    +0.000 A 
ATOM      6  C   UNL     1       1.280  11.072  18.340  0.00  0.00    +0.000 A 
ATOM      7  C   UNL     1       0.492  11.946  19.172  0.00  0.00    +0.000 A 
ATOM      8  C   UNL     1       0.131  11.324  20.348  0.00  0.00    +0.000 A 
ATOM      9  S   UNL     1       0.845   9.802  20.510  0.00  0.00    +0.000 S 
ATOM     10  C   UNL     1      -0.792  11.868  21.339  0.00  0.00    +0.000 A 
ATOM     11  C   UNL     1      -1.175  11.155  22.488  0.00  0.00    +0.000 A 
ATOM     12  C   UNL     1      -2.147  11.655  23.349  0.00  0.00    +0.000 A 
ATOM     13  C   UNL     1      -2.735  12.884  23.080  0.00  0.00    +0.000 A 
ATOM     14  C   UNL     1      -2.343  13.617  21.956  0.00  0.00    +0.000 A 
ATOM     15  C   UNL     1      -1.374  13.120  21.072  0.00  0.00    +0.000 A 
ATOM     16  C   UNL     1      -1.010  13.923  19.836  0.00  0.00    +0.000 C 
ATOM     17  C   UNL     1       0.040  13.340  18.855  0.00  0.00    +0.000 C 
ENDBRANCH   2   5
BRANCH   3  18
ATOM     18  C   UNL     1       2.761   6.317  19.229  0.00  0.00    +0.000 A 
ATOM     19  C   UNL     1       2.228   5.231  19.904  0.00  0.00    +0.000 A 
ATOM     20  C   UNL     1       2.803   3.977  19.741  0.00  0.00    +0.000 A 
ATOM     21  C   UNL     1       3.919   3.800  18.913  0.00  0.00    +0.000 A 
ATOM     22  C   UNL     1       4.493   4.876  18.232  0.00  0.00    +0.000 A 
ATOM     23  C   UNL     1       3.889   6.134  18.396  0.00  0.00    +0.000 A 
BRANCH  22  24
ATOM     24  N   UNL     1       5.648   4.709  17.409  0.00  0.00    +0.000 N 
ATOM     25  C   UNL     1       5.589   4.377  16.018  0.00  0.00    +0.000 C 
ATOM     26  C   UNL     1       7.023   4.491  15.559  0.00  0.00    +0.000 C 
ATOM     27  O   UNL     1       7.800   4.468  16.751  0.00  0.00    +0.000 OA
ATOM     28  C   UNL     1       6.976   4.716  17.819  0.00  0.00    +0.000 C 
ATOM     29  O   UNL     1       7.436   4.909  18.935  0.00  0.00    +0.000 OA
ENDBRANCH  22  24
ENDBRANCH   3  18
TORSDOF 3
ENDMDL
MODEL 7
REMARK VINA RESULT:      -8.8      1.190      1.323
REMARK  Name = 
REMARK  3 active torsions:
REMARK  status: ('A' for Active; 'I' for Inactive)
REMARK    1  A    between atoms: C_2  and  C_16
REMARK    2  A    between atoms: N_3  and  C_4
REMARK    3  A    between atoms: C_8  and  N_9
REMARK                            x       y       z     vdW  Elec       q    Type
REMARK                         _______ _______ _______ _____ _____    ______ ____
ROOT
ATOM      1  O   UNL     1       3.169   8.025  17.825  0.00  0.00    +0.000 OA
ATOM      2  C   UNL     1       2.466   7.519  18.692  0.00  0.00    +0.000 C 
ATOM      3  N   UNL     1       2.382   6.157  18.961  0.00  0.00    +0.000 N 
ATOM      4  H   UNL     1       1.752   5.932  19.721  0.00  0.00    +0.000 HD
ENDROOT
BRANCH   2   5
ATOM      5  C   UNL     1       1.587   8.315  19.557  0.00  0.00    +0.000 A 
ATOM      6  C   UNL     1       1.098   8.052  20.827  0.00  0.00    +0.000 A 
ATOM      7  C   UNL     1       0.383   9.173  21.384  0.00  0.00    +0.000 A 
ATOM      8  C   UNL     1       0.348  10.231  20.501  0.00  0.00    +0.000 A 
ATOM      9  S   UNL     1       1.015   9.832  19.002  0.00  0.00    +0.000 S 
ATOM     10  C   UNL     1      -0.159  11.565  20.806  0.00  0.00    +0.000 A 
ATOM     11  C   UNL     1      -0.106  12.624  19.883  0.00  0.00    +0.000 A 
ATOM     12  C   UNL     1      -0.488  13.911  20.248  0.00  0.00    +0.000 A 
ATOM     13  C   UNL     1      -0.946  14.150  21.538  0.00  0.00    +0.000 A 
ATOM     14  C   UNL     1      -1.031  13.101  22.457  0.00  0.00    +0.000 A 
ATOM     15  C   UNL     1      -0.637  11.801  22.107  0.00  0.00    +0.000 A 
ATOM     16  C   UNL     1      -0.698  10.697  23.148  0.00  0.00    +0.000 C 
ATOM     17  C   UNL     1      -0.227   9.275  22.750  0.00  0.00    +0.000 C 
ENDBRANCH   2   5
BRANCH   3  18
ATOM     18  C   UNL     1       3.016   5.061  18.358  0.00  0.00    +0.000 A 
ATOM     19  C   UNL     1       2.700   3.742  18.642  0.00  0.00    +0.000 A 
ATOM     20  C   UNL     1       3.384   2.723  17.992  0.00  0.00    +0.000 A 
ATOM     21  C   UNL     1       4.393   3.011  17.064  0.00  0.00    +0.000 A 
ATOM     22  C   UNL     1       4.749   4.329  16.767  0.00  0.00    +0.000 A 
ATOM     23  C   UNL     1       4.036   5.348  17.422  0.00  0.00    +0.000 A 
BRANCH  22  24
ATOM     24  N   UNL     1       5.796   4.631  15.844  0.00  0.00    +0.000 N 
ATOM     25  C   UNL     1       5.798   4.200  14.479  0.00  0.00    +0.000 C 
ATOM     26  C   UNL     1       6.991   4.905  13.882  0.00  0.00    +0.000 C 
ATOM     27  O   UNL     1       7.775   5.325  14.993  0.00  0.00    +0.000 OA
ATOM     28  C   UNL     1       7.003   5.261  16.125  0.00  0.00    +0.000 C 
ATOM     29  O   UNL     1       7.400   5.725  17.183  0.00  0.00    +0.000 OA
ENDBRANCH  22  24
ENDBRANCH   3  18
TORSDOF 3
ENDMDL
MODEL 8
REMARK VINA RESULT:      -8.8      1.561      1.717
REMARK  Name = 
REMARK  3 active torsions:
REMARK  status: ('A' for Active; 'I' for Inactive)
REMARK    1  A    between atoms: C_2  and  C_16
REMARK    2  A    between atoms: N_3  and  C_4
REMARK    3  A    between atoms: C_8  and  N_9
REMARK                            x       y       z     vdW  Elec       q    Type
REMARK                         _______ _______ _______ _____ _____    ______ ____
ROOT
ATOM      1  O   UNL     1       2.173   5.968  21.202  0.00  0.00    +0.000 OA
ATOM      2  C   UNL     1       1.822   6.678  20.266  0.00  0.00    +0.000 C 
ATOM      3  N   UNL     1       1.946   6.349  18.921  0.00  0.00    +0.000 N 
ATOM      4  H   UNL     1       1.593   7.062  18.295  0.00  0.00    +0.000 HD
ENDROOT
BRANCH   2   5
ATOM      5  C   UNL     1       1.235   8.010  20.465  0.00  0.00    +0.000 A 
ATOM      6  C   UNL     1       0.482   8.511  21.515  0.00  0.00    +0.000 A 
ATOM      7  C   UNL     1       0.229   9.925  21.384  0.00  0.00    +0.000 A 
ATOM      8  C   UNL     1       0.791  10.427  20.229  0.00  0.00    +0.000 A 
ATOM      9  S   UNL     1       1.460   9.212  19.265  0.00  0.00    +0.000 S 
ATOM     10  C   UNL     1       0.855  11.840  19.870  0.00  0.00    +0.000 A 
ATOM     11  C   UNL     1       1.502  12.297  18.709  0.00  0.00    +0.000 A 
ATOM     12  C   UNL     1       1.648  13.658  18.460  0.00  0.00    +0.000 A 
ATOM     13  C   UNL     1       1.131  14.579  19.361  0.00  0.00    +0.000 A 
ATOM     14  C   UNL     1       0.461  14.139  20.506  0.00  0.00    +0.000 A 
ATOM     15  C   UNL     1       0.318  12.769  20.777  0.00  0.00    +0.000 A 
ATOM     16  C   UNL     1      -0.374  12.331  22.055  0.00  0.00    +0.000 C 
ATOM     17  C   UNL     1      -0.493  10.814  22.351  0.00  0.00    +0.000 C 
ENDBRANCH   2   5
BRANCH   3  18
ATOM     18  C   UNL     1       2.477   5.209  18.299  0.00  0.00    +0.000 A 
ATOM     19  C   UNL     1       1.867   3.966  18.329  0.00  0.00    +0.000 A 
ATOM     20  C   UNL     1       2.471   2.895  17.682  0.00  0.00    +0.000 A 
ATOM     21  C   UNL     1       3.690   3.054  17.011  0.00  0.00    +0.000 A 
ATOM     22  C   UNL     1       4.340   4.290  16.976  0.00  0.00    +0.000 A 
ATOM     23  C   UNL     1       3.708   5.366  17.623  0.00  0.00    +0.000 A 
BRANCH  22  24
ATOM     24  N   UNL     1       5.598   4.455  16.319  0.00  0.00    +0.000 N 
ATOM     25  C   UNL     1       5.750   4.488  14.896  0.00  0.00    +0.000 C 
ATOM     26  C   UNL     1       7.200   4.856  14.698  0.00  0.00    +0.000 C 
ATOM     27  O   UNL     1       7.826   4.604  15.951  0.00  0.00    +0.000 OA
ATOM     28  C   UNL     1       6.854   4.486  16.912  0.00  0.00    +0.000 C 
ATOM     29  O   UNL     1       7.147   4.429  18.097  0.00  0.00    +0.000 OA
ENDBRANCH  22  24
ENDBRANCH   3  18
TORSDOF 3
ENDMDL
MODEL 9
REMARK VINA RESULT:      -8.8      3.514      9.872
REMARK  Name = 
REMARK  3 active torsions:
REMARK  status: ('A' for Active; 'I' for Inactive)
REMARK    1  A    between atoms: C_2  and  C_16
REMARK    2  A    between atoms: N_3  and  C_4
REMARK    3  A    between atoms: C_8  and  N_9
REMARK                            x       y       z     vdW  Elec       q    Type
REMARK                         _______ _______ _______ _____ _____    ______ ____
ROOT
ATOM      1  O   UNL     1       0.949   8.573  20.786  0.00  0.00    +0.000 OA
ATOM      2  C   UNL     1       1.499   8.508  19.692  0.00  0.00    +0.000 C 
ATOM      3  N   UNL     1       1.415   9.473  18.695  0.00  0.00    +0.000 N 
ATOM      4  H   UNL     1       1.946   9.244  17.864  0.00  0.00    +0.000 HD
ENDROOT
BRANCH   2   5
ATOM      5  C   UNL     1       2.316   7.356  19.289  0.00  0.00    +0.000 A 
ATOM      6  C   UNL     1       2.320   6.050  19.755  0.00  0.00    +0.000 A 
ATOM      7  C   UNL     1       3.179   5.192  18.979  0.00  0.00    +0.000 A 
ATOM      8  C   UNL     1       3.801   5.892  17.967  0.00  0.00    +0.000 A 
ATOM      9  S   UNL     1       3.483   7.548  18.049  0.00  0.00    +0.000 S 
ATOM     10  C   UNL     1       4.612   5.299  16.908  0.00  0.00    +0.000 A 
ATOM     11  C   UNL     1       5.165   6.059  15.863  0.00  0.00    +0.000 A 
ATOM     12  C   UNL     1       5.831   5.445  14.807  0.00  0.00    +0.000 A 
ATOM     13  C   UNL     1       5.967   4.062  14.793  0.00  0.00    +0.000 A 
ATOM     14  C   UNL     1       5.446   3.297  15.840  0.00  0.00    +0.000 A 
ATOM     15  C   UNL     1       4.761   3.901  16.905  0.00  0.00    +0.000 A 
ATOM     16  C   UNL     1       4.167   3.031  17.999  0.00  0.00    +0.000 C 
ATOM     17  C   UNL     1       3.386   3.716  19.149  0.00  0.00    +0.000 C 
ENDBRANCH   2   5
BRANCH   3  18
ATOM     18  C   UNL     1       0.723  10.692  18.652  0.00  0.00    +0.000 A 
ATOM     19  C   UNL     1       1.331  11.925  18.816  0.00  0.00    +0.000 A 
ATOM     20  C   UNL     1       0.559  13.079  18.757  0.00  0.00    +0.000 A 
ATOM     21  C   UNL     1      -0.824  13.010  18.545  0.00  0.00    +0.000 A 
ATOM     22  C   UNL     1      -1.472  11.781  18.394  0.00  0.00    +0.000 A 
ATOM     23  C   UNL     1      -0.674  10.626  18.441  0.00  0.00    +0.000 A 
BRANCH  22  24
ATOM     24  N   UNL     1      -2.885  11.700  18.206  0.00  0.00    +0.000 N 
ATOM     25  C   UNL     1      -3.500  11.325  16.969  0.00  0.00    +0.000 C 
ATOM     26  C   UNL     1      -4.965  11.210  17.317  0.00  0.00    +0.000 C 
ATOM     27  O   UNL     1      -5.113  11.900  18.553  0.00  0.00    +0.000 OA
ATOM     28  C   UNL     1      -3.872  12.073  19.111  0.00  0.00    +0.000 C 
ATOM     29  O   UNL     1      -3.750  12.496  20.251  0.00  0.00    +0.000 OA
ENDBRANCH  22  24
ENDBRANCH   3  18
TORSDOF 3
ENDMDL
