MODEL 1
REMARK VINA RESULT:      -8.9      0.000      0.000
REMARK  Name = 
REMARK  6 active torsions:
REMARK  status: ('A' for Active; 'I' for Inactive)
REMARK    1  A    between atoms: C_1  and  C_2
REMARK    2  A    between atoms: C_5  and  C_6
REMARK    3  A    between atoms: C_9  and  C_10
REMARK    4  A    between atoms: C_10  and  C_11
REMARK    5  A    between atoms: C_11  and  C_12
REMARK    6  A    between atoms: N_14  and  C_15
REMARK                            x       y       z     vdW  Elec       q    Type
REMARK                         _______ _______ _______ _____ _____    ______ ____
ROOT
ATOM      1  C   UNL     1       8.090   7.486  18.137  0.00  0.00    +0.000 C 
ENDROOT
BRANCH   1   2
ATOM      2  C   UNL     1       6.837   6.692  17.829  0.00  0.00    +0.000 C 
ATOM      3  O   UNL     1       6.182   6.940  16.818  0.00  0.00    +0.000 OA
ATOM      4  N   UNL     1       6.504   5.727  18.762  0.00  0.00    +0.000 N 
ATOM      5  H   UNL     1       6.990   5.731  19.652  0.00  0.00    +0.000 HD
BRANCH   4   6
ATOM      6  C   UNL     1       5.372   4.878  18.640  0.00  0.00    +0.000 A 
ATOM      7  C   UNL     1       5.198   3.971  17.598  0.00  0.00    +0.000 A 
ATOM      8  N   UNL     1       4.103   3.197  17.414  0.00  0.00    +0.000 NA
ATOM      9  C   UNL     1       3.097   3.324  18.284  0.00  0.00    +0.000 A 
ATOM     10  C   UNL     1       1.943   2.592  18.067  0.00  0.00    +0.000 A 
ATOM     11  C   UNL     1       0.844   2.694  18.920  0.00  0.00    +0.000 A 
ATOM     12  C   UNL     1       0.904   3.540  20.019  0.00  0.00    +0.000 A 
ATOM     13  C   UNL     1       2.063   4.280  20.266  0.00  0.00    +0.000 A 
ATOM     14  C   UNL     1       3.169   4.187  19.401  0.00  0.00    +0.000 A 
ATOM     15  C   UNL     1       4.346   4.945  19.582  0.00  0.00    +0.000 A 
ENDBRANCH   4   6
ENDBRANCH   1   2
BRANCH   1  16
ATOM     16  C   UNL     1       7.907   8.907  17.593  0.00  0.00    +0.000 C 
BRANCH  16  20
ATOM     17  C   UNL     1       9.600  11.836  18.602  0.00  0.00    +0.000 A 
ATOM     18  N   UNL     1       9.914  11.101  19.653  0.00  0.00    +0.000 NA
ATOM     19  N   UNL     1       9.321   9.866  19.468  0.00  0.00    +0.000 NA
ATOM     20  C   UNL     1       8.688   9.931  18.319  0.00  0.00    +0.000 A 
ATOM     21  O   UNL     1       8.808  11.154  17.713  0.00  0.00    +0.000 OA
BRANCH  17  26
ATOM     22  C   UNL     1      11.273  17.238  17.353  0.00  0.00    +0.000 C 
ATOM     23  C   UNL     1      10.817  15.843  17.668  0.00  0.00    +0.000 A 
ATOM     24  C   UNL     1       9.926  15.590  18.714  0.00  0.00    +0.000 A 
ATOM     25  C   UNL     1       9.520  14.281  19.000  0.00  0.00    +0.000 A 
ATOM     26  C   UNL     1      10.001  13.195  18.252  0.00  0.00    +0.000 A 
ATOM     27  C   UNL     1      10.885  13.459  17.196  0.00  0.00    +0.000 A 
ATOM     28  C   UNL     1      11.288  14.767  16.907  0.00  0.00    +0.000 A 
ENDBRANCH  17  26
ENDBRANCH  16  20
ENDBRANCH   1  16
TORSDOF 5
ENDMDL
MODEL 2
REMARK VINA RESULT:      -8.8      4.540      7.469
REMARK  Name = 
REMARK  6 active torsions:
REMARK  status: ('A' for Active; 'I' for Inactive)
REMARK    1  A    between atoms: C_1  and  C_2
REMARK    2  A    between atoms: C_5  and  C_6
REMARK    3  A    between atoms: C_9  and  C_10
REMARK    4  A    between atoms: C_10  and  C_11
REMARK    5  A    between atoms: C_11  and  C_12
REMARK    6  A    between atoms: N_14  and  C_15
REMARK                            x       y       z     vdW  Elec       q    Type
REMARK                         _______ _______ _______ _____ _____    ______ ____
ROOT
ATOM      1  C   UNL     1       2.619   2.845  21.240  0.00  0.00    +0.000 C 
ENDROOT
BRANCH   1   2
ATOM      2  C   UNL     1       2.052   4.003  20.445  0.00  0.00    +0.000 C 
ATOM      3  O   UNL     1       1.115   3.820  19.669  0.00  0.00    +0.000 OA
ATOM      4  N   UNL     1       2.677   5.221  20.646  0.00  0.00    +0.000 N 
ATOM      5  H   UNL     1       3.556   5.232  21.149  0.00  0.00    +0.000 HD
BRANCH   4   6
ATOM      6  C   UNL     1       2.280   6.421  19.998  0.00  0.00    +0.000 A 
ATOM      7  C   UNL     1       2.528   6.690  18.655  0.00  0.00    +0.000 A 
ATOM      8  N   UNL     1       2.225   7.848  18.023  0.00  0.00    +0.000 NA
ATOM      9  C   UNL     1       1.663   8.821  18.744  0.00  0.00    +0.000 A 
ATOM     10  C   UNL     1       1.414  10.036  18.129  0.00  0.00    +0.000 A 
ATOM     11  C   UNL     1       0.852  11.105  18.826  0.00  0.00    +0.000 A 
ATOM     12  C   UNL     1       0.524  10.954  20.167  0.00  0.00    +0.000 A 
ATOM     13  C   UNL     1       0.756   9.734  20.807  0.00  0.00    +0.000 A 
ATOM     14  C   UNL     1       1.332   8.657  20.108  0.00  0.00    +0.000 A 
ATOM     15  C   UNL     1       1.625   7.418  20.719  0.00  0.00    +0.000 A 
ENDBRANCH   4   6
ENDBRANCH   1   2
BRANCH   1  16
ATOM     16  C   UNL     1       3.535   2.031  20.319  0.00  0.00    +0.000 C 
BRANCH  16  20
ATOM     17  C   UNL     1       5.206   4.308  18.200  0.00  0.00    +0.000 A 
ATOM     18  N   UNL     1       4.530   3.680  17.257  0.00  0.00    +0.000 NA
ATOM     19  N   UNL     1       3.785   2.697  17.885  0.00  0.00    +0.000 NA
ATOM     20  C   UNL     1       4.057   2.795  19.167  0.00  0.00    +0.000 A 
ATOM     21  O   UNL     1       4.960   3.787  19.446  0.00  0.00    +0.000 OA
BRANCH  17  26
ATOM     22  C   UNL     1       8.641   8.961  17.902  0.00  0.00    +0.000 C 
ATOM     23  C   UNL     1       7.758   7.748  17.958  0.00  0.00    +0.000 A 
ATOM     24  C   UNL     1       6.620   7.642  17.154  0.00  0.00    +0.000 A 
ATOM     25  C   UNL     1       5.803   6.508  17.228  0.00  0.00    +0.000 A 
ATOM     26  C   UNL     1       6.101   5.457  18.109  0.00  0.00    +0.000 A 
ATOM     27  C   UNL     1       7.253   5.565  18.901  0.00  0.00    +0.000 A 
ATOM     28  C   UNL     1       8.072   6.696  18.826  0.00  0.00    +0.000 A 
ENDBRANCH  17  26
ENDBRANCH  16  20
ENDBRANCH   1  16
TORSDOF 5
ENDMDL
MODEL 3
REMARK VINA RESULT:      -8.5      6.306      8.529
REMARK  Name = 
REMARK  6 active torsions:
REMARK  status: ('A' for Active; 'I' for Inactive)
REMARK    1  A    between atoms: C_1  and  C_2
REMARK    2  A    between atoms: C_5  and  C_6
REMARK    3  A    between atoms: C_9  and  C_10
REMARK    4  A    between atoms: C_10  and  C_11
REMARK    5  A    between atoms: C_11  and  C_12
REMARK    6  A    between atoms: N_14  and  C_15
REMARK                            x       y       z     vdW  Elec       q    Type
REMARK                         _______ _______ _______ _____ _____    ______ ____
ROOT
ATOM      1  C   UNL     1       3.808   3.475  19.698  0.00  0.00    +0.000 C 
ENDROOT
BRANCH   1   2
ATOM      2  C   UNL     1       4.292   3.571  18.266  0.00  0.00    +0.000 C 
ATOM      3  O   UNL     1       3.642   3.055  17.358  0.00  0.00    +0.000 OA
ATOM      4  N   UNL     1       5.490   4.240  18.089  0.00  0.00    +0.000 N 
ATOM      5  H   UNL     1       6.045   4.456  18.910  0.00  0.00    +0.000 HD
BRANCH   4   6
ATOM      6  C   UNL     1       6.096   4.439  16.821  0.00  0.00    +0.000 A 
ATOM      7  C   UNL     1       7.052   5.420  16.568  0.00  0.00    +0.000 A 
ATOM      8  N   UNL     1       7.599   5.681  15.358  0.00  0.00    +0.000 NA
ATOM      9  C   UNL     1       7.177   4.961  14.316  0.00  0.00    +0.000 A 
ATOM     10  C   UNL     1       7.675   5.266  13.061  0.00  0.00    +0.000 A 
ATOM     11  C   UNL     1       7.261   4.572  11.924  0.00  0.00    +0.000 A 
ATOM     12  C   UNL     1       6.335   3.544  12.046  0.00  0.00    +0.000 A 
ATOM     13  C   UNL     1       5.828   3.210  13.303  0.00  0.00    +0.000 A 
ATOM     14  C   UNL     1       6.236   3.916  14.450  0.00  0.00    +0.000 A 
ATOM     15  C   UNL     1       5.721   3.645  15.738  0.00  0.00    +0.000 A 
ENDBRANCH   4   6
ENDBRANCH   1   2
BRANCH   1  16
ATOM     16  C   UNL     1       2.403   4.083  19.774  0.00  0.00    +0.000 C 
BRANCH  16  20
ATOM     17  C   UNL     1       1.812   7.554  20.027  0.00  0.00    +0.000 A 
ATOM     18  N   UNL     1       2.532   7.596  18.922  0.00  0.00    +0.000 NA
ATOM     19  N   UNL     1       2.897   6.293  18.633  0.00  0.00    +0.000 NA
ATOM     20  C   UNL     1       2.373   5.547  19.579  0.00  0.00    +0.000 A 
ATOM     21  O   UNL     1       1.678   6.276  20.509  0.00  0.00    +0.000 OA
BRANCH  17  26
ATOM     22  C   UNL     1      -1.029  11.771  22.799  0.00  0.00    +0.000 C 
ATOM     23  C   UNL     1      -0.273  10.693  22.079  0.00  0.00    +0.000 A 
ATOM     24  C   UNL     1      -0.005  10.785  20.710  0.00  0.00    +0.000 A 
ATOM     25  C   UNL     1       0.691   9.764  20.053  0.00  0.00    +0.000 A 
ATOM     26  C   UNL     1       1.130   8.626  20.746  0.00  0.00    +0.000 A 
ATOM     27  C   UNL     1       0.870   8.547  22.122  0.00  0.00    +0.000 A 
ATOM     28  C   UNL     1       0.177   9.569  22.780  0.00  0.00    +0.000 A 
ENDBRANCH  17  26
ENDBRANCH  16  20
ENDBRANCH   1  16
TORSDOF 5
ENDMDL
MODEL 4
REMARK VINA RESULT:      -8.5      6.229      8.531
REMARK  Name = 
REMARK  6 active torsions:
REMARK  status: ('A' for Active; 'I' for Inactive)
REMARK    1  A    between atoms: C_1  and  C_2
REMARK    2  A    between atoms: C_5  and  C_6
REMARK    3  A    between atoms: C_9  and  C_10
REMARK    4  A    between atoms: C_10  and  C_11
REMARK    5  A    between atoms: C_11  and  C_12
REMARK    6  A    between atoms: N_14  and  C_15
REMARK                            x       y       z     vdW  Elec       q    Type
REMARK                         _______ _______ _______ _____ _____    ______ ____
ROOT
ATOM      1  C   UNL     1       4.020   4.733  20.010  0.00  0.00    +0.000 C 
ENDROOT
BRANCH   1   2
ATOM      2  C   UNL     1       4.618   4.307  18.685  0.00  0.00    +0.000 C 
ATOM      3  O   UNL     1       4.541   3.135  18.321  0.00  0.00    +0.000 OA
ATOM      4  N   UNL     1       5.250   5.310  17.971  0.00  0.00    +0.000 N 
ATOM      5  H   UNL     1       5.432   6.190  18.439  0.00  0.00    +0.000 HD
BRANCH   4   6
ATOM      6  C   UNL     1       5.859   5.104  16.705  0.00  0.00    +0.000 A 
ATOM      7  C   UNL     1       7.070   5.680  16.330  0.00  0.00    +0.000 A 
ATOM      8  N   UNL     1       7.645   5.561  15.111  0.00  0.00    +0.000 NA
ATOM      9  C   UNL     1       6.995   4.855  14.183  0.00  0.00    +0.000 A 
ATOM     10  C   UNL     1       7.535   4.784  12.911  0.00  0.00    +0.000 A 
ATOM     11  C   UNL     1       6.899   4.086  11.885  0.00  0.00    +0.000 A 
ATOM     12  C   UNL     1       5.699   3.435  12.140  0.00  0.00    +0.000 A 
ATOM     13  C   UNL     1       5.139   3.481  13.419  0.00  0.00    +0.000 A 
ATOM     14  C   UNL     1       5.775   4.195  14.452  0.00  0.00    +0.000 A 
ATOM     15  C   UNL     1       5.230   4.308  15.750  0.00  0.00    +0.000 A 
ENDBRANCH   4   6
ENDBRANCH   1   2
BRANCH   1  16
ATOM     16  C   UNL     1       2.534   5.040  19.793  0.00  0.00    +0.000 C 
BRANCH  16  20
ATOM     17  C   UNL     1       1.377   8.361  20.101  0.00  0.00    +0.000 A 
ATOM     18  N   UNL     1       2.002   8.517  18.949  0.00  0.00    +0.000 NA
ATOM     19  N   UNL     1       2.563   7.294  18.629  0.00  0.00    +0.000 NA
ATOM     20  C   UNL     1       2.241   6.476  19.606  0.00  0.00    +0.000 A 
ATOM     21  O   UNL     1       1.497   7.083  20.585  0.00  0.00    +0.000 OA
BRANCH  17  26
ATOM     22  C   UNL     1      -1.679  12.147  23.242  0.00  0.00    +0.000 C 
ATOM     23  C   UNL     1      -0.906  11.151  22.428  0.00  0.00    +0.000 A 
ATOM     24  C   UNL     1      -0.441   9.959  22.991  0.00  0.00    +0.000 A 
ATOM     25  C   UNL     1       0.288   9.047  22.219  0.00  0.00    +0.000 A 
ATOM     26  C   UNL     1       0.574   9.306  20.870  0.00  0.00    +0.000 A 
ATOM     27  C   UNL     1       0.092  10.498  20.309  0.00  0.00    +0.000 A 
ATOM     28  C   UNL     1      -0.640  11.409  21.078  0.00  0.00    +0.000 A 
ENDBRANCH  17  26
ENDBRANCH  16  20
ENDBRANCH   1  16
TORSDOF 5
ENDMDL
MODEL 5
REMARK VINA RESULT:      -8.5      1.761     11.186
REMARK  Name = 
REMARK  6 active torsions:
REMARK  status: ('A' for Active; 'I' for Inactive)
REMARK    1  A    between atoms: C_1  and  C_2
REMARK    2  A    between atoms: C_5  and  C_6
REMARK    3  A    between atoms: C_9  and  C_10
REMARK    4  A    between atoms: C_10  and  C_11
REMARK    5  A    between atoms: C_11  and  C_12
REMARK    6  A    between atoms: N_14  and  C_15
REMARK                            x       y       z     vdW  Elec       q    Type
REMARK                         _______ _______ _______ _____ _____    ______ ____
ROOT
ATOM      1  C   UNL     1       7.529   8.938  17.731  0.00  0.00    +0.000 C 
ENDROOT
BRANCH   1   2
ATOM      2  C   UNL     1       8.564   9.880  18.310  0.00  0.00    +0.000 C 
ATOM      3  O   UNL     1       9.318   9.497  19.203  0.00  0.00    +0.000 OA
ATOM      4  N   UNL     1       8.560  11.159  17.782  0.00  0.00    +0.000 N 
ATOM      5  H   UNL     1       7.780  11.435  17.197  0.00  0.00    +0.000 HD
BRANCH   4   6
ATOM      6  C   UNL     1       9.462  12.177  18.191  0.00  0.00    +0.000 A 
ATOM      7  C   UNL     1      10.813  12.192  17.854  0.00  0.00    +0.000 A 
ATOM      8  N   UNL     1      11.713  13.108  18.282  0.00  0.00    +0.000 NA
ATOM      9  C   UNL     1      11.283  14.062  19.111  0.00  0.00    +0.000 A 
ATOM     10  C   UNL     1      12.207  14.962  19.613  0.00  0.00    +0.000 A 
ATOM     11  C   UNL     1      11.835  15.970  20.502  0.00  0.00    +0.000 A 
ATOM     12  C   UNL     1      10.506  16.086  20.891  0.00  0.00    +0.000 A 
ATOM     13  C   UNL     1       9.553  15.196  20.389  0.00  0.00    +0.000 A 
ATOM     14  C   UNL     1       9.929  14.173  19.499  0.00  0.00    +0.000 A 
ATOM     15  C   UNL     1       9.013  13.223  18.996  0.00  0.00    +0.000 A 
ENDBRANCH   4   6
ENDBRANCH   1   2
BRANCH   1  16
ATOM     16  C   UNL     1       8.013   7.499  17.946  0.00  0.00    +0.000 C 
BRANCH  16  20
ATOM     17  C   UNL     1       5.498   5.157  17.140  0.00  0.00    +0.000 A 
ATOM     18  N   UNL     1       6.243   4.965  16.068  0.00  0.00    +0.000 NA
ATOM     19  N   UNL     1       7.322   5.824  16.171  0.00  0.00    +0.000 NA
ATOM     20  C   UNL     1       7.162   6.479  17.299  0.00  0.00    +0.000 A 
ATOM     21  O   UNL     1       6.020   6.119  17.967  0.00  0.00    +0.000 OA
BRANCH  17  26
ATOM     22  C   UNL     1       0.584   2.519  18.699  0.00  0.00    +0.000 C 
ATOM     23  C   UNL     1       1.860   3.211  18.318  0.00  0.00    +0.000 A 
ATOM     24  C   UNL     1       1.915   4.600  18.172  0.00  0.00    +0.000 A 
ATOM     25  C   UNL     1       3.111   5.228  17.805  0.00  0.00    +0.000 A 
ATOM     26  C   UNL     1       4.277   4.482  17.569  0.00  0.00    +0.000 A 
ATOM     27  C   UNL     1       4.216   3.090  17.731  0.00  0.00    +0.000 A 
ATOM     28  C   UNL     1       3.022   2.462  18.101  0.00  0.00    +0.000 A 
ENDBRANCH  17  26
ENDBRANCH  16  20
ENDBRANCH   1  16
TORSDOF 5
ENDMDL
MODEL 6
REMARK VINA RESULT:      -8.5      4.779      7.742
REMARK  Name = 
REMARK  6 active torsions:
REMARK  status: ('A' for Active; 'I' for Inactive)
REMARK    1  A    between atoms: C_1  and  C_2
REMARK    2  A    between atoms: C_5  and  C_6
REMARK    3  A    between atoms: C_9  and  C_10
REMARK    4  A    between atoms: C_10  and  C_11
REMARK    5  A    between atoms: C_11  and  C_12
REMARK    6  A    between atoms: N_14  and  C_15
REMARK                            x       y       z     vdW  Elec       q    Type
REMARK                         _______ _______ _______ _____ _____    ______ ____
ROOT
ATOM      1  C   UNL     1       1.762   2.673  21.475  0.00  0.00    +0.000 C 
ENDROOT
BRANCH   1   2
ATOM      2  C   UNL     1       1.456   3.870  20.598  0.00  0.00    +0.000 C 
ATOM      3  O   UNL     1       0.694   3.754  19.639  0.00  0.00    +0.000 OA
ATOM      4  N   UNL     1       2.104   5.041  20.947  0.00  0.00    +0.000 N 
ATOM      5  H   UNL     1       2.856   4.990  21.625  0.00  0.00    +0.000 HD
BRANCH   4   6
ATOM      6  C   UNL     1       1.935   6.267  20.251  0.00  0.00    +0.000 A 
ATOM      7  C   UNL     1       2.364   6.476  18.943  0.00  0.00    +0.000 A 
ATOM      8  N   UNL     1       2.281   7.649  18.273  0.00  0.00    +0.000 NA
ATOM      9  C   UNL     1       1.768   8.699  18.919  0.00  0.00    +0.000 A 
ATOM     10  C   UNL     1       1.743   9.922  18.272  0.00  0.00    +0.000 A 
ATOM     11  C   UNL     1       1.244  11.067  18.894  0.00  0.00    +0.000 A 
ATOM     12  C   UNL     1       0.751  10.984  20.189  0.00  0.00    +0.000 A 
ATOM     13  C   UNL     1       0.755   9.759  20.859  0.00  0.00    +0.000 A 
ATOM     14  C   UNL     1       1.267   8.605  20.237  0.00  0.00    +0.000 A 
ATOM     15  C   UNL     1       1.333   7.352  20.886  0.00  0.00    +0.000 A 
ENDBRANCH   4   6
ENDBRANCH   1   2
BRANCH   1  16
ATOM     16  C   UNL     1       3.222   2.268  21.245  0.00  0.00    +0.000 C 
BRANCH  16  20
ATOM     17  C   UNL     1       4.924   4.078  18.737  0.00  0.00    +0.000 A 
ATOM     18  N   UNL     1       4.356   3.195  17.937  0.00  0.00    +0.000 NA
ATOM     19  N   UNL     1       3.619   2.343  18.740  0.00  0.00    +0.000 NA
ATOM     20  C   UNL     1       3.788   2.766  19.973  0.00  0.00    +0.000 A 
ATOM     21  O   UNL     1       4.614   3.857  20.055  0.00  0.00    +0.000 OA
BRANCH  17  26
ATOM     22  C   UNL     1       8.359   8.551  17.421  0.00  0.00    +0.000 C 
ATOM     23  C   UNL     1       7.463   7.403  17.783  0.00  0.00    +0.000 A 
ATOM     24  C   UNL     1       7.807   6.506  18.798  0.00  0.00    +0.000 A 
ATOM     25  C   UNL     1       6.964   5.434  19.114  0.00  0.00    +0.000 A 
ATOM     26  C   UNL     1       5.762   5.231  18.420  0.00  0.00    +0.000 A 
ATOM     27  C   UNL     1       5.417   6.143  17.412  0.00  0.00    +0.000 A 
ATOM     28  C   UNL     1       6.257   7.217  17.098  0.00  0.00    +0.000 A 
ENDBRANCH  17  26
ENDBRANCH  16  20
ENDBRANCH   1  16
TORSDOF 5
ENDMDL
MODEL 7
REMARK VINA RESULT:      -8.5      1.841     10.976
REMARK  Name = 
REMARK  6 active torsions:
REMARK  status: ('A' for Active; 'I' for Inactive)
REMARK    1  A    between atoms: C_1  and  C_2
REMARK    2  A    between atoms: C_5  and  C_6
REMARK    3  A    between atoms: C_9  and  C_10
REMARK    4  A    between atoms: C_10  and  C_11
REMARK    5  A    between atoms: C_11  and  C_12
REMARK    6  A    between atoms: N_14  and  C_15
REMARK                            x       y       z     vdW  Elec       q    Type
REMARK                         _______ _______ _______ _____ _____    ______ ____
ROOT
ATOM      1  C   UNL     1       8.299   8.028  18.581  0.00  0.00    +0.000 C 
ENDROOT
BRANCH   1   2
ATOM      2  C   UNL     1       8.625   9.508  18.608  0.00  0.00    +0.000 C 
ATOM      3  O   UNL     1       8.173  10.256  17.742  0.00  0.00    +0.000 OA
ATOM      4  N   UNL     1       9.459   9.911  19.635  0.00  0.00    +0.000 N 
ATOM      5  H   UNL     1       9.934   9.198  20.176  0.00  0.00    +0.000 HD
BRANCH   4   6
ATOM      6  C   UNL     1       9.867  11.257  19.829  0.00  0.00    +0.000 A 
ATOM      7  C   UNL     1      10.844  11.885  19.061  0.00  0.00    +0.000 A 
ATOM      8  N   UNL     1      11.304  13.142  19.262  0.00  0.00    +0.000 NA
ATOM      9  C   UNL     1      10.802  13.832  20.289  0.00  0.00    +0.000 A 
ATOM     10  C   UNL     1      11.315  15.091  20.549  0.00  0.00    +0.000 A 
ATOM     11  C   UNL     1      10.856  15.858  21.620  0.00  0.00    +0.000 A 
ATOM     12  C   UNL     1       9.856  15.359  22.443  0.00  0.00    +0.000 A 
ATOM     13  C   UNL     1       9.314  14.096  22.194  0.00  0.00    +0.000 A 
ATOM     14  C   UNL     1       9.783  13.316  21.120  0.00  0.00    +0.000 A 
ATOM     15  C   UNL     1       9.299  12.017  20.851  0.00  0.00    +0.000 A 
ENDBRANCH   4   6
ENDBRANCH   1   2
BRANCH   1  16
ATOM     16  C   UNL     1       7.633   7.706  17.239  0.00  0.00    +0.000 C 
BRANCH  16  20
ATOM     17  C   UNL     1       5.581   4.844  17.493  0.00  0.00    +0.000 A 
ATOM     18  N   UNL     1       6.611   4.251  16.919  0.00  0.00    +0.000 NA
ATOM     19  N   UNL     1       7.568   5.226  16.707  0.00  0.00    +0.000 NA
ATOM     20  C   UNL     1       7.057   6.346  17.168  0.00  0.00    +0.000 A 
ATOM     21  O   UNL     1       5.793   6.188  17.673  0.00  0.00    +0.000 OA
BRANCH  17  26
ATOM     22  C   UNL     1       0.630   2.684  19.581  0.00  0.00    +0.000 C 
ATOM     23  C   UNL     1       1.917   3.223  19.028  0.00  0.00    +0.000 A 
ATOM     24  C   UNL     1       3.153   2.745  19.471  0.00  0.00    +0.000 A 
ATOM     25  C   UNL     1       4.343   3.267  18.951  0.00  0.00    +0.000 A 
ATOM     26  C   UNL     1       4.326   4.283  17.983  0.00  0.00    +0.000 A 
ATOM     27  C   UNL     1       3.081   4.747  17.534  0.00  0.00    +0.000 A 
ATOM     28  C   UNL     1       1.890   4.223  18.050  0.00  0.00    +0.000 A 
ENDBRANCH  17  26
ENDBRANCH  16  20
ENDBRANCH   1  16
TORSDOF 5
ENDMDL
MODEL 8
REMARK VINA RESULT:      -8.5      1.448     11.355
REMARK  Name = 
REMARK  6 active torsions:
REMARK  status: ('A' for Active; 'I' for Inactive)
REMARK    1  A    between atoms: C_1  and  C_2
REMARK    2  A    between atoms: C_5  and  C_6
REMARK    3  A    between atoms: C_9  and  C_10
REMARK    4  A    between atoms: C_10  and  C_11
REMARK    5  A    between atoms: C_11  and  C_12
REMARK    6  A    between atoms: N_14  and  C_15
REMARK                            x       y       z     vdW  Elec       q    Type
REMARK                         _______ _______ _______ _____ _____    ______ ____
ROOT
ATOM      1  C   UNL     1       7.896   8.667  17.643  0.00  0.00    +0.000 C 
ENDROOT
BRANCH   1   2
ATOM      2  C   UNL     1       8.682   9.755  18.346  0.00  0.00    +0.000 C 
ATOM      3  O   UNL     1       9.275   9.510  19.395  0.00  0.00    +0.000 OA
ATOM      4  N   UNL     1       8.649  10.997  17.736  0.00  0.00    +0.000 N 
ATOM      5  H   UNL     1       7.980  11.147  16.989  0.00  0.00    +0.000 HD
BRANCH   4   6
ATOM      6  C   UNL     1       9.332  12.135  18.240  0.00  0.00    +0.000 A 
ATOM      7  C   UNL     1       9.317  12.511  19.580  0.00  0.00    +0.000 A 
ATOM      8  N   UNL     1       9.899  13.625  20.083  0.00  0.00    +0.000 NA
ATOM      9  C   UNL     1      10.519  14.443  19.229  0.00  0.00    +0.000 A 
ATOM     10  C   UNL     1      11.056  15.621  19.718  0.00  0.00    +0.000 A 
ATOM     11  C   UNL     1      11.696  16.534  18.880  0.00  0.00    +0.000 A 
ATOM     12  C   UNL     1      11.809  16.259  17.523  0.00  0.00    +0.000 A 
ATOM     13  C   UNL     1      11.286  15.071  17.008  0.00  0.00    +0.000 A 
ATOM     14  C   UNL     1      10.631  14.153  17.850  0.00  0.00    +0.000 A 
ATOM     15  C   UNL     1      10.047  12.959  17.372  0.00  0.00    +0.000 A 
ENDBRANCH   4   6
ENDBRANCH   1   2
BRANCH   1  16
ATOM     16  C   UNL     1       8.088   7.358  18.417  0.00  0.00    +0.000 C 
BRANCH  16  20
ATOM     17  C   UNL     1       5.692   4.866  17.701  0.00  0.00    +0.000 A 
ATOM     18  N   UNL     1       6.595   4.475  16.822  0.00  0.00    +0.000 NA
ATOM     19  N   UNL     1       7.659   5.353  16.924  0.00  0.00    +0.000 NA
ATOM     20  C   UNL     1       7.333   6.217  17.859  0.00  0.00    +0.000 A 
ATOM     21  O   UNL     1       6.092   5.982  18.393  0.00  0.00    +0.000 OA
BRANCH  17  26
ATOM     22  C   UNL     1       0.562   2.482  18.945  0.00  0.00    +0.000 C 
ATOM     23  C   UNL     1       1.887   3.118  18.639  0.00  0.00    +0.000 A 
ATOM     24  C   UNL     1       1.969   4.319  17.930  0.00  0.00    +0.000 A 
ATOM     25  C   UNL     1       3.214   4.892  17.645  0.00  0.00    +0.000 A 
ATOM     26  C   UNL     1       4.405   4.274  18.054  0.00  0.00    +0.000 A 
ATOM     27  C   UNL     1       4.314   3.075  18.777  0.00  0.00    +0.000 A 
ATOM     28  C   UNL     1       3.070   2.504  19.066  0.00  0.00    +0.000 A 
ENDBRANCH  17  26
ENDBRANCH  16  20
ENDBRANCH   1  16
TORSDOF 5
ENDMDL
MODEL 9
REMARK VINA RESULT:      -8.4      4.280      7.147
REMARK  Name = 
REMARK  6 active torsions:
REMARK  status: ('A' for Active; 'I' for Inactive)
REMARK    1  A    between atoms: C_1  and  C_2
REMARK    2  A    between atoms: C_5  and  C_6
REMARK    3  A    between atoms: C_9  and  C_10
REMARK    4  A    between atoms: C_10  and  C_11
REMARK    5  A    between atoms: C_11  and  C_12
REMARK    6  A    between atoms: N_14  and  C_15
REMARK                            x       y       z     vdW  Elec       q    Type
REMARK                         _______ _______ _______ _____ _____    ______ ____
ROOT
ATOM      1  C   UNL     1       2.931   2.675  20.464  0.00  0.00    +0.000 C 
ENDROOT
BRANCH   1   2
ATOM      2  C   UNL     1       2.283   3.911  19.875  0.00  0.00    +0.000 C 
ATOM      3  O   UNL     1       1.331   3.801  19.103  0.00  0.00    +0.000 OA
ATOM      4  N   UNL     1       2.853   5.114  20.251  0.00  0.00    +0.000 N 
ATOM      5  H   UNL     1       3.747   5.094  20.728  0.00  0.00    +0.000 HD
BRANCH   4   6
ATOM      6  C   UNL     1       2.377   6.377  19.809  0.00  0.00    +0.000 A 
ATOM      7  C   UNL     1       2.599   6.880  18.530  0.00  0.00    +0.000 A 
ATOM      8  N   UNL     1       2.219   8.106  18.098  0.00  0.00    +0.000 NA
ATOM      9  C   UNL     1       1.603   8.909  18.969  0.00  0.00    +0.000 A 
ATOM     10  C   UNL     1       1.273  10.190  18.562  0.00  0.00    +0.000 A 
ATOM     11  C   UNL     1       0.651  11.092  19.425  0.00  0.00    +0.000 A 
ATOM     12  C   UNL     1       0.342  10.699  20.721  0.00  0.00    +0.000 A 
ATOM     13  C   UNL     1       0.654   9.407  21.151  0.00  0.00    +0.000 A 
ATOM     14  C   UNL     1       1.291   8.500  20.285  0.00  0.00    +0.000 A 
ATOM     15  C   UNL     1       1.666   7.198  20.683  0.00  0.00    +0.000 A 
ENDBRANCH   4   6
ENDBRANCH   1   2
BRANCH   1  16
ATOM     16  C   UNL     1       3.878   2.080  19.415  0.00  0.00    +0.000 C 
BRANCH  16  20
ATOM     17  C   UNL     1       5.445   4.775  17.758  0.00  0.00    +0.000 A 
ATOM     18  N   UNL     1       4.800   4.297  16.710  0.00  0.00    +0.000 NA
ATOM     19  N   UNL     1       4.101   3.185  17.143  0.00  0.00    +0.000 NA
ATOM     20  C   UNL     1       4.365   3.062  18.424  0.00  0.00    +0.000 A 
ATOM     21  O   UNL     1       5.221   4.027  18.887  0.00  0.00    +0.000 OA
BRANCH  17  26
ATOM     22  C   UNL     1       8.904   9.400  18.185  0.00  0.00    +0.000 C 
ATOM     23  C   UNL     1       7.999   8.206  18.096  0.00  0.00    +0.000 A 
ATOM     24  C   UNL     1       8.247   7.051  18.844  0.00  0.00    +0.000 A 
ATOM     25  C   UNL     1       7.398   5.943  18.740  0.00  0.00    +0.000 A 
ATOM     26  C   UNL     1       6.286   5.961  17.884  0.00  0.00    +0.000 A 
ATOM     27  C   UNL     1       6.036   7.129  17.148  0.00  0.00    +0.000 A 
ATOM     28  C   UNL     1       6.882   8.238  17.253  0.00  0.00    +0.000 A 
ENDBRANCH  17  26
ENDBRANCH  16  20
ENDBRANCH   1  16
TORSDOF 5
ENDMDL
