MODEL 1
REMARK VINA RESULT:      -9.4      0.000      0.000
REMARK  Name = 
REMARK  6 active torsions:
REMARK  status: ('A' for Active; 'I' for Inactive)
REMARK    1  A    between atoms: C_2  and  C_24
REMARK    2  A    between atoms: N_3  and  C_4
REMARK    3  A    between atoms: C_8  and  S_9
REMARK    4  A    between atoms: S_9  and  N_12
REMARK    5  A    between atoms: N_12  and  C_13
REMARK    6  A    between atoms: C_17  and  C_18
REMARK                            x       y       z     vdW  Elec       q    Type
REMARK                         _______ _______ _______ _____ _____    ______ ____
ROOT
ATOM      1  C   UNL     1       8.022   8.283  18.007  0.00  0.00    +0.000 A 
ATOM      2  C   UNL     1       8.518   7.400  18.970  0.00  0.00    +0.000 A 
ATOM      3  C   UNL     1       7.962   6.131  19.135  0.00  0.00    +0.000 A 
ATOM      4  C   UNL     1       6.899   5.727  18.335  0.00  0.00    +0.000 A 
ATOM      5  C   UNL     1       6.386   6.608  17.378  0.00  0.00    +0.000 A 
ATOM      6  C   UNL     1       6.924   7.894  17.229  0.00  0.00    +0.000 A 
ENDROOT
BRANCH   1   9
ATOM      7  O   UNL     1       9.201  10.136  19.941  0.00  0.00    +0.000 OA
ATOM      8  C   UNL     1       9.106  10.398  18.745  0.00  0.00    +0.000 C 
ATOM      9  N   UNL     1       8.576   9.559  17.778  0.00  0.00    +0.000 N 
ATOM     10  H   UNL     1       8.662   9.846  16.808  0.00  0.00    +0.000 HD
BRANCH   8  11
ATOM     11  C   UNL     1       9.651  11.704  18.281  0.00  0.00    +0.000 A 
ATOM     12  C   UNL     1       8.777  12.803  18.220  0.00  0.00    +0.000 A 
ATOM     13  C   UNL     1       9.236  14.050  17.792  0.00  0.00    +0.000 A 
ATOM     14  C   UNL     1      10.570  14.211  17.416  0.00  0.00    +0.000 A 
ATOM     15  C   UNL     1      11.444  13.127  17.478  0.00  0.00    +0.000 A 
ATOM     16  C   UNL     1      10.983  11.886  17.907  0.00  0.00    +0.000 A 
ATOM     17  F   UNL     1      11.861  10.871  17.962  0.00  0.00    +0.000 F 
ENDBRANCH   8  11
ENDBRANCH   1   9
BRANCH   5  18
ATOM     18  S   UNL     1       4.987   6.119  16.389  0.00  0.00    +0.000 S 
ATOM     19  O   UNL     1       5.081   6.792  15.115  0.00  0.00    +0.000 OA
ATOM     20  O   UNL     1       4.885   4.676  16.469  0.00  0.00    +0.000 OA
BRANCH  18  21
ATOM     21  N   UNL     1       3.669   6.722  17.235  0.00  0.00    +0.000 N 
ATOM     22  H   UNL     1       3.277   7.608  16.927  0.00  0.00    +0.000 HD
BRANCH  21  23
ATOM     23  C   UNL     1       3.048   5.950  18.238  0.00  0.00    +0.000 A 
ATOM     24  C   UNL     1       2.751   6.525  19.472  0.00  0.00    +0.000 A 
ATOM     25  C   UNL     1       2.073   5.780  20.436  0.00  0.00    +0.000 A 
ATOM     26  C   UNL     1       1.697   4.463  20.166  0.00  0.00    +0.000 A 
ATOM     27  C   UNL     1       2.004   3.872  18.930  0.00  0.00    +0.000 A 
ATOM     28  C   UNL     1       2.705   4.623  17.975  0.00  0.00    +0.000 A 
BRANCH  27  29
ATOM     29  C   UNL     1       1.551   2.471  18.604  0.00  0.00    +0.000 C 
ATOM     30  F   UNL     1       1.855   1.565  19.576  0.00  0.00    +0.000 F 
ATOM     31  F   UNL     1       0.204   2.388  18.430  0.00  0.00    +0.000 F 
ATOM     32  F   UNL     1       2.109   1.990  17.458  0.00  0.00    +0.000 F 
ENDBRANCH  27  29
ENDBRANCH  21  23
ENDBRANCH  18  21
ENDBRANCH   5  18
TORSDOF 6
ENDMDL
MODEL 2
REMARK VINA RESULT:      -9.4      1.300      1.827
REMARK  Name = 
REMARK  6 active torsions:
REMARK  status: ('A' for Active; 'I' for Inactive)
REMARK    1  A    between atoms: C_2  and  C_24
REMARK    2  A    between atoms: N_3  and  C_4
REMARK    3  A    between atoms: C_8  and  S_9
REMARK    4  A    between atoms: S_9  and  N_12
REMARK    5  A    between atoms: N_12  and  C_13
REMARK    6  A    between atoms: C_17  and  C_18
REMARK                            x       y       z     vdW  Elec       q    Type
REMARK                         _______ _______ _______ _____ _____    ______ ____
ROOT
ATOM      1  C   UNL     1       8.036   8.140  18.062  0.00  0.00    +0.000 A 
ATOM      2  C   UNL     1       8.509   7.307  19.080  0.00  0.00    +0.000 A 
ATOM      3  C   UNL     1       7.995   6.021  19.253  0.00  0.00    +0.000 A 
ATOM      4  C   UNL     1       6.997   5.550  18.407  0.00  0.00    +0.000 A 
ATOM      5  C   UNL     1       6.508   6.380  17.393  0.00  0.00    +0.000 A 
ATOM      6  C   UNL     1       7.003   7.683  17.235  0.00  0.00    +0.000 A 
ENDROOT
BRANCH   1   9
ATOM      7  O   UNL     1       9.158  10.040  19.984  0.00  0.00    +0.000 OA
ATOM      8  C   UNL     1       9.056  10.291  18.787  0.00  0.00    +0.000 C 
ATOM      9  N   UNL     1       8.551   9.430  17.825  0.00  0.00    +0.000 N 
ATOM     10  H   UNL     1       8.629   9.714  16.853  0.00  0.00    +0.000 HD
BRANCH   8  11
ATOM     11  C   UNL     1       9.562  11.610  18.314  0.00  0.00    +0.000 A 
ATOM     12  C   UNL     1       8.669  12.695  18.298  0.00  0.00    +0.000 A 
ATOM     13  C   UNL     1       9.090  13.953  17.864  0.00  0.00    +0.000 A 
ATOM     14  C   UNL     1      10.406  14.139  17.438  0.00  0.00    +0.000 A 
ATOM     15  C   UNL     1      11.299  13.069  17.455  0.00  0.00    +0.000 A 
ATOM     16  C   UNL     1      10.874  11.816  17.890  0.00  0.00    +0.000 A 
ATOM     17  F   UNL     1      11.770  10.816  17.900  0.00  0.00    +0.000 F 
ENDBRANCH   8  11
ENDBRANCH   1   9
BRANCH   5  18
ATOM     18  S   UNL     1       5.190   5.804  16.342  0.00  0.00    +0.000 S 
ATOM     19  O   UNL     1       5.048   6.738  15.249  0.00  0.00    +0.000 OA
ATOM     20  O   UNL     1       5.417   4.394  16.099  0.00  0.00    +0.000 OA
BRANCH  18  21
ATOM     21  N   UNL     1       3.830   5.892  17.320  0.00  0.00    +0.000 N 
ATOM     22  H   UNL     1       3.389   6.800  17.434  0.00  0.00    +0.000 HD
BRANCH  21  23
ATOM     23  C   UNL     1       3.246   4.718  17.840  0.00  0.00    +0.000 A 
ATOM     24  C   UNL     1       2.990   3.638  16.998  0.00  0.00    +0.000 A 
ATOM     25  C   UNL     1       2.479   2.455  17.527  0.00  0.00    +0.000 A 
ATOM     26  C   UNL     1       2.223   2.354  18.896  0.00  0.00    +0.000 A 
ATOM     27  C   UNL     1       2.466   3.441  19.750  0.00  0.00    +0.000 A 
ATOM     28  C   UNL     1       2.960   4.635  19.204  0.00  0.00    +0.000 A 
BRANCH  27  29
ATOM     29  C   UNL     1       2.249   3.326  21.238  0.00  0.00    +0.000 C 
ATOM     30  F   UNL     1       2.448   4.498  21.905  0.00  0.00    +0.000 F 
ATOM     31  F   UNL     1       0.984   2.934  21.550  0.00  0.00    +0.000 F 
ATOM     32  F   UNL     1       3.079   2.419  21.824  0.00  0.00    +0.000 F 
ENDBRANCH  27  29
ENDBRANCH  21  23
ENDBRANCH  18  21
ENDBRANCH   5  18
TORSDOF 6
ENDMDL
MODEL 3
REMARK VINA RESULT:      -9.4      1.591      2.003
REMARK  Name = 
REMARK  6 active torsions:
REMARK  status: ('A' for Active; 'I' for Inactive)
REMARK    1  A    between atoms: C_2  and  C_24
REMARK    2  A    between atoms: N_3  and  C_4
REMARK    3  A    between atoms: C_8  and  S_9
REMARK    4  A    between atoms: S_9  and  N_12
REMARK    5  A    between atoms: N_12  and  C_13
REMARK    6  A    between atoms: C_17  and  C_18
REMARK                            x       y       z     vdW  Elec       q    Type
REMARK                         _______ _______ _______ _____ _____    ______ ____
ROOT
ATOM      1  C   UNL     1       7.971   8.066  18.115  0.00  0.00    +0.000 A 
ATOM      2  C   UNL     1       8.547   7.179  19.029  0.00  0.00    +0.000 A 
ATOM      3  C   UNL     1       7.995   5.917  19.252  0.00  0.00    +0.000 A 
ATOM      4  C   UNL     1       6.854   5.524  18.560  0.00  0.00    +0.000 A 
ATOM      5  C   UNL     1       6.262   6.409  17.653  0.00  0.00    +0.000 A 
ATOM      6  C   UNL     1       6.799   7.689  17.449  0.00  0.00    +0.000 A 
ENDROOT
BRANCH   1   9
ATOM      7  O   UNL     1       9.190   9.988  19.955  0.00  0.00    +0.000 OA
ATOM      8  C   UNL     1       9.066  10.207  18.754  0.00  0.00    +0.000 C 
ATOM      9  N   UNL     1       8.515   9.334  17.829  0.00  0.00    +0.000 N 
ATOM     10  H   UNL     1       8.577   9.588  16.848  0.00  0.00    +0.000 HD
BRANCH   8  11
ATOM     11  C   UNL     1       9.596  11.498  18.232  0.00  0.00    +0.000 A 
ATOM     12  C   UNL     1       8.681  12.531  17.965  0.00  0.00    +0.000 A 
ATOM     13  C   UNL     1       9.124  13.761  17.475  0.00  0.00    +0.000 A 
ATOM     14  C   UNL     1      10.484  13.969  17.241  0.00  0.00    +0.000 A 
ATOM     15  C   UNL     1      11.398  12.951  17.506  0.00  0.00    +0.000 A 
ATOM     16  C   UNL     1      10.952  11.727  17.998  0.00  0.00    +0.000 A 
ATOM     17  F   UNL     1      11.868  10.778  18.250  0.00  0.00    +0.000 F 
ENDBRANCH   8  11
ENDBRANCH   1   9
BRANCH   5  18
ATOM     18  S   UNL     1       4.768   5.935  16.806  0.00  0.00    +0.000 S 
ATOM     19  O   UNL     1       3.693   6.767  17.293  0.00  0.00    +0.000 OA
ATOM     20  O   UNL     1       5.078   5.861  15.393  0.00  0.00    +0.000 OA
BRANCH  18  21
ATOM     21  N   UNL     1       4.509   4.354  17.306  0.00  0.00    +0.000 N 
ATOM     22  H   UNL     1       5.272   3.693  17.192  0.00  0.00    +0.000 HD
BRANCH  21  23
ATOM     23  C   UNL     1       3.327   4.004  17.991  0.00  0.00    +0.000 A 
ATOM     24  C   UNL     1       2.144   3.813  17.280  0.00  0.00    +0.000 A 
ATOM     25  C   UNL     1       0.994   3.398  17.950  0.00  0.00    +0.000 A 
ATOM     26  C   UNL     1       1.029   3.179  19.328  0.00  0.00    +0.000 A 
ATOM     27  C   UNL     1       2.213   3.381  20.054  0.00  0.00    +0.000 A 
ATOM     28  C   UNL     1       3.359   3.819  19.373  0.00  0.00    +0.000 A 
BRANCH  27  29
ATOM     29  C   UNL     1       2.280   3.090  21.533  0.00  0.00    +0.000 C 
ATOM     30  F   UNL     1       1.131   2.551  22.029  0.00  0.00    +0.000 F 
ATOM     31  F   UNL     1       3.267   2.206  21.844  0.00  0.00    +0.000 F 
ATOM     32  F   UNL     1       2.523   4.203  22.279  0.00  0.00    +0.000 F 
ENDBRANCH  27  29
ENDBRANCH  21  23
ENDBRANCH  18  21
ENDBRANCH   5  18
TORSDOF 6
ENDMDL
MODEL 4
REMARK VINA RESULT:      -9.3      5.047      6.266
REMARK  Name = 
REMARK  6 active torsions:
REMARK  status: ('A' for Active; 'I' for Inactive)
REMARK    1  A    between atoms: C_2  and  C_24
REMARK    2  A    between atoms: N_3  and  C_4
REMARK    3  A    between atoms: C_8  and  S_9
REMARK    4  A    between atoms: S_9  and  N_12
REMARK    5  A    between atoms: N_12  and  C_13
REMARK    6  A    between atoms: C_17  and  C_18
REMARK                            x       y       z     vdW  Elec       q    Type
REMARK                         _______ _______ _______ _____ _____    ______ ____
ROOT
ATOM      1  C   UNL     1       4.116   7.384  17.185  0.00  0.00    +0.000 A 
ATOM      2  C   UNL     1       4.342   7.281  15.809  0.00  0.00    +0.000 A 
ATOM      3  C   UNL     1       5.285   6.386  15.301  0.00  0.00    +0.000 A 
ATOM      4  C   UNL     1       6.017   5.579  16.166  0.00  0.00    +0.000 A 
ATOM      5  C   UNL     1       5.808   5.685  17.545  0.00  0.00    +0.000 A 
ATOM      6  C   UNL     1       4.881   6.603  18.059  0.00  0.00    +0.000 A 
ENDROOT
BRANCH   1   9
ATOM      7  O   UNL     1       2.144   6.812  19.271  0.00  0.00    +0.000 OA
ATOM      8  C   UNL     1       2.228   7.906  18.719  0.00  0.00    +0.000 C 
ATOM      9  N   UNL     1       3.148   8.244  17.740  0.00  0.00    +0.000 N 
ATOM     10  H   UNL     1       3.188   9.216  17.448  0.00  0.00    +0.000 HD
BRANCH   8  11
ATOM     11  C   UNL     1       1.298   8.978  19.172  0.00  0.00    +0.000 A 
ATOM     12  C   UNL     1       0.660   9.759  18.193  0.00  0.00    +0.000 A 
ATOM     13  C   UNL     1      -0.221  10.777  18.562  0.00  0.00    +0.000 A 
ATOM     14  C   UNL     1      -0.470  11.028  19.912  0.00  0.00    +0.000 A 
ATOM     15  C   UNL     1       0.155  10.255  20.889  0.00  0.00    +0.000 A 
ATOM     16  C   UNL     1       1.031   9.239  20.516  0.00  0.00    +0.000 A 
ATOM     17  F   UNL     1       1.604   8.512  21.489  0.00  0.00    +0.000 F 
ENDBRANCH   8  11
ENDBRANCH   1   9
BRANCH   5  18
ATOM     18  S   UNL     1       6.782   4.696  18.662  0.00  0.00    +0.000 S 
ATOM     19  O   UNL     1       8.023   4.366  18.004  0.00  0.00    +0.000 OA
ATOM     20  O   UNL     1       6.769   5.361  19.950  0.00  0.00    +0.000 OA
BRANCH  18  21
ATOM     21  N   UNL     1       5.873   3.299  18.856  0.00  0.00    +0.000 N 
ATOM     22  H   UNL     1       6.352   2.468  19.193  0.00  0.00    +0.000 HD
BRANCH  21  23
ATOM     23  C   UNL     1       4.472   3.328  18.694  0.00  0.00    +0.000 A 
ATOM     24  C   UNL     1       3.912   3.051  17.449  0.00  0.00    +0.000 A 
ATOM     25  C   UNL     1       2.525   3.010  17.309  0.00  0.00    +0.000 A 
ATOM     26  C   UNL     1       1.704   3.249  18.413  0.00  0.00    +0.000 A 
ATOM     27  C   UNL     1       2.260   3.541  19.667  0.00  0.00    +0.000 A 
ATOM     28  C   UNL     1       3.656   3.600  19.793  0.00  0.00    +0.000 A 
BRANCH  27  29
ATOM     29  C   UNL     1       1.385   3.742  20.880  0.00  0.00    +0.000 C 
ATOM     30  F   UNL     1       0.361   4.616  20.668  0.00  0.00    +0.000 F 
ATOM     31  F   UNL     1       0.802   2.585  21.296  0.00  0.00    +0.000 F 
ATOM     32  F   UNL     1       2.072   4.224  21.952  0.00  0.00    +0.000 F 
ENDBRANCH  27  29
ENDBRANCH  21  23
ENDBRANCH  18  21
ENDBRANCH   5  18
TORSDOF 6
ENDMDL
MODEL 5
REMARK VINA RESULT:      -9.2      5.592      7.681
REMARK  Name = 
REMARK  6 active torsions:
REMARK  status: ('A' for Active; 'I' for Inactive)
REMARK    1  A    between atoms: C_2  and  C_24
REMARK    2  A    between atoms: N_3  and  C_4
REMARK    3  A    between atoms: C_8  and  S_9
REMARK    4  A    between atoms: S_9  and  N_12
REMARK    5  A    between atoms: N_12  and  C_13
REMARK    6  A    between atoms: C_17  and  C_18
REMARK                            x       y       z     vdW  Elec       q    Type
REMARK                         _______ _______ _______ _____ _____    ______ ____
ROOT
ATOM      1  C   UNL     1       2.725   6.059  18.757  0.00  0.00    +0.000 A 
ATOM      2  C   UNL     1       2.045   4.920  18.314  0.00  0.00    +0.000 A 
ATOM      3  C   UNL     1       2.685   3.963  17.524  0.00  0.00    +0.000 A 
ATOM      4  C   UNL     1       4.018   4.134  17.166  0.00  0.00    +0.000 A 
ATOM      5  C   UNL     1       4.703   5.276  17.593  0.00  0.00    +0.000 A 
ATOM      6  C   UNL     1       4.054   6.253  18.362  0.00  0.00    +0.000 A 
ENDROOT
BRANCH   1   9
ATOM      7  O   UNL     1       1.575   8.644  18.008  0.00  0.00    +0.000 OA
ATOM      8  C   UNL     1       1.618   8.249  19.170  0.00  0.00    +0.000 C 
ATOM      9  N   UNL     1       2.132   7.031  19.587  0.00  0.00    +0.000 N 
ATOM     10  H   UNL     1       2.003   6.775  20.560  0.00  0.00    +0.000 HD
BRANCH   8  11
ATOM     11  C   UNL     1       1.024   9.125  20.218  0.00  0.00    +0.000 A 
ATOM     12  C   UNL     1       0.442   8.514  21.342  0.00  0.00    +0.000 A 
ATOM     13  C   UNL     1      -0.129   9.288  22.353  0.00  0.00    +0.000 A 
ATOM     14  C   UNL     1      -0.128  10.680  22.250  0.00  0.00    +0.000 A 
ATOM     15  C   UNL     1       0.451  11.294  21.141  0.00  0.00    +0.000 A 
ATOM     16  C   UNL     1       1.021  10.517  20.136  0.00  0.00    +0.000 A 
ATOM     17  F   UNL     1       1.577  11.150  19.090  0.00  0.00    +0.000 F 
ENDBRANCH   8  11
ENDBRANCH   1   9
BRANCH   5  18
ATOM     18  S   UNL     1       6.393   5.529  17.090  0.00  0.00    +0.000 S 
ATOM     19  O   UNL     1       6.450   6.736  16.298  0.00  0.00    +0.000 OA
ATOM     20  O   UNL     1       7.223   5.365  18.267  0.00  0.00    +0.000 OA
BRANCH  18  21
ATOM     21  N   UNL     1       6.721   4.210  16.107  0.00  0.00    +0.000 N 
ATOM     22  H   UNL     1       6.783   3.297  16.548  0.00  0.00    +0.000 HD
BRANCH  21  23
ATOM     23  C   UNL     1       6.759   4.355  14.704  0.00  0.00    +0.000 A 
ATOM     24  C   UNL     1       7.822   5.029  14.105  0.00  0.00    +0.000 A 
ATOM     25  C   UNL     1       7.894   5.108  12.716  0.00  0.00    +0.000 A 
ATOM     26  C   UNL     1       6.904   4.518  11.929  0.00  0.00    +0.000 A 
ATOM     27  C   UNL     1       5.824   3.848  12.524  0.00  0.00    +0.000 A 
ATOM     28  C   UNL     1       5.749   3.791  13.924  0.00  0.00    +0.000 A 
BRANCH  27  29
ATOM     29  C   UNL     1       4.779   3.155  11.685  0.00  0.00    +0.000 C 
ATOM     30  F   UNL     1       5.160   1.916  11.264  0.00  0.00    +0.000 F 
ATOM     31  F   UNL     1       3.610   2.972  12.358  0.00  0.00    +0.000 F 
ATOM     32  F   UNL     1       4.460   3.850  10.559  0.00  0.00    +0.000 F 
ENDBRANCH  27  29
ENDBRANCH  21  23
ENDBRANCH  18  21
ENDBRANCH   5  18
TORSDOF 6
ENDMDL
MODEL 6
REMARK VINA RESULT:      -9.2      5.584      7.510
REMARK  Name = 
REMARK  6 active torsions:
REMARK  status: ('A' for Active; 'I' for Inactive)
REMARK    1  A    between atoms: C_2  and  C_24
REMARK    2  A    between atoms: N_3  and  C_4
REMARK    3  A    between atoms: C_8  and  S_9
REMARK    4  A    between atoms: S_9  and  N_12
REMARK    5  A    between atoms: N_12  and  C_13
REMARK    6  A    between atoms: C_17  and  C_18
REMARK                            x       y       z     vdW  Elec       q    Type
REMARK                         _______ _______ _______ _____ _____    ______ ____
ROOT
ATOM      1  C   UNL     1       2.794   6.270  18.455  0.00  0.00    +0.000 A 
ATOM      2  C   UNL     1       2.057   5.133  18.110  0.00  0.00    +0.000 A 
ATOM      3  C   UNL     1       2.674   4.029  17.519  0.00  0.00    +0.000 A 
ATOM      4  C   UNL     1       4.042   4.048  17.267  0.00  0.00    +0.000 A 
ATOM      5  C   UNL     1       4.785   5.186  17.596  0.00  0.00    +0.000 A 
ATOM      6  C   UNL     1       4.162   6.307  18.162  0.00  0.00    +0.000 A 
ENDROOT
BRANCH   1   9
ATOM      7  O   UNL     1       2.039   8.842  17.279  0.00  0.00    +0.000 OA
ATOM      8  C   UNL     1       1.900   8.592  18.473  0.00  0.00    +0.000 C 
ATOM      9  N   UNL     1       2.221   7.392  19.086  0.00  0.00    +0.000 N 
ATOM     10  H   UNL     1       1.950   7.273  20.058  0.00  0.00    +0.000 HD
BRANCH   8  11
ATOM     11  C   UNL     1       1.290   9.647  19.330  0.00  0.00    +0.000 A 
ATOM     12  C   UNL     1       1.352  10.979  18.887  0.00  0.00    +0.000 A 
ATOM     13  C   UNL     1       0.796  12.007  19.652  0.00  0.00    +0.000 A 
ATOM     14  C   UNL     1       0.178  11.714  20.868  0.00  0.00    +0.000 A 
ATOM     15  C   UNL     1       0.109  10.395  21.312  0.00  0.00    +0.000 A 
ATOM     16  C   UNL     1       0.662   9.374  20.545  0.00  0.00    +0.000 A 
ATOM     17  F   UNL     1       0.564   8.116  21.006  0.00  0.00    +0.000 F 
ENDBRANCH   8  11
ENDBRANCH   1   9
BRANCH   5  18
ATOM     18  S   UNL     1       6.526   5.240  17.222  0.00  0.00    +0.000 S 
ATOM     19  O   UNL     1       6.802   6.486  16.547  0.00  0.00    +0.000 OA
ATOM     20  O   UNL     1       7.238   4.867  18.428  0.00  0.00    +0.000 OA
BRANCH  18  21
ATOM     21  N   UNL     1       6.744   3.971  16.146  0.00  0.00    +0.000 N 
ATOM     22  H   UNL     1       6.754   3.028  16.525  0.00  0.00    +0.000 HD
BRANCH  21  23
ATOM     23  C   UNL     1       6.765   4.207  14.756  0.00  0.00    +0.000 A 
ATOM     24  C   UNL     1       7.809   4.937  14.192  0.00  0.00    +0.000 A 
ATOM     25  C   UNL     1       7.865   5.108  12.809  0.00  0.00    +0.000 A 
ATOM     26  C   UNL     1       6.876   4.552  11.996  0.00  0.00    +0.000 A 
ATOM     27  C   UNL     1       5.814   3.826  12.557  0.00  0.00    +0.000 A 
ATOM     28  C   UNL     1       5.756   3.677  13.951  0.00  0.00    +0.000 A 
BRANCH  27  29
ATOM     29  C   UNL     1       4.773   3.170  11.685  0.00  0.00    +0.000 C 
ATOM     30  F   UNL     1       5.142   1.936  11.238  0.00  0.00    +0.000 F 
ATOM     31  F   UNL     1       3.591   2.988  12.335  0.00  0.00    +0.000 F 
ATOM     32  F   UNL     1       4.481   3.898  10.571  0.00  0.00    +0.000 F 
ENDBRANCH  27  29
ENDBRANCH  21  23
ENDBRANCH  18  21
ENDBRANCH   5  18
TORSDOF 6
ENDMDL
MODEL 7
REMARK VINA RESULT:      -9.1      5.712      7.734
REMARK  Name = 
REMARK  6 active torsions:
REMARK  status: ('A' for Active; 'I' for Inactive)
REMARK    1  A    between atoms: C_2  and  C_24
REMARK    2  A    between atoms: N_3  and  C_4
REMARK    3  A    between atoms: C_8  and  S_9
REMARK    4  A    between atoms: S_9  and  N_12
REMARK    5  A    between atoms: N_12  and  C_13
REMARK    6  A    between atoms: C_17  and  C_18
REMARK                            x       y       z     vdW  Elec       q    Type
REMARK                         _______ _______ _______ _____ _____    ______ ____
ROOT
ATOM      1  C   UNL     1       2.530   6.232  18.227  0.00  0.00    +0.000 A 
ATOM      2  C   UNL     1       2.001   4.958  18.001  0.00  0.00    +0.000 A 
ATOM      3  C   UNL     1       2.799   3.928  17.500  0.00  0.00    +0.000 A 
ATOM      4  C   UNL     1       4.141   4.160  17.218  0.00  0.00    +0.000 A 
ATOM      5  C   UNL     1       4.676   5.435  17.428  0.00  0.00    +0.000 A 
ATOM      6  C   UNL     1       3.869   6.479  17.905  0.00  0.00    +0.000 A 
ENDROOT
BRANCH   1   9
ATOM      7  O   UNL     1       2.335   9.000  17.296  0.00  0.00    +0.000 OA
ATOM      8  C   UNL     1       1.736   8.590  18.286  0.00  0.00    +0.000 C 
ATOM      9  N   UNL     1       1.773   7.291  18.768  0.00  0.00    +0.000 N 
ATOM     10  H   UNL     1       1.142   7.053  19.526  0.00  0.00    +0.000 HD
BRANCH   8  11
ATOM     11  C   UNL     1       0.856   9.552  19.006  0.00  0.00    +0.000 A 
ATOM     12  C   UNL     1       1.237   9.963  20.294  0.00  0.00    +0.000 A 
ATOM     13  C   UNL     1       0.449  10.864  21.013  0.00  0.00    +0.000 A 
ATOM     14  C   UNL     1      -0.730  11.359  20.454  0.00  0.00    +0.000 A 
ATOM     15  C   UNL     1      -1.113  10.959  19.175  0.00  0.00    +0.000 A 
ATOM     16  C   UNL     1      -0.322  10.063  18.461  0.00  0.00    +0.000 A 
ATOM     17  F   UNL     1      -0.723   9.713  17.228  0.00  0.00    +0.000 F 
ENDBRANCH   8  11
ENDBRANCH   1   9
BRANCH   5  18
ATOM     18  S   UNL     1       6.379   5.755  17.016  0.00  0.00    +0.000 S 
ATOM     19  O   UNL     1       6.425   6.937  16.187  0.00  0.00    +0.000 OA
ATOM     20  O   UNL     1       7.144   5.670  18.243  0.00  0.00    +0.000 OA
BRANCH  18  21
ATOM     21  N   UNL     1       6.826   4.423  16.099  0.00  0.00    +0.000 N 
ATOM     22  H   UNL     1       6.975   3.544  16.587  0.00  0.00    +0.000 HD
BRANCH  21  23
ATOM     23  C   UNL     1       6.848   4.497  14.691  0.00  0.00    +0.000 A 
ATOM     24  C   UNL     1       7.907   5.132  14.046  0.00  0.00    +0.000 A 
ATOM     25  C   UNL     1       7.962   5.142  12.653  0.00  0.00    +0.000 A 
ATOM     26  C   UNL     1       6.957   4.520  11.909  0.00  0.00    +0.000 A 
ATOM     27  C   UNL     1       5.880   3.889  12.551  0.00  0.00    +0.000 A 
ATOM     28  C   UNL     1       5.823   3.903  13.953  0.00  0.00    +0.000 A 
BRANCH  27  29
ATOM     29  C   UNL     1       4.820   3.163  11.761  0.00  0.00    +0.000 C 
ATOM     30  F   UNL     1       5.201   1.915  11.366  0.00  0.00    +0.000 F 
ATOM     31  F   UNL     1       3.671   2.990  12.470  0.00  0.00    +0.000 F 
ATOM     32  F   UNL     1       4.465   3.821  10.623  0.00  0.00    +0.000 F 
ENDBRANCH  27  29
ENDBRANCH  21  23
ENDBRANCH  18  21
ENDBRANCH   5  18
TORSDOF 6
ENDMDL
MODEL 8
REMARK VINA RESULT:      -9.0      1.573      1.929
REMARK  Name = 
REMARK  6 active torsions:
REMARK  status: ('A' for Active; 'I' for Inactive)
REMARK    1  A    between atoms: C_2  and  C_24
REMARK    2  A    between atoms: N_3  and  C_4
REMARK    3  A    between atoms: C_8  and  S_9
REMARK    4  A    between atoms: S_9  and  N_12
REMARK    5  A    between atoms: N_12  and  C_13
REMARK    6  A    between atoms: C_17  and  C_18
REMARK                            x       y       z     vdW  Elec       q    Type
REMARK                         _______ _______ _______ _____ _____    ______ ____
ROOT
ATOM      1  C   UNL     1       8.162   7.242  18.525  0.00  0.00    +0.000 A 
ATOM      2  C   UNL     1       8.279   6.161  19.403  0.00  0.00    +0.000 A 
ATOM      3  C   UNL     1       7.693   4.929  19.108  0.00  0.00    +0.000 A 
ATOM      4  C   UNL     1       6.978   4.762  17.927  0.00  0.00    +0.000 A 
ATOM      5  C   UNL     1       6.844   5.842  17.048  0.00  0.00    +0.000 A 
ATOM      6  C   UNL     1       7.408   7.089  17.355  0.00  0.00    +0.000 A 
ENDROOT
BRANCH   1   9
ATOM      7  O   UNL     1       7.414   9.866  17.466  0.00  0.00    +0.000 OA
ATOM      8  C   UNL     1       8.374   9.702  18.214  0.00  0.00    +0.000 C 
ATOM      9  N   UNL     1       8.769   8.492  18.762  0.00  0.00    +0.000 N 
ATOM     10  H   UNL     1       9.508   8.509  19.457  0.00  0.00    +0.000 HD
BRANCH   8  11
ATOM     11  C   UNL     1       9.153  10.909  18.610  0.00  0.00    +0.000 A 
ATOM     12  C   UNL     1      10.120  10.771  19.620  0.00  0.00    +0.000 A 
ATOM     13  C   UNL     1      10.879  11.869  20.029  0.00  0.00    +0.000 A 
ATOM     14  C   UNL     1      10.675  13.116  19.437  0.00  0.00    +0.000 A 
ATOM     15  C   UNL     1       9.721  13.260  18.432  0.00  0.00    +0.000 A 
ATOM     16  C   UNL     1       8.969  12.161  18.026  0.00  0.00    +0.000 A 
ATOM     17  F   UNL     1       8.067  12.342  17.046  0.00  0.00    +0.000 F 
ENDBRANCH   8  11
ENDBRANCH   1   9
BRANCH   5  18
ATOM     18  S   UNL     1       5.883   5.652  15.560  0.00  0.00    +0.000 S 
ATOM     19  O   UNL     1       5.164   6.883  15.330  0.00  0.00    +0.000 OA
ATOM     20  O   UNL     1       6.758   5.095  14.548  0.00  0.00    +0.000 OA
BRANCH  18  21
ATOM     21  N   UNL     1       4.788   4.440  15.942  0.00  0.00    +0.000 N 
ATOM     22  H   UNL     1       4.873   3.555  15.450  0.00  0.00    +0.000 HD
BRANCH  21  23
ATOM     23  C   UNL     1       3.882   4.604  17.012  0.00  0.00    +0.000 A 
ATOM     24  C   UNL     1       3.578   5.883  17.473  0.00  0.00    +0.000 A 
ATOM     25  C   UNL     1       2.630   6.047  18.481  0.00  0.00    +0.000 A 
ATOM     26  C   UNL     1       1.991   4.932  19.028  0.00  0.00    +0.000 A 
ATOM     27  C   UNL     1       2.301   3.639  18.578  0.00  0.00    +0.000 A 
ATOM     28  C   UNL     1       3.272   3.484  17.577  0.00  0.00    +0.000 A 
BRANCH  27  29
ATOM     29  C   UNL     1       1.575   2.432  19.118  0.00  0.00    +0.000 C 
ATOM     30  F   UNL     1       1.328   2.504  20.456  0.00  0.00    +0.000 F 
ATOM     31  F   UNL     1       0.362   2.249  18.529  0.00  0.00    +0.000 F 
ATOM     32  F   UNL     1       2.264   1.273  18.927  0.00  0.00    +0.000 F 
ENDBRANCH  27  29
ENDBRANCH  21  23
ENDBRANCH  18  21
ENDBRANCH   5  18
TORSDOF 6
ENDMDL
MODEL 9
REMARK VINA RESULT:      -9.0      5.662      7.557
REMARK  Name = 
REMARK  6 active torsions:
REMARK  status: ('A' for Active; 'I' for Inactive)
REMARK    1  A    between atoms: C_2  and  C_24
REMARK    2  A    between atoms: N_3  and  C_4
REMARK    3  A    between atoms: C_8  and  S_9
REMARK    4  A    between atoms: S_9  and  N_12
REMARK    5  A    between atoms: N_12  and  C_13
REMARK    6  A    between atoms: C_17  and  C_18
REMARK                            x       y       z     vdW  Elec       q    Type
REMARK                         _______ _______ _______ _____ _____    ______ ____
ROOT
ATOM      1  C   UNL     1       2.766   6.411  18.092  0.00  0.00    +0.000 A 
ATOM      2  C   UNL     1       2.055   5.216  17.946  0.00  0.00    +0.000 A 
ATOM      3  C   UNL     1       2.705   4.031  17.596  0.00  0.00    +0.000 A 
ATOM      4  C   UNL     1       4.080   4.026  17.389  0.00  0.00    +0.000 A 
ATOM      5  C   UNL     1       4.799   5.219  17.520  0.00  0.00    +0.000 A 
ATOM      6  C   UNL     1       4.144   6.416  17.843  0.00  0.00    +0.000 A 
ENDROOT
BRANCH   1   9
ATOM      7  O   UNL     1       1.750   7.182  20.726  0.00  0.00    +0.000 OA
ATOM      8  C   UNL     1       1.682   7.920  19.747  0.00  0.00    +0.000 C 
ATOM      9  N   UNL     1       2.159   7.622  18.481  0.00  0.00    +0.000 N 
ATOM     10  H   UNL     1       2.146   8.363  17.787  0.00  0.00    +0.000 HD
BRANCH   8  11
ATOM     11  C   UNL     1       1.084   9.270  19.943  0.00  0.00    +0.000 A 
ATOM     12  C   UNL     1       0.644   9.971  18.807  0.00  0.00    +0.000 A 
ATOM     13  C   UNL     1       0.076  11.240  18.933  0.00  0.00    +0.000 A 
ATOM     14  C   UNL     1      -0.055  11.823  20.194  0.00  0.00    +0.000 A 
ATOM     15  C   UNL     1       0.375  11.133  21.326  0.00  0.00    +0.000 A 
ATOM     16  C   UNL     1       0.939   9.866  21.195  0.00  0.00    +0.000 A 
ATOM     17  F   UNL     1       1.329   9.232  22.313  0.00  0.00    +0.000 F 
ENDBRANCH   8  11
ENDBRANCH   1   9
BRANCH   5  18
ATOM     18  S   UNL     1       6.551   5.232  17.199  0.00  0.00    +0.000 S 
ATOM     19  O   UNL     1       6.879   6.478  16.548  0.00  0.00    +0.000 OA
ATOM     20  O   UNL     1       7.217   4.826  18.421  0.00  0.00    +0.000 OA
BRANCH  18  21
ATOM     21  N   UNL     1       6.769   3.971  16.114  0.00  0.00    +0.000 N 
ATOM     22  H   UNL     1       6.794   3.026  16.487  0.00  0.00    +0.000 HD
BRANCH  21  23
ATOM     23  C   UNL     1       6.767   4.214  14.724  0.00  0.00    +0.000 A 
ATOM     24  C   UNL     1       7.802   4.948  14.147  0.00  0.00    +0.000 A 
ATOM     25  C   UNL     1       7.836   5.126  12.765  0.00  0.00    +0.000 A 
ATOM     26  C   UNL     1       6.834   4.574  11.965  0.00  0.00    +0.000 A 
ATOM     27  C   UNL     1       5.782   3.844  12.538  0.00  0.00    +0.000 A 
ATOM     28  C   UNL     1       5.746   3.688  13.933  0.00  0.00    +0.000 A 
BRANCH  27  29
ATOM     29  C   UNL     1       4.726   3.192  11.680  0.00  0.00    +0.000 C 
ATOM     30  F   UNL     1       3.564   2.945  12.347  0.00  0.00    +0.000 F 
ATOM     31  F   UNL     1       4.381   3.959  10.610  0.00  0.00    +0.000 F 
ATOM     32  F   UNL     1       5.126   1.994  11.171  0.00  0.00    +0.000 F 
ENDBRANCH  27  29
ENDBRANCH  21  23
ENDBRANCH  18  21
ENDBRANCH   5  18
TORSDOF 6
ENDMDL
