MODEL 1
REMARK VINA RESULT:      -7.9      0.000      0.000
REMARK  Name = 
REMARK  5 active torsions:
REMARK  status: ('A' for Active; 'I' for Inactive)
REMARK    1  A    between atoms: C_1  and  C_2
REMARK    2  A    between atoms: C_2  and  C_3
REMARK    3  A    between atoms: C_5  and  N_6
REMARK    4  A    between atoms: C_17  and  O_18
REMARK    5  A    between atoms: O_18  and  C_19
REMARK                            x       y       z     vdW  Elec       q    Type
REMARK                         _______ _______ _______ _____ _____    ______ ____
ROOT
ATOM      1  N   UNL     1       2.377   7.556  18.399  0.00  0.00    +0.000 N 
ATOM      2  C   UNL     1       2.006   7.847  19.688  0.00  0.00    +0.000 C 
ATOM      3  O   UNL     1       2.348   7.214  20.684  0.00  0.00    +0.000 OA
ATOM      4  N   UNL     1       1.176   8.957  19.800  0.00  0.00    +0.000 N 
ATOM      5  C   UNL     1       0.762   9.306  21.149  0.00  0.00    +0.000 C 
ATOM      6  C   UNL     1       0.197  10.697  21.016  0.00  0.00    +0.000 C 
ATOM      7  C   UNL     1      -1.183  10.719  20.327  0.00  0.00    +0.000 C 
ATOM      8  C   UNL     1      -0.883  11.363  18.956  0.00  0.00    +0.000 C 
ATOM      9  C   UNL     1       0.180  12.385  19.330  0.00  0.00    +0.000 C 
ATOM     10  C   UNL     1       1.105  11.341  19.951  0.00  0.00    +0.000 C 
ATOM     11  C   UNL     1       1.219  10.151  18.939  0.00  0.00    +0.000 C 
ATOM     12  C   UNL     1      -0.015  10.472  18.035  0.00  0.00    +0.000 C 
ATOM     13  H   UNL     1       1.744   7.938  17.714  0.00  0.00    +0.000 HD
ENDROOT
BRANCH   1  16
ATOM     14  C   UNL     1       5.445   5.856  17.164  0.00  0.00    +0.000 A 
ATOM     15  C   UNL     1       4.579   6.874  17.548  0.00  0.00    +0.000 A 
ATOM     16  C   UNL     1       3.285   6.544  17.973  0.00  0.00    +0.000 A 
ATOM     17  C   UNL     1       2.874   5.183  17.949  0.00  0.00    +0.000 A 
ATOM     18  C   UNL     1       1.581   4.711  18.302  0.00  0.00    +0.000 A 
ATOM     19  C   UNL     1       1.260   3.358  18.254  0.00  0.00    +0.000 A 
ATOM     20  C   UNL     1       2.224   2.444  17.852  0.00  0.00    +0.000 A 
ATOM     21  C   UNL     1       3.494   2.892  17.500  0.00  0.00    +0.000 A 
ATOM     22  C   UNL     1       3.837   4.235  17.535  0.00  0.00    +0.000 A 
ATOM     23  N   UNL     1       5.081   4.557  17.160  0.00  0.00    +0.000 NA
BRANCH  14  25
ATOM     24  C   UNL     1       7.457   7.296  17.529  0.00  0.00    +0.000 C 
ATOM     25  C   UNL     1       6.838   6.184  16.697  0.00  0.00    +0.000 C 
ENDBRANCH  14  25
ENDBRANCH   1  16
BRANCH  12  26
ATOM     26  O   UNL     1      -0.725   9.438  17.380  0.00  0.00    +0.000 OA
ATOM     27  C   UNL     1      -1.996   9.935  16.913  0.00  0.00    +0.000 C 
ENDBRANCH  12  26
TORSDOF 3
ENDMDL
MODEL 2
REMARK VINA RESULT:      -7.8      1.709      2.690
REMARK  Name = 
REMARK  5 active torsions:
REMARK  status: ('A' for Active; 'I' for Inactive)
REMARK    1  A    between atoms: C_1  and  C_2
REMARK    2  A    between atoms: C_2  and  C_3
REMARK    3  A    between atoms: C_5  and  N_6
REMARK    4  A    between atoms: C_17  and  O_18
REMARK    5  A    between atoms: O_18  and  C_19
REMARK                            x       y       z     vdW  Elec       q    Type
REMARK                         _______ _______ _______ _____ _____    ______ ____
ROOT
ATOM      1  N   UNL     1       2.255   7.157  18.830  0.00  0.00    +0.000 N 
ATOM      2  C   UNL     1       2.493   8.358  18.210  0.00  0.00    +0.000 C 
ATOM      3  O   UNL     1       3.282   8.536  17.285  0.00  0.00    +0.000 OA
ATOM      4  N   UNL     1       1.747   9.415  18.720  0.00  0.00    +0.000 N 
ATOM      5  C   UNL     1       1.962  10.706  18.090  0.00  0.00    +0.000 C 
ATOM      6  C   UNL     1       0.811  11.552  18.574  0.00  0.00    +0.000 C 
ATOM      7  C   UNL     1       0.960  11.977  20.049  0.00  0.00    +0.000 C 
ATOM      8  C   UNL     1      -0.133  11.155  20.766  0.00  0.00    +0.000 C 
ATOM      9  C   UNL     1      -1.242  11.155  19.723  0.00  0.00    +0.000 C 
ATOM     10  C   UNL     1      -0.356  10.548  18.638  0.00  0.00    +0.000 C 
ATOM     11  C   UNL     1       0.383   9.317  19.266  0.00  0.00    +0.000 C 
ATOM     12  C   UNL     1       0.152   9.633  20.779  0.00  0.00    +0.000 C 
ATOM     13  H   UNL     1       1.872   7.264  19.755  0.00  0.00    +0.000 HD
ENDROOT
BRANCH   1  16
ATOM     14  C   UNL     1       4.247   4.514  17.135  0.00  0.00    +0.000 A 
ATOM     15  C   UNL     1       3.725   5.767  17.435  0.00  0.00    +0.000 A 
ATOM     16  C   UNL     1       2.794   5.886  18.476  0.00  0.00    +0.000 A 
ATOM     17  C   UNL     1       2.367   4.716  19.161  0.00  0.00    +0.000 A 
ATOM     18  C   UNL     1       1.396   4.682  20.198  0.00  0.00    +0.000 A 
ATOM     19  C   UNL     1       1.036   3.491  20.821  0.00  0.00    +0.000 A 
ATOM     20  C   UNL     1       1.640   2.306  20.424  0.00  0.00    +0.000 A 
ATOM     21  C   UNL     1       2.591   2.324  19.407  0.00  0.00    +0.000 A 
ATOM     22  C   UNL     1       2.963   3.496  18.768  0.00  0.00    +0.000 A 
ATOM     23  N   UNL     1       3.875   3.396  17.793  0.00  0.00    +0.000 NA
BRANCH  14  25
ATOM     24  C   UNL     1       5.465   5.668  15.280  0.00  0.00    +0.000 C 
ATOM     25  C   UNL     1       5.245   4.357  16.018  0.00  0.00    +0.000 C 
ENDBRANCH  14  25
ENDBRANCH   1  16
BRANCH  12  26
ATOM     26  O   UNL     1       1.087   9.221  21.759  0.00  0.00    +0.000 OA
ATOM     27  C   UNL     1       0.524   9.387  23.076  0.00  0.00    +0.000 C 
ENDBRANCH  12  26
TORSDOF 3
ENDMDL
MODEL 3
REMARK VINA RESULT:      -7.7      1.543      3.118
REMARK  Name = 
REMARK  5 active torsions:
REMARK  status: ('A' for Active; 'I' for Inactive)
REMARK    1  A    between atoms: C_1  and  C_2
REMARK    2  A    between atoms: C_2  and  C_3
REMARK    3  A    between atoms: C_5  and  N_6
REMARK    4  A    between atoms: C_17  and  O_18
REMARK    5  A    between atoms: O_18  and  C_19
REMARK                            x       y       z     vdW  Elec       q    Type
REMARK                         _______ _______ _______ _____ _____    ______ ____
ROOT
ATOM      1  N   UNL     1       1.697   7.686  19.512  0.00  0.00    +0.000 N 
ATOM      2  C   UNL     1       1.397   8.435  20.622  0.00  0.00    +0.000 C 
ATOM      3  O   UNL     1       1.636   8.111  21.783  0.00  0.00    +0.000 OA
ATOM      4  N   UNL     1       0.774   9.644  20.336  0.00  0.00    +0.000 N 
ATOM      5  C   UNL     1       0.442  10.475  21.481  0.00  0.00    +0.000 C 
ATOM      6  C   UNL     1       0.126  11.823  20.883  0.00  0.00    +0.000 C 
ATOM      7  C   UNL     1      -1.237  11.852  20.163  0.00  0.00    +0.000 C 
ATOM      8  C   UNL     1      -0.847  11.958  18.673  0.00  0.00    +0.000 C 
ATOM      9  C   UNL     1       0.382  12.852  18.747  0.00  0.00    +0.000 C 
ATOM     10  C   UNL     1       1.119  11.926  19.710  0.00  0.00    +0.000 C 
ATOM     11  C   UNL     1       1.013  10.471  19.140  0.00  0.00    +0.000 C 
ATOM     12  C   UNL     1      -0.157  10.684  18.126  0.00  0.00    +0.000 C 
ATOM     13  H   UNL     1       1.132   7.926  18.714  0.00  0.00    +0.000 HD
ENDROOT
BRANCH   1  16
ATOM     14  C   UNL     1       2.857   4.251  20.339  0.00  0.00    +0.000 A 
ATOM     15  C   UNL     1       2.159   5.450  20.422  0.00  0.00    +0.000 A 
ATOM     16  C   UNL     1       2.411   6.453  19.475  0.00  0.00    +0.000 A 
ATOM     17  C   UNL     1       3.411   6.238  18.488  0.00  0.00    +0.000 A 
ATOM     18  C   UNL     1       3.804   7.181  17.501  0.00  0.00    +0.000 A 
ATOM     19  C   UNL     1       4.793   6.890  16.566  0.00  0.00    +0.000 A 
ATOM     20  C   UNL     1       5.411   5.647  16.595  0.00  0.00    +0.000 A 
ATOM     21  C   UNL     1       5.037   4.713  17.558  0.00  0.00    +0.000 A 
ATOM     22  C   UNL     1       4.059   4.981  18.503  0.00  0.00    +0.000 A 
ATOM     23  N   UNL     1       3.790   4.018  19.393  0.00  0.00    +0.000 NA
BRANCH  14  25
ATOM     24  C   UNL     1       1.143   2.762  21.388  0.00  0.00    +0.000 C 
ATOM     25  C   UNL     1       2.610   3.160  21.347  0.00  0.00    +0.000 C 
ENDBRANCH  14  25
ENDBRANCH   1  16
BRANCH  12  26
ATOM     26  O   UNL     1      -1.044   9.629  17.805  0.00  0.00    +0.000 OA
ATOM     27  C   UNL     1      -2.084  10.110  16.930  0.00  0.00    +0.000 C 
ENDBRANCH  12  26
TORSDOF 3
ENDMDL
MODEL 4
REMARK VINA RESULT:      -7.6      1.724      7.350
REMARK  Name = 
REMARK  5 active torsions:
REMARK  status: ('A' for Active; 'I' for Inactive)
REMARK    1  A    between atoms: C_1  and  C_2
REMARK    2  A    between atoms: C_2  and  C_3
REMARK    3  A    between atoms: C_5  and  N_6
REMARK    4  A    between atoms: C_17  and  O_18
REMARK    5  A    between atoms: O_18  and  C_19
REMARK                            x       y       z     vdW  Elec       q    Type
REMARK                         _______ _______ _______ _____ _____    ______ ____
ROOT
ATOM      1  N   UNL     1       1.397   8.140  18.903  0.00  0.00    +0.000 N 
ATOM      2  C   UNL     1       2.465   8.179  18.043  0.00  0.00    +0.000 C 
ATOM      3  O   UNL     1       2.798   9.152  17.369  0.00  0.00    +0.000 OA
ATOM      4  N   UNL     1       3.182   6.990  17.978  0.00  0.00    +0.000 N 
ATOM      5  C   UNL     1       4.327   6.987  17.083  0.00  0.00    +0.000 C 
ATOM      6  C   UNL     1       5.098   5.751  17.471  0.00  0.00    +0.000 C 
ATOM      7  C   UNL     1       4.420   4.450  16.996  0.00  0.00    +0.000 C 
ATOM      8  C   UNL     1       3.919   3.813  18.311  0.00  0.00    +0.000 C 
ATOM      9  C   UNL     1       5.038   4.188  19.272  0.00  0.00    +0.000 C 
ATOM     10  C   UNL     1       4.905   5.684  18.997  0.00  0.00    +0.000 C 
ATOM     11  C   UNL     1       3.385   6.049  19.092  0.00  0.00    +0.000 C 
ATOM     12  C   UNL     1       2.776   4.613  18.985  0.00  0.00    +0.000 C 
ATOM     13  H   UNL     1       1.074   7.203  19.083  0.00  0.00    +0.000 HD
ENDROOT
BRANCH   1  16
ATOM     14  C   UNL     1      -0.909  11.045  18.634  0.00  0.00    +0.000 A 
ATOM     15  C   UNL     1      -0.052  10.017  18.257  0.00  0.00    +0.000 A 
ATOM     16  C   UNL     1       0.533   9.219  19.250  0.00  0.00    +0.000 A 
ATOM     17  C   UNL     1       0.276   9.515  20.617  0.00  0.00    +0.000 A 
ATOM     18  C   UNL     1       0.838   8.824  21.724  0.00  0.00    +0.000 A 
ATOM     19  C   UNL     1       0.532   9.176  23.035  0.00  0.00    +0.000 A 
ATOM     20  C   UNL     1      -0.345  10.226  23.270  0.00  0.00    +0.000 A 
ATOM     21  C   UNL     1      -0.901  10.913  22.195  0.00  0.00    +0.000 A 
ATOM     22  C   UNL     1      -0.608  10.586  20.881  0.00  0.00    +0.000 A 
ATOM     23  N   UNL     1      -1.185  11.323  19.924  0.00  0.00    +0.000 NA
BRANCH  14  25
ATOM     24  C   UNL     1      -2.520  11.138  16.723  0.00  0.00    +0.000 C 
ATOM     25  C   UNL     1      -1.545  11.921  17.587  0.00  0.00    +0.000 C 
ENDBRANCH  14  25
ENDBRANCH   1  16
BRANCH  12  26
ATOM     26  O   UNL     1       1.499   4.405  18.412  0.00  0.00    +0.000 OA
ATOM     27  C   UNL     1       1.119   3.021  18.548  0.00  0.00    +0.000 C 
ENDBRANCH  12  26
TORSDOF 3
ENDMDL
MODEL 5
REMARK VINA RESULT:      -7.6      1.978      7.189
REMARK  Name = 
REMARK  5 active torsions:
REMARK  status: ('A' for Active; 'I' for Inactive)
REMARK    1  A    between atoms: C_1  and  C_2
REMARK    2  A    between atoms: C_2  and  C_3
REMARK    3  A    between atoms: C_5  and  N_6
REMARK    4  A    between atoms: C_17  and  O_18
REMARK    5  A    between atoms: O_18  and  C_19
REMARK                            x       y       z     vdW  Elec       q    Type
REMARK                         _______ _______ _______ _____ _____    ______ ____
ROOT
ATOM      1  N   UNL     1       1.830   8.350  19.319  0.00  0.00    +0.000 N 
ATOM      2  C   UNL     1       2.557   8.019  18.203  0.00  0.00    +0.000 C 
ATOM      3  O   UNL     1       2.776   8.766  17.252  0.00  0.00    +0.000 OA
ATOM      4  N   UNL     1       3.054   6.721  18.218  0.00  0.00    +0.000 N 
ATOM      5  C   UNL     1       3.837   6.328  17.058  0.00  0.00    +0.000 C 
ATOM      6  C   UNL     1       4.526   5.058  17.488  0.00  0.00    +0.000 C 
ATOM      7  C   UNL     1       3.569   3.850  17.552  0.00  0.00    +0.000 C 
ATOM      8  C   UNL     1       3.443   3.579  19.067  0.00  0.00    +0.000 C 
ATOM      9  C   UNL     1       4.852   3.897  19.546  0.00  0.00    +0.000 C 
ATOM     10  C   UNL     1       4.832   5.313  18.976  0.00  0.00    +0.000 C 
ATOM     11  C   UNL     1       3.484   5.980  19.416  0.00  0.00    +0.000 C 
ATOM     12  C   UNL     1       2.694   4.697  19.832  0.00  0.00    +0.000 C 
ATOM     13  H   UNL     1       1.465   7.544  19.801  0.00  0.00    +0.000 HD
ENDROOT
BRANCH   1  16
ATOM     14  C   UNL     1       0.869  11.936  19.107  0.00  0.00    +0.000 A 
ATOM     15  C   UNL     1       1.450  10.716  18.777  0.00  0.00    +0.000 A 
ATOM     16  C   UNL     1       1.272   9.622  19.636  0.00  0.00    +0.000 A 
ATOM     17  C   UNL     1       0.549   9.802  20.847  0.00  0.00    +0.000 A 
ATOM     18  C   UNL     1       0.335   8.800  21.830  0.00  0.00    +0.000 A 
ATOM     19  C   UNL     1      -0.389   9.058  22.990  0.00  0.00    +0.000 A 
ATOM     20  C   UNL     1      -0.918  10.325  23.193  0.00  0.00    +0.000 A 
ATOM     21  C   UNL     1      -0.714  11.318  22.239  0.00  0.00    +0.000 A 
ATOM     22  C   UNL     1       0.007  11.088  21.079  0.00  0.00    +0.000 A 
ATOM     23  N   UNL     1       0.157  12.118  20.238  0.00  0.00    +0.000 NA
BRANCH  14  25
ATOM     24  C   UNL     1       2.488  13.621  18.216  0.00  0.00    +0.000 C 
ATOM     25  C   UNL     1       1.050  13.128  18.205  0.00  0.00    +0.000 C 
ENDBRANCH  14  25
ENDBRANCH   1  16
BRANCH  12  26
ATOM     26  O   UNL     1       1.285   4.642  19.719  0.00  0.00    +0.000 OA
ATOM     27  C   UNL     1       0.814   3.328  20.079  0.00  0.00    +0.000 C 
ENDBRANCH  12  26
TORSDOF 3
ENDMDL
MODEL 6
REMARK VINA RESULT:      -7.4      0.731      3.063
REMARK  Name = 
REMARK  5 active torsions:
REMARK  status: ('A' for Active; 'I' for Inactive)
REMARK    1  A    between atoms: C_1  and  C_2
REMARK    2  A    between atoms: C_2  and  C_3
REMARK    3  A    between atoms: C_5  and  N_6
REMARK    4  A    between atoms: C_17  and  O_18
REMARK    5  A    between atoms: O_18  and  C_19
REMARK                            x       y       z     vdW  Elec       q    Type
REMARK                         _______ _______ _______ _____ _____    ______ ____
ROOT
ATOM      1  N   UNL     1       1.977   7.196  18.448  0.00  0.00    +0.000 N 
ATOM      2  C   UNL     1       1.821   7.731  19.702  0.00  0.00    +0.000 C 
ATOM      3  O   UNL     1       2.189   7.204  20.749  0.00  0.00    +0.000 OA
ATOM      4  N   UNL     1       1.187   8.968  19.713  0.00  0.00    +0.000 N 
ATOM      5  C   UNL     1       1.004   9.576  21.020  0.00  0.00    +0.000 C 
ATOM      6  C   UNL     1       0.640  11.008  20.716  0.00  0.00    +0.000 C 
ATOM      7  C   UNL     1      -0.798  11.158  20.179  0.00  0.00    +0.000 C 
ATOM      8  C   UNL     1      -0.584  11.533  18.696  0.00  0.00    +0.000 C 
ATOM      9  C   UNL     1       0.659  12.407  18.784  0.00  0.00    +0.000 C 
ATOM     10  C   UNL     1       1.490  11.327  19.471  0.00  0.00    +0.000 C 
ATOM     11  C   UNL     1       1.296   9.998  18.666  0.00  0.00    +0.000 C 
ATOM     12  C   UNL     1       0.018  10.383  17.852  0.00  0.00    +0.000 C 
ATOM     13  H   UNL     1       1.325   7.572  17.778  0.00  0.00    +0.000 HD
ENDROOT
BRANCH   1  16
ATOM     14  C   UNL     1       2.724   3.600  17.864  0.00  0.00    +0.000 A 
ATOM     15  C   UNL     1       2.031   4.748  18.231  0.00  0.00    +0.000 A 
ATOM     16  C   UNL     1       2.662   5.994  18.106  0.00  0.00    +0.000 A 
ATOM     17  C   UNL     1       4.011   6.045  17.659  0.00  0.00    +0.000 A 
ATOM     18  C   UNL     1       4.788   7.228  17.533  0.00  0.00    +0.000 A 
ATOM     19  C   UNL     1       6.104   7.193  17.084  0.00  0.00    +0.000 A 
ATOM     20  C   UNL     1       6.675   5.972  16.747  0.00  0.00    +0.000 A 
ATOM     21  C   UNL     1       5.927   4.805  16.868  0.00  0.00    +0.000 A 
ATOM     22  C   UNL     1       4.616   4.814  17.318  0.00  0.00    +0.000 A 
ATOM     23  N   UNL     1       3.994   3.632  17.412  0.00  0.00    +0.000 NA
BRANCH  14  25
ATOM     24  C   UNL     1       0.783   2.328  18.797  0.00  0.00    +0.000 C 
ATOM     25  C   UNL     1       2.071   2.249  17.993  0.00  0.00    +0.000 C 
ENDBRANCH  14  25
ENDBRANCH   1  16
BRANCH  12  26
ATOM     26  O   UNL     1      -0.916   9.397  17.454  0.00  0.00    +0.000 OA
ATOM     27  C   UNL     1      -2.088  10.026  16.899  0.00  0.00    +0.000 C 
ENDBRANCH  12  26
TORSDOF 3
ENDMDL
MODEL 7
REMARK VINA RESULT:      -7.3      1.728      7.246
REMARK  Name = 
REMARK  5 active torsions:
REMARK  status: ('A' for Active; 'I' for Inactive)
REMARK    1  A    between atoms: C_1  and  C_2
REMARK    2  A    between atoms: C_2  and  C_3
REMARK    3  A    between atoms: C_5  and  N_6
REMARK    4  A    between atoms: C_17  and  O_18
REMARK    5  A    between atoms: O_18  and  C_19
REMARK                            x       y       z     vdW  Elec       q    Type
REMARK                         _______ _______ _______ _____ _____    ______ ____
ROOT
ATOM      1  N   UNL     1       1.520   8.930  19.179  0.00  0.00    +0.000 N 
ATOM      2  C   UNL     1       1.582   7.934  20.122  0.00  0.00    +0.000 C 
ATOM      3  O   UNL     1       1.117   8.003  21.257  0.00  0.00    +0.000 OA
ATOM      4  N   UNL     1       2.238   6.787  19.690  0.00  0.00    +0.000 N 
ATOM      5  C   UNL     1       2.323   5.703  20.654  0.00  0.00    +0.000 C 
ATOM      6  C   UNL     1       2.739   4.508  19.834  0.00  0.00    +0.000 C 
ATOM      7  C   UNL     1       4.220   4.564  19.406  0.00  0.00    +0.000 C 
ATOM      8  C   UNL     1       4.138   4.818  17.885  0.00  0.00    +0.000 C 
ATOM      9  C   UNL     1       2.910   4.001  17.510  0.00  0.00    +0.000 C 
ATOM     10  C   UNL     1       2.003   4.728  18.499  0.00  0.00    +0.000 C 
ATOM     11  C   UNL     1       2.237   6.265  18.313  0.00  0.00    +0.000 C 
ATOM     12  C   UNL     1       3.586   6.219  17.524  0.00  0.00    +0.000 C 
ATOM     13  H   UNL     1       2.234   8.843  18.472  0.00  0.00    +0.000 HD
ENDROOT
BRANCH   1  16
ATOM     14  C   UNL     1       0.616  12.374  20.248  0.00  0.00    +0.000 A 
ATOM     15  C   UNL     1       1.289  11.159  20.186  0.00  0.00    +0.000 A 
ATOM     16  C   UNL     1       0.842  10.178  19.290  0.00  0.00    +0.000 A 
ATOM     17  C   UNL     1      -0.318  10.430  18.508  0.00  0.00    +0.000 A 
ATOM     18  C   UNL     1      -0.910   9.512  17.600  0.00  0.00    +0.000 A 
ATOM     19  C   UNL     1      -2.048   9.839  16.868  0.00  0.00    +0.000 A 
ATOM     20  C   UNL     1      -2.619  11.094  17.026  0.00  0.00    +0.000 A 
ATOM     21  C   UNL     1      -2.052  12.004  17.915  0.00  0.00    +0.000 A 
ATOM     22  C   UNL     1      -0.922  11.700  18.658  0.00  0.00    +0.000 A 
ATOM     23  N   UNL     1      -0.470  12.642  19.495  0.00  0.00    +0.000 NA
BRANCH  14  25
ATOM     24  C   UNL     1      -0.052  13.872  22.137  0.00  0.00    +0.000 C 
ATOM     25  C   UNL     1       1.071  13.443  21.206  0.00  0.00    +0.000 C 
ENDBRANCH  14  25
ENDBRANCH   1  16
BRANCH  12  26
ATOM     26  O   UNL     1       4.530   7.267  17.635  0.00  0.00    +0.000 OA
ATOM     27  C   UNL     1       5.785   6.863  17.051  0.00  0.00    +0.000 C 
ENDBRANCH  12  26
TORSDOF 3
ENDMDL
MODEL 8
REMARK VINA RESULT:      -7.3      1.198      1.383
REMARK  Name = 
REMARK  5 active torsions:
REMARK  status: ('A' for Active; 'I' for Inactive)
REMARK    1  A    between atoms: C_1  and  C_2
REMARK    2  A    between atoms: C_2  and  C_3
REMARK    3  A    between atoms: C_5  and  N_6
REMARK    4  A    between atoms: C_17  and  O_18
REMARK    5  A    between atoms: O_18  and  C_19
REMARK                            x       y       z     vdW  Elec       q    Type
REMARK                         _______ _______ _______ _____ _____    ______ ____
ROOT
ATOM      1  N   UNL     1       1.838   7.916  18.838  0.00  0.00    +0.000 N 
ATOM      2  C   UNL     1       1.575   8.512  20.047  0.00  0.00    +0.000 C 
ATOM      3  O   UNL     1       1.987   8.119  21.136  0.00  0.00    +0.000 OA
ATOM      4  N   UNL     1       0.773   9.643  19.955  0.00  0.00    +0.000 N 
ATOM      5  C   UNL     1       0.472  10.311  21.210  0.00  0.00    +0.000 C 
ATOM      6  C   UNL     1      -0.082  11.650  20.795  0.00  0.00    +0.000 C 
ATOM      7  C   UNL     1      -1.513  11.555  20.226  0.00  0.00    +0.000 C 
ATOM      8  C   UNL     1      -1.315  11.850  18.724  0.00  0.00    +0.000 C 
ATOM      9  C   UNL     1      -0.211  12.896  18.765  0.00  0.00    +0.000 C 
ATOM     10  C   UNL     1       0.746  11.998  19.544  0.00  0.00    +0.000 C 
ATOM     11  C   UNL     1       0.763  10.600  18.836  0.00  0.00    +0.000 C 
ATOM     12  C   UNL     1      -0.535  10.740  17.976  0.00  0.00    +0.000 C 
ATOM     13  H   UNL     1       1.157   8.146  18.133  0.00  0.00    +0.000 HD
ENDROOT
BRANCH   1  16
ATOM     14  C   UNL     1       4.641   5.827  17.570  0.00  0.00    +0.000 A 
ATOM     15  C   UNL     1       3.814   6.928  17.762  0.00  0.00    +0.000 A 
ATOM     16  C   UNL     1       2.695   6.803  18.597  0.00  0.00    +0.000 A 
ATOM     17  C   UNL     1       2.405   5.540  19.183  0.00  0.00    +0.000 A 
ATOM     18  C   UNL     1       1.282   5.257  20.005  0.00  0.00    +0.000 A 
ATOM     19  C   UNL     1       1.072   3.991  20.543  0.00  0.00    +0.000 A 
ATOM     20  C   UNL     1       1.981   2.978  20.272  0.00  0.00    +0.000 A 
ATOM     21  C   UNL     1       3.085   3.240  19.465  0.00  0.00    +0.000 A 
ATOM     22  C   UNL     1       3.314   4.491  18.914  0.00  0.00    +0.000 A 
ATOM     23  N   UNL     1       4.397   4.628  18.139  0.00  0.00    +0.000 NA
BRANCH  14  25
ATOM     24  C   UNL     1       5.512   5.538  15.244  0.00  0.00    +0.000 C 
ATOM     25  C   UNL     1       5.846   5.932  16.674  0.00  0.00    +0.000 C 
ENDBRANCH  14  25
ENDBRANCH   1  16
BRANCH  12  26
ATOM     26  O   UNL     1      -1.310   9.605  17.639  0.00  0.00    +0.000 OA
ATOM     27  C   UNL     1      -2.445  10.003  16.843  0.00  0.00    +0.000 C 
ENDBRANCH  12  26
TORSDOF 3
ENDMDL
MODEL 9
REMARK VINA RESULT:      -7.2      1.727      2.779
REMARK  Name = 
REMARK  5 active torsions:
REMARK  status: ('A' for Active; 'I' for Inactive)
REMARK    1  A    between atoms: C_1  and  C_2
REMARK    2  A    between atoms: C_2  and  C_3
REMARK    3  A    between atoms: C_5  and  N_6
REMARK    4  A    between atoms: C_17  and  O_18
REMARK    5  A    between atoms: O_18  and  C_19
REMARK                            x       y       z     vdW  Elec       q    Type
REMARK                         _______ _______ _______ _____ _____    ______ ____
ROOT
ATOM      1  N   UNL     1       1.949   8.417  19.047  0.00  0.00    +0.000 N 
ATOM      2  C   UNL     1       1.905   9.641  18.429  0.00  0.00    +0.000 C 
ATOM      3  O   UNL     1       2.548   9.956  17.430  0.00  0.00    +0.000 OA
ATOM      4  N   UNL     1       1.044  10.549  19.036  0.00  0.00    +0.000 N 
ATOM      5  C   UNL     1       0.961  11.859  18.412  0.00  0.00    +0.000 C 
ATOM      6  C   UNL     1      -0.262  12.488  19.030  0.00  0.00    +0.000 C 
ATOM      7  C   UNL     1      -0.034  12.931  20.490  0.00  0.00    +0.000 C 
ATOM      8  C   UNL     1      -0.883  11.929  21.300  0.00  0.00    +0.000 C 
ATOM      9  C   UNL     1      -2.079  11.735  20.380  0.00  0.00    +0.000 C 
ATOM     10  C   UNL     1      -1.221  11.294  19.197  0.00  0.00    +0.000 C 
ATOM     11  C   UNL     1      -0.216  10.212  19.719  0.00  0.00    +0.000 C 
ATOM     12  C   UNL     1      -0.336  10.481  21.254  0.00  0.00    +0.000 C 
ATOM     13  H   UNL     1       1.653   8.453  20.010  0.00  0.00    +0.000 HD
ENDROOT
BRANCH   1  16
ATOM     14  C   UNL     1       4.247   6.188  17.156  0.00  0.00    +0.000 A 
ATOM     15  C   UNL     1       3.552   7.331  17.534  0.00  0.00    +0.000 A 
ATOM     16  C   UNL     1       2.661   7.261  18.614  0.00  0.00    +0.000 A 
ATOM     17  C   UNL     1       2.451   6.011  19.260  0.00  0.00    +0.000 A 
ATOM     18  C   UNL     1       1.545   5.784  20.329  0.00  0.00    +0.000 A 
ATOM     19  C   UNL     1       1.401   4.527  20.910  0.00  0.00    +0.000 A 
ATOM     20  C   UNL     1       2.163   3.468  20.435  0.00  0.00    +0.000 A 
ATOM     21  C   UNL     1       3.053   3.676  19.385  0.00  0.00    +0.000 A 
ATOM     22  C   UNL     1       3.210   4.916  18.787  0.00  0.00    +0.000 A 
ATOM     23  N   UNL     1       4.081   5.000  17.774  0.00  0.00    +0.000 NA
BRANCH  14  25
ATOM     24  C   UNL     1       6.609   5.829  16.417  0.00  0.00    +0.000 C 
ATOM     25  C   UNL     1       5.205   6.234  15.996  0.00  0.00    +0.000 C 
ENDBRANCH  14  25
ENDBRANCH   1  16
BRANCH  12  26
ATOM     26  O   UNL     1       0.755  10.239  22.123  0.00  0.00    +0.000 OA
ATOM     27  C   UNL     1       0.354   9.343  23.178  0.00  0.00    +0.000 C 
ENDBRANCH  12  26
TORSDOF 3
ENDMDL
