MODEL 1
REMARK VINA RESULT:      -9.1      0.000      0.000
REMARK  Name = 
REMARK  5 active torsions:
REMARK  status: ('A' for Active; 'I' for Inactive)
REMARK    1  A    between atoms: C_1  and  C_2
REMARK    2  A    between atoms: C_2  and  C_3
REMARK    3  A    between atoms: C_8  and  C_10
REMARK    4  A    between atoms: C_14  and  S_15
REMARK    5  A    between atoms: S_15  and  N_18
REMARK                            x       y       z     vdW  Elec       q    Type
REMARK                         _______ _______ _______ _____ _____    ______ ____
ROOT
ATOM      1  C   UNL     1       7.982   7.772  18.167  0.00  0.00    +0.000 A 
ATOM      2  C   UNL     1       8.442   6.930  19.186  0.00  0.00    +0.000 A 
ATOM      3  C   UNL     1       8.045   5.593  19.244  0.00  0.00    +0.000 A 
ATOM      4  C   UNL     1       7.165   5.093  18.285  0.00  0.00    +0.000 A 
ATOM      5  C   UNL     1       6.688   5.936  17.272  0.00  0.00    +0.000 A 
ATOM      6  C   UNL     1       7.115   7.263  17.194  0.00  0.00    +0.000 A 
ENDROOT
BRANCH   1  12
ATOM      7  C   UNL     1      10.707  12.991  19.178  0.00  0.00    +0.000 A 
ATOM      8  N   UNL     1      11.253  12.307  20.163  0.00  0.00    +0.000 NA
ATOM      9  N   UNL     1      10.701  11.047  20.282  0.00  0.00    +0.000 NA
ATOM     10  C   UNL     1       9.796  10.815  19.366  0.00  0.00    +0.000 A 
ATOM     11  N   UNL     1       9.168   9.599  19.238  0.00  0.00    +0.000 N 
ATOM     12  C   UNL     1       8.322   9.223  18.220  0.00  0.00    +0.000 C 
ATOM     13  O   UNL     1       7.843   9.942  17.352  0.00  0.00    +0.000 OA
ATOM     14  S   UNL     1       9.494  12.132  18.324  0.00  0.00    +0.000 S 
ATOM     15  H   UNL     1       9.428   8.952  19.967  0.00  0.00    +0.000 HD
BRANCH   7  17
ATOM     16  C   UNL     1      11.229  14.543  17.297  0.00  0.00    +0.000 C 
ATOM     17  C   UNL     1      11.067  14.388  18.801  0.00  0.00    +0.000 C 
ENDBRANCH   7  17
ENDBRANCH   1  12
BRANCH   5  18
ATOM     18  S   UNL     1       5.458   5.317  16.155  0.00  0.00    +0.000 S 
ATOM     19  O   UNL     1       5.334   6.314  15.105  0.00  0.00    +0.000 OA
ATOM     20  O   UNL     1       5.831   3.951  15.846  0.00  0.00    +0.000 OA
BRANCH  18  21
ATOM     21  N   UNL     1       4.019   5.269  17.001  0.00  0.00    +0.000 N 
ATOM     22  C   UNL     1       3.580   6.396  17.869  0.00  0.00    +0.000 C 
ATOM     23  C   UNL     1       2.140   5.999  18.209  0.00  0.00    +0.000 C 
ATOM     24  C   UNL     1       2.375   4.529  18.400  0.00  0.00    +0.000 A 
ATOM     25  C   UNL     1       1.831   3.689  19.350  0.00  0.00    +0.000 A 
ATOM     26  C   UNL     1       2.304   2.378  19.393  0.00  0.00    +0.000 A 
ATOM     27  C   UNL     1       3.227   1.912  18.435  0.00  0.00    +0.000 A 
ATOM     28  C   UNL     1       3.772   2.772  17.477  0.00  0.00    +0.000 A 
ATOM     29  C   UNL     1       3.401   4.099  17.542  0.00  0.00    +0.000 A 
ENDBRANCH  18  21
ENDBRANCH   5  18
TORSDOF 4
ENDMDL
MODEL 2
REMARK VINA RESULT:      -8.7      0.953      1.780
REMARK  Name = 
REMARK  5 active torsions:
REMARK  status: ('A' for Active; 'I' for Inactive)
REMARK    1  A    between atoms: C_1  and  C_2
REMARK    2  A    between atoms: C_2  and  C_3
REMARK    3  A    between atoms: C_8  and  C_10
REMARK    4  A    between atoms: C_14  and  S_15
REMARK    5  A    between atoms: S_15  and  N_18
REMARK                            x       y       z     vdW  Elec       q    Type
REMARK                         _______ _______ _______ _____ _____    ______ ____
ROOT
ATOM      1  C   UNL     1       7.784   7.639  18.188  0.00  0.00    +0.000 A 
ATOM      2  C   UNL     1       8.427   6.788  19.095  0.00  0.00    +0.000 A 
ATOM      3  C   UNL     1       7.974   5.483  19.295  0.00  0.00    +0.000 A 
ATOM      4  C   UNL     1       6.857   5.025  18.598  0.00  0.00    +0.000 A 
ATOM      5  C   UNL     1       6.198   5.879  17.702  0.00  0.00    +0.000 A 
ATOM      6  C   UNL     1       6.675   7.172  17.474  0.00  0.00    +0.000 A 
ENDROOT
BRANCH   1  12
ATOM      7  C   UNL     1      10.730  12.790  18.879  0.00  0.00    +0.000 A 
ATOM      8  N   UNL     1      11.111  12.210  19.999  0.00  0.00    +0.000 NA
ATOM      9  N   UNL     1      10.463  11.008  20.202  0.00  0.00    +0.000 NA
ATOM     10  C   UNL     1       9.655  10.709  19.219  0.00  0.00    +0.000 A 
ATOM     11  N   UNL     1       8.963   9.523  19.164  0.00  0.00    +0.000 N 
ATOM     12  C   UNL     1       8.214   9.065  18.104  0.00  0.00    +0.000 C 
ATOM     13  O   UNL     1       7.889   9.690  17.103  0.00  0.00    +0.000 OA
ATOM     14  S   UNL     1       9.565  11.895  17.994  0.00  0.00    +0.000 S 
ATOM     15  H   UNL     1       9.093   8.963  19.994  0.00  0.00    +0.000 HD
BRANCH   7  17
ATOM     16  C   UNL     1      11.484  14.080  16.882  0.00  0.00    +0.000 C 
ATOM     17  C   UNL     1      11.226  14.105  18.380  0.00  0.00    +0.000 C 
ENDBRANCH   7  17
ENDBRANCH   1  12
BRANCH   5  18
ATOM     18  S   UNL     1       4.696   5.325  16.943  0.00  0.00    +0.000 S 
ATOM     19  O   UNL     1       3.764   6.435  17.042  0.00  0.00    +0.000 OA
ATOM     20  O   UNL     1       5.064   4.774  15.653  0.00  0.00    +0.000 OA
BRANCH  18  21
ATOM     21  N   UNL     1       4.115   4.071  17.880  0.00  0.00    +0.000 N 
ATOM     22  C   UNL     1       3.758   2.751  17.291  0.00  0.00    +0.000 C 
ATOM     23  C   UNL     1       3.529   1.892  18.539  0.00  0.00    +0.000 C 
ATOM     24  C   UNL     1       2.820   2.923  19.367  0.00  0.00    +0.000 A 
ATOM     25  C   UNL     1       1.738   2.754  20.207  0.00  0.00    +0.000 A 
ATOM     26  C   UNL     1       1.182   3.899  20.776  0.00  0.00    +0.000 A 
ATOM     27  C   UNL     1       1.773   5.163  20.576  0.00  0.00    +0.000 A 
ATOM     28  C   UNL     1       2.869   5.323  19.723  0.00  0.00    +0.000 A 
ATOM     29  C   UNL     1       3.313   4.200  19.055  0.00  0.00    +0.000 A 
ENDBRANCH  18  21
ENDBRANCH   5  18
TORSDOF 4
ENDMDL
MODEL 3
REMARK VINA RESULT:      -8.5      6.573     10.014
REMARK  Name = 
REMARK  5 active torsions:
REMARK  status: ('A' for Active; 'I' for Inactive)
REMARK    1  A    between atoms: C_1  and  C_2
REMARK    2  A    between atoms: C_2  and  C_3
REMARK    3  A    between atoms: C_8  and  C_10
REMARK    4  A    between atoms: C_14  and  S_15
REMARK    5  A    between atoms: S_15  and  N_18
REMARK                            x       y       z     vdW  Elec       q    Type
REMARK                         _______ _______ _______ _____ _____    ______ ____
ROOT
ATOM      1  C   UNL     1       0.754   8.978  21.075  0.00  0.00    +0.000 A 
ATOM      2  C   UNL     1       0.501   8.749  22.432  0.00  0.00    +0.000 A 
ATOM      3  C   UNL     1      -0.178   9.694  23.203  0.00  0.00    +0.000 A 
ATOM      4  C   UNL     1      -0.594  10.890  22.620  0.00  0.00    +0.000 A 
ATOM      5  C   UNL     1      -0.328  11.133  21.265  0.00  0.00    +0.000 A 
ATOM      6  C   UNL     1       0.318  10.170  20.486  0.00  0.00    +0.000 A 
ENDROOT
BRANCH   1  12
ATOM      7  C   UNL     1       3.237   3.971  18.963  0.00  0.00    +0.000 A 
ATOM      8  N   UNL     1       2.828   3.498  20.123  0.00  0.00    +0.000 NA
ATOM      9  N   UNL     1       2.313   4.491  20.932  0.00  0.00    +0.000 NA
ATOM     10  C   UNL     1       2.313   5.658  20.343  0.00  0.00    +0.000 A 
ATOM     11  N   UNL     1       1.774   6.781  20.925  0.00  0.00    +0.000 N 
ATOM     12  C   UNL     1       1.598   8.006  20.322  0.00  0.00    +0.000 C 
ATOM     13  O   UNL     1       2.037   8.367  19.238  0.00  0.00    +0.000 OA
ATOM     14  S   UNL     1       3.001   5.660  18.780  0.00  0.00    +0.000 S 
ATOM     15  H   UNL     1       1.458   6.612  21.868  0.00  0.00    +0.000 HD
BRANCH   7  17
ATOM     16  C   UNL     1       4.312   4.031  16.714  0.00  0.00    +0.000 C 
ATOM     17  C   UNL     1       3.858   3.162  17.876  0.00  0.00    +0.000 C 
ENDBRANCH   7  17
ENDBRANCH   1  12
BRANCH   5  18
ATOM     18  S   UNL     1      -0.733  12.719  20.586  0.00  0.00    +0.000 S 
ATOM     19  O   UNL     1      -0.881  13.614  21.721  0.00  0.00    +0.000 OA
ATOM     20  O   UNL     1       0.244  12.986  19.549  0.00  0.00    +0.000 OA
BRANCH  18  21
ATOM     21  N   UNL     1      -2.222  12.562  19.848  0.00  0.00    +0.000 N 
ATOM     22  C   UNL     1      -3.490  12.574  20.628  0.00  0.00    +0.000 C 
ATOM     23  C   UNL     1      -4.548  12.653  19.522  0.00  0.00    +0.000 C 
ATOM     24  C   UNL     1      -3.897  11.713  18.551  0.00  0.00    +0.000 A 
ATOM     25  C   UNL     1      -4.491  10.761  17.748  0.00  0.00    +0.000 A 
ATOM     26  C   UNL     1      -3.651   9.924  17.015  0.00  0.00    +0.000 A 
ATOM     27  C   UNL     1      -2.255  10.119  17.023  0.00  0.00    +0.000 A 
ATOM     28  C   UNL     1      -1.662  11.087  17.841  0.00  0.00    +0.000 A 
ATOM     29  C   UNL     1      -2.500  11.806  18.667  0.00  0.00    +0.000 A 
ENDBRANCH  18  21
ENDBRANCH   5  18
TORSDOF 4
ENDMDL
MODEL 4
REMARK VINA RESULT:      -8.3      5.452      8.586
REMARK  Name = 
REMARK  5 active torsions:
REMARK  status: ('A' for Active; 'I' for Inactive)
REMARK    1  A    between atoms: C_1  and  C_2
REMARK    2  A    between atoms: C_2  and  C_3
REMARK    3  A    between atoms: C_8  and  C_10
REMARK    4  A    between atoms: C_14  and  S_15
REMARK    5  A    between atoms: S_15  and  N_18
REMARK                            x       y       z     vdW  Elec       q    Type
REMARK                         _______ _______ _______ _____ _____    ______ ____
ROOT
ATOM      1  C   UNL     1       1.881   7.704  19.387  0.00  0.00    +0.000 A 
ATOM      2  C   UNL     1       1.569   7.225  20.665  0.00  0.00    +0.000 A 
ATOM      3  C   UNL     1       1.035   8.074  21.636  0.00  0.00    +0.000 A 
ATOM      4  C   UNL     1       0.824   9.420  21.336  0.00  0.00    +0.000 A 
ATOM      5  C   UNL     1       1.151   9.908  20.063  0.00  0.00    +0.000 A 
ATOM      6  C   UNL     1       1.651   9.050  19.081  0.00  0.00    +0.000 A 
ENDROOT
BRANCH   1  12
ATOM      7  C   UNL     1       5.960   5.099  15.884  0.00  0.00    +0.000 A 
ATOM      8  N   UNL     1       6.495   6.302  15.925  0.00  0.00    +0.000 NA
ATOM      9  N   UNL     1       5.680   7.207  16.575  0.00  0.00    +0.000 NA
ATOM     10  C   UNL     1       4.589   6.650  17.032  0.00  0.00    +0.000 A 
ATOM     11  N   UNL     1       3.666   7.337  17.783  0.00  0.00    +0.000 N 
ATOM     12  C   UNL     1       2.575   6.799  18.426  0.00  0.00    +0.000 C 
ATOM     13  O   UNL     1       2.134   5.662  18.309  0.00  0.00    +0.000 OA
ATOM     14  S   UNL     1       4.431   4.993  16.654  0.00  0.00    +0.000 S 
ATOM     15  H   UNL     1       3.891   8.317  17.867  0.00  0.00    +0.000 HD
BRANCH   7  17
ATOM     16  C   UNL     1       6.361   3.902  13.733  0.00  0.00    +0.000 C 
ATOM     17  C   UNL     1       6.577   3.906  15.238  0.00  0.00    +0.000 C 
ENDBRANCH   7  17
ENDBRANCH   1  12
BRANCH   5  18
ATOM     18  S   UNL     1       1.015  11.648  19.755  0.00  0.00    +0.000 S 
ATOM     19  O   UNL     1       1.447  12.305  20.977  0.00  0.00    +0.000 OA
ATOM     20  O   UNL     1       1.688  11.898  18.496  0.00  0.00    +0.000 OA
BRANCH  18  21
ATOM     21  N   UNL     1      -0.608  11.973  19.533  0.00  0.00    +0.000 N 
ATOM     22  C   UNL     1      -1.506  12.302  20.674  0.00  0.00    +0.000 C 
ATOM     23  C   UNL     1      -2.784  12.752  19.960  0.00  0.00    +0.000 C 
ATOM     24  C   UNL     1      -2.775  11.726  18.865  0.00  0.00    +0.000 A 
ATOM     25  C   UNL     1      -3.843  11.038  18.324  0.00  0.00    +0.000 A 
ATOM     26  C   UNL     1      -3.558  10.041  17.391  0.00  0.00    +0.000 A 
ATOM     27  C   UNL     1      -2.237   9.824  16.949  0.00  0.00    +0.000 A 
ATOM     28  C   UNL     1      -1.163  10.527  17.504  0.00  0.00    +0.000 A 
ATOM     29  C   UNL     1      -1.450  11.405  18.529  0.00  0.00    +0.000 A 
ENDBRANCH  18  21
ENDBRANCH   5  18
TORSDOF 4
ENDMDL
MODEL 5
REMARK VINA RESULT:      -8.3      2.986      9.630
REMARK  Name = 
REMARK  5 active torsions:
REMARK  status: ('A' for Active; 'I' for Inactive)
REMARK    1  A    between atoms: C_1  and  C_2
REMARK    2  A    between atoms: C_2  and  C_3
REMARK    3  A    between atoms: C_8  and  C_10
REMARK    4  A    between atoms: C_14  and  S_15
REMARK    5  A    between atoms: S_15  and  N_18
REMARK                            x       y       z     vdW  Elec       q    Type
REMARK                         _______ _______ _______ _____ _____    ______ ____
ROOT
ATOM      1  C   UNL     1       9.028  10.366  18.893  0.00  0.00    +0.000 A 
ATOM      2  C   UNL     1       9.199  10.343  20.282  0.00  0.00    +0.000 A 
ATOM      3  C   UNL     1       9.868  11.378  20.937  0.00  0.00    +0.000 A 
ATOM      4  C   UNL     1      10.389  12.440  20.199  0.00  0.00    +0.000 A 
ATOM      5  C   UNL     1      10.235  12.460  18.806  0.00  0.00    +0.000 A 
ATOM      6  C   UNL     1       9.532  11.443  18.155  0.00  0.00    +0.000 A 
ENDROOT
BRANCH   1  12
ATOM      7  C   UNL     1       6.614   5.017  17.773  0.00  0.00    +0.000 A 
ATOM      8  N   UNL     1       7.246   4.703  18.886  0.00  0.00    +0.000 NA
ATOM      9  N   UNL     1       8.041   5.738  19.336  0.00  0.00    +0.000 NA
ATOM     10  C   UNL     1       7.949   6.799  18.577  0.00  0.00    +0.000 A 
ATOM     11  N   UNL     1       8.588   7.979  18.874  0.00  0.00    +0.000 N 
ATOM     12  C   UNL     1       8.428   9.179  18.218  0.00  0.00    +0.000 C 
ATOM     13  O   UNL     1       7.834   9.374  17.165  0.00  0.00    +0.000 OA
ATOM     14  S   UNL     1       6.938   6.606  17.215  0.00  0.00    +0.000 S 
ATOM     15  H   UNL     1       9.183   7.902  19.685  0.00  0.00    +0.000 HD
BRANCH   7  17
ATOM     16  C   UNL     1       4.297   4.700  16.907  0.00  0.00    +0.000 C 
ATOM     17  C   UNL     1       5.696   4.114  17.023  0.00  0.00    +0.000 C 
ENDBRANCH   7  17
ENDBRANCH   1  12
BRANCH   5  18
ATOM     18  S   UNL     1      11.033  13.742  17.877  0.00  0.00    +0.000 S 
ATOM     19  O   UNL     1      12.330  13.938  18.500  0.00  0.00    +0.000 OA
ATOM     20  O   UNL     1      10.925  13.367  16.481  0.00  0.00    +0.000 OA
BRANCH  18  21
ATOM     21  N   UNL     1      10.132  15.130  18.099  0.00  0.00    +0.000 N 
ATOM     22  C   UNL     1      10.519  16.165  19.096  0.00  0.00    +0.000 C 
ATOM     23  C   UNL     1       9.564  17.314  18.756  0.00  0.00    +0.000 C 
ATOM     24  C   UNL     1       8.340  16.487  18.489  0.00  0.00    +0.000 A 
ATOM     25  C   UNL     1       7.031  16.756  18.834  0.00  0.00    +0.000 A 
ATOM     26  C   UNL     1       6.084  15.765  18.577  0.00  0.00    +0.000 A 
ATOM     27  C   UNL     1       6.443  14.583  17.900  0.00  0.00    +0.000 A 
ATOM     28  C   UNL     1       7.773  14.321  17.555  0.00  0.00    +0.000 A 
ATOM     29  C   UNL     1       8.716  15.247  17.947  0.00  0.00    +0.000 A 
ENDBRANCH  18  21
ENDBRANCH   5  18
TORSDOF 4
ENDMDL
MODEL 6
REMARK VINA RESULT:      -8.2      5.559      8.156
REMARK  Name = 
REMARK  5 active torsions:
REMARK  status: ('A' for Active; 'I' for Inactive)
REMARK    1  A    between atoms: C_1  and  C_2
REMARK    2  A    between atoms: C_2  and  C_3
REMARK    3  A    between atoms: C_8  and  C_10
REMARK    4  A    between atoms: C_14  and  S_15
REMARK    5  A    between atoms: S_15  and  N_18
REMARK                            x       y       z     vdW  Elec       q    Type
REMARK                         _______ _______ _______ _____ _____    ______ ____
ROOT
ATOM      1  C   UNL     1       1.728   8.236  19.604  0.00  0.00    +0.000 A 
ATOM      2  C   UNL     1       2.110   8.889  18.426  0.00  0.00    +0.000 A 
ATOM      3  C   UNL     1       2.864   8.228  17.455  0.00  0.00    +0.000 A 
ATOM      4  C   UNL     1       3.258   6.907  17.667  0.00  0.00    +0.000 A 
ATOM      5  C   UNL     1       2.892   6.255  18.852  0.00  0.00    +0.000 A 
ATOM      6  C   UNL     1       2.106   6.904  19.806  0.00  0.00    +0.000 A 
ENDROOT
BRANCH   1  12
ATOM      7  C   UNL     1      -1.896  11.952  22.561  0.00  0.00    +0.000 A 
ATOM      8  N   UNL     1      -1.937  12.551  21.389  0.00  0.00    +0.000 NA
ATOM      9  N   UNL     1      -1.057  11.984  20.490  0.00  0.00    +0.000 NA
ATOM     10  C   UNL     1      -0.420  10.962  20.999  0.00  0.00    +0.000 A 
ATOM     11  N   UNL     1       0.448  10.190  20.264  0.00  0.00    +0.000 N 
ATOM     12  C   UNL     1       1.040   9.017  20.672  0.00  0.00    +0.000 C 
ATOM     13  O   UNL     1       1.043   8.544  21.802  0.00  0.00    +0.000 OA
ATOM     14  S   UNL     1      -0.790  10.644  22.635  0.00  0.00    +0.000 S 
ATOM     15  H   UNL     1       0.588  10.549  19.331  0.00  0.00    +0.000 HD
BRANCH   7  17
ATOM     16  C   UNL     1      -4.110  12.780  23.359  0.00  0.00    +0.000 C 
ATOM     17  C   UNL     1      -2.709  12.335  23.751  0.00  0.00    +0.000 C 
ENDBRANCH   7  17
ENDBRANCH   1  12
BRANCH   5  18
ATOM     18  S   UNL     1       3.530   4.630  19.163  0.00  0.00    +0.000 S 
ATOM     19  O   UNL     1       3.553   4.480  20.608  0.00  0.00    +0.000 OA
ATOM     20  O   UNL     1       2.765   3.721  18.332  0.00  0.00    +0.000 OA
BRANCH  18  21
ATOM     21  N   UNL     1       5.105   4.616  18.611  0.00  0.00    +0.000 N 
ATOM     22  C   UNL     1       6.155   5.483  19.211  0.00  0.00    +0.000 C 
ATOM     23  C   UNL     1       7.432   4.942  18.560  0.00  0.00    +0.000 C 
ATOM     24  C   UNL     1       6.880   4.726  17.181  0.00  0.00    +0.000 A 
ATOM     25  C   UNL     1       7.490   4.963  15.966  0.00  0.00    +0.000 A 
ATOM     26  C   UNL     1       6.718   4.793  14.818  0.00  0.00    +0.000 A 
ATOM     27  C   UNL     1       5.400   4.300  14.901  0.00  0.00    +0.000 A 
ATOM     28  C   UNL     1       4.792   4.063  16.138  0.00  0.00    +0.000 A 
ATOM     29  C   UNL     1       5.523   4.376  17.265  0.00  0.00    +0.000 A 
ENDBRANCH  18  21
ENDBRANCH   5  18
TORSDOF 4
ENDMDL
MODEL 7
REMARK VINA RESULT:      -8.2      7.044     10.306
REMARK  Name = 
REMARK  5 active torsions:
REMARK  status: ('A' for Active; 'I' for Inactive)
REMARK    1  A    between atoms: C_1  and  C_2
REMARK    2  A    between atoms: C_2  and  C_3
REMARK    3  A    between atoms: C_8  and  C_10
REMARK    4  A    between atoms: C_14  and  S_15
REMARK    5  A    between atoms: S_15  and  N_18
REMARK                            x       y       z     vdW  Elec       q    Type
REMARK                         _______ _______ _______ _____ _____    ______ ____
ROOT
ATOM      1  C   UNL     1       0.702   8.992  20.882  0.00  0.00    +0.000 A 
ATOM      2  C   UNL     1       0.754   8.821  22.270  0.00  0.00    +0.000 A 
ATOM      3  C   UNL     1       0.044   9.668  23.122  0.00  0.00    +0.000 A 
ATOM      4  C   UNL     1      -0.712  10.710  22.587  0.00  0.00    +0.000 A 
ATOM      5  C   UNL     1      -0.754  10.897  21.198  0.00  0.00    +0.000 A 
ATOM      6  C   UNL     1      -0.074  10.025  20.345  0.00  0.00    +0.000 A 
ENDROOT
BRANCH   1  12
ATOM      7  C   UNL     1       3.555   4.391  18.356  0.00  0.00    +0.000 A 
ATOM      8  N   UNL     1       3.323   3.840  19.530  0.00  0.00    +0.000 NA
ATOM      9  N   UNL     1       2.773   4.739  20.421  0.00  0.00    +0.000 NA
ATOM     10  C   UNL     1       2.574   5.913  19.880  0.00  0.00    +0.000 A 
ATOM     11  N   UNL     1       1.962   6.944  20.552  0.00  0.00    +0.000 N 
ATOM     12  C   UNL     1       1.580   8.152  20.017  0.00  0.00    +0.000 C 
ATOM     13  O   UNL     1       1.864   8.594  18.910  0.00  0.00    +0.000 OA
ATOM     14  S   UNL     1       3.099   6.041  18.261  0.00  0.00    +0.000 S 
ATOM     15  H   UNL     1       1.763   6.712  21.514  0.00  0.00    +0.000 HD
BRANCH   7  17
ATOM     16  C   UNL     1       4.956   4.650  16.308  0.00  0.00    +0.000 C 
ATOM     17  C   UNL     1       4.160   3.695  17.185  0.00  0.00    +0.000 C 
ENDBRANCH   7  17
ENDBRANCH   1  12
BRANCH   5  18
ATOM     18  S   UNL     1      -1.600  12.314  20.553  0.00  0.00    +0.000 S 
ATOM     19  O   UNL     1      -2.573  12.693  21.562  0.00  0.00    +0.000 OA
ATOM     20  O   UNL     1      -0.575  13.244  20.119  0.00  0.00    +0.000 OA
BRANCH  18  21
ATOM     21  N   UNL     1      -2.427  11.806  19.195  0.00  0.00    +0.000 N 
ATOM     22  C   UNL     1      -1.811  11.844  17.840  0.00  0.00    +0.000 C 
ATOM     23  C   UNL     1      -2.831  11.068  17.000  0.00  0.00    +0.000 C 
ATOM     24  C   UNL     1      -4.075  11.625  17.627  0.00  0.00    +0.000 A 
ATOM     25  C   UNL     1      -5.258  11.985  17.014  0.00  0.00    +0.000 A 
ATOM     26  C   UNL     1      -6.231  12.595  17.805  0.00  0.00    +0.000 A 
ATOM     27  C   UNL     1      -6.044  12.740  19.194  0.00  0.00    +0.000 A 
ATOM     28  C   UNL     1      -4.841  12.371  19.806  0.00  0.00    +0.000 A 
ATOM     29  C   UNL     1      -3.837  11.905  18.982  0.00  0.00    +0.000 A 
ENDBRANCH  18  21
ENDBRANCH   5  18
TORSDOF 4
ENDMDL
MODEL 8
REMARK VINA RESULT:      -8.1      6.047      9.316
REMARK  Name = 
REMARK  5 active torsions:
REMARK  status: ('A' for Active; 'I' for Inactive)
REMARK    1  A    between atoms: C_1  and  C_2
REMARK    2  A    between atoms: C_2  and  C_3
REMARK    3  A    between atoms: C_8  and  C_10
REMARK    4  A    between atoms: C_14  and  S_15
REMARK    5  A    between atoms: S_15  and  N_18
REMARK                            x       y       z     vdW  Elec       q    Type
REMARK                         _______ _______ _______ _____ _____    ______ ____
ROOT
ATOM      1  C   UNL     1       1.434   8.484  20.046  0.00  0.00    +0.000 A 
ATOM      2  C   UNL     1       0.954   7.825  21.183  0.00  0.00    +0.000 A 
ATOM      3  C   UNL     1       0.144   8.490  22.107  0.00  0.00    +0.000 A 
ATOM      4  C   UNL     1      -0.175   9.831  21.904  0.00  0.00    +0.000 A 
ATOM      5  C   UNL     1       0.318  10.501  20.776  0.00  0.00    +0.000 A 
ATOM      6  C   UNL     1       1.096   9.825  19.834  0.00  0.00    +0.000 A 
ENDROOT
BRANCH   1  12
ATOM      7  C   UNL     1       4.807   4.328  17.392  0.00  0.00    +0.000 A 
ATOM      8  N   UNL     1       4.644   3.720  18.549  0.00  0.00    +0.000 NA
ATOM      9  N   UNL     1       3.993   4.522  19.465  0.00  0.00    +0.000 NA
ATOM     10  C   UNL     1       3.655   5.679  18.958  0.00  0.00    +0.000 A 
ATOM     11  N   UNL     1       2.927   6.610  19.659  0.00  0.00    +0.000 N 
ATOM     12  C   UNL     1       2.404   7.780  19.158  0.00  0.00    +0.000 C 
ATOM     13  O   UNL     1       2.631   8.284  18.065  0.00  0.00    +0.000 OA
ATOM     14  S   UNL     1       4.158   5.915  17.344  0.00  0.00    +0.000 S 
ATOM     15  H   UNL     1       2.759   6.328  20.614  0.00  0.00    +0.000 HD
BRANCH   7  17
ATOM     16  C   UNL     1       6.497   4.706  15.597  0.00  0.00    +0.000 C 
ATOM     17  C   UNL     1       5.488   3.743  16.202  0.00  0.00    +0.000 C 
ENDBRANCH   7  17
ENDBRANCH   1  12
BRANCH   5  18
ATOM     18  S   UNL     1       0.021  12.242  20.619  0.00  0.00    +0.000 S 
ATOM     19  O   UNL     1       0.147  12.791  21.958  0.00  0.00    +0.000 OA
ATOM     20  O   UNL     1       0.869  12.709  19.540  0.00  0.00    +0.000 OA
BRANCH  18  21
ATOM     21  N   UNL     1      -1.565  12.419  20.128  0.00  0.00    +0.000 N 
ATOM     22  C   UNL     1      -2.677  12.564  21.107  0.00  0.00    +0.000 C 
ATOM     23  C   UNL     1      -3.856  12.939  20.202  0.00  0.00    +0.000 C 
ATOM     24  C   UNL     1      -3.542  12.009  19.066  0.00  0.00    +0.000 A 
ATOM     25  C   UNL     1      -4.416  11.263  18.302  0.00  0.00    +0.000 A 
ATOM     26  C   UNL     1      -3.863  10.377  17.377  0.00  0.00    +0.000 A 
ATOM     27  C   UNL     1      -2.470  10.329  17.168  0.00  0.00    +0.000 A 
ATOM     28  C   UNL     1      -1.594  11.090  17.948  0.00  0.00    +0.000 A 
ATOM     29  C   UNL     1      -2.151  11.850  18.956  0.00  0.00    +0.000 A 
ENDBRANCH  18  21
ENDBRANCH   5  18
TORSDOF 4
ENDMDL
MODEL 9
REMARK VINA RESULT:      -8.0      5.071      7.469
REMARK  Name = 
REMARK  5 active torsions:
REMARK  status: ('A' for Active; 'I' for Inactive)
REMARK    1  A    between atoms: C_1  and  C_2
REMARK    2  A    between atoms: C_2  and  C_3
REMARK    3  A    between atoms: C_8  and  C_10
REMARK    4  A    between atoms: C_14  and  S_15
REMARK    5  A    between atoms: S_15  and  N_18
REMARK                            x       y       z     vdW  Elec       q    Type
REMARK                         _______ _______ _______ _____ _____    ______ ____
ROOT
ATOM      1  C   UNL     1       1.866   6.051  20.245  0.00  0.00    +0.000 A 
ATOM      2  C   UNL     1       1.569   5.212  21.325  0.00  0.00    +0.000 A 
ATOM      3  C   UNL     1       1.874   3.850  21.279  0.00  0.00    +0.000 A 
ATOM      4  C   UNL     1       2.466   3.314  20.136  0.00  0.00    +0.000 A 
ATOM      5  C   UNL     1       2.750   4.147  19.044  0.00  0.00    +0.000 A 
ATOM      6  C   UNL     1       2.479   5.515  19.107  0.00  0.00    +0.000 A 
ENDROOT
BRANCH   1  12
ATOM      7  C   UNL     1      -0.050  11.414  22.049  0.00  0.00    +0.000 A 
ATOM      8  N   UNL     1      -0.494  10.709  23.069  0.00  0.00    +0.000 NA
ATOM      9  N   UNL     1      -0.317   9.354  22.874  0.00  0.00    +0.000 NA
ATOM     10  C   UNL     1       0.285   9.091  21.743  0.00  0.00    +0.000 A 
ATOM     11  N   UNL     1       0.640   7.816  21.372  0.00  0.00    +0.000 N 
ATOM     12  C   UNL     1       1.402   7.468  20.281  0.00  0.00    +0.000 C 
ATOM     13  O   UNL     1       1.753   8.196  19.361  0.00  0.00    +0.000 OA
ATOM     14  S   UNL     1       0.629  10.466  20.791  0.00  0.00    +0.000 S 
ATOM     15  H   UNL     1       0.315   7.120  22.027  0.00  0.00    +0.000 HD
BRANCH   7  17
ATOM     16  C   UNL     1      -1.110  13.497  22.919  0.00  0.00    +0.000 C 
ATOM     17  C   UNL     1      -0.110  12.900  21.941  0.00  0.00    +0.000 C 
ENDBRANCH   7  17
ENDBRANCH   1  12
BRANCH   5  18
ATOM     18  S   UNL     1       3.363   3.416  17.551  0.00  0.00    +0.000 S 
ATOM     19  O   UNL     1       4.097   2.230  17.958  0.00  0.00    +0.000 OA
ATOM     20  O   UNL     1       2.236   3.320  16.645  0.00  0.00    +0.000 OA
BRANCH  18  21
ATOM     21  N   UNL     1       4.448   4.501  16.892  0.00  0.00    +0.000 N 
ATOM     22  C   UNL     1       4.969   4.347  15.507  0.00  0.00    +0.000 C 
ATOM     23  C   UNL     1       5.701   5.675  15.287  0.00  0.00    +0.000 C 
ATOM     24  C   UNL     1       6.310   5.798  16.654  0.00  0.00    +0.000 A 
ATOM     25  C   UNL     1       7.570   6.245  16.995  0.00  0.00    +0.000 A 
ATOM     26  C   UNL     1       7.944   6.150  18.335  0.00  0.00    +0.000 A 
ATOM     27  C   UNL     1       7.027   5.709  19.309  0.00  0.00    +0.000 A 
ATOM     28  C   UNL     1       5.751   5.259  18.953  0.00  0.00    +0.000 A 
ATOM     29  C   UNL     1       5.453   5.224  17.607  0.00  0.00    +0.000 A 
ENDBRANCH  18  21
ENDBRANCH   5  18
TORSDOF 4
ENDMDL
