MODEL 1
REMARK VINA RESULT:      -9.7      0.000      0.000
REMARK  Name = 
REMARK  4 active torsions:
REMARK  status: ('A' for Active; 'I' for Inactive)
REMARK    1  A    between atoms: C_2  and  C_3
REMARK    2  A    between atoms: C_8  and  C_9
REMARK    3  A    between atoms: C_9  and  C_10
REMARK    4  A    between atoms: C_10  and  C_11
REMARK                            x       y       z     vdW  Elec       q    Type
REMARK                         _______ _______ _______ _____ _____    ______ ____
ROOT
ATOM      1  O   UNL     1       2.398   3.593  16.598  0.00  0.00    +0.000 OA
ATOM      2  C   UNL     1       3.195   3.722  17.527  0.00  0.00    +0.000 C 
ATOM      3  N   UNL     1       4.577   3.884  17.291  0.00  0.00    +0.000 N 
ATOM      4  C   UNL     1       5.085   3.879  15.912  0.00  0.00    +0.000 C 
ATOM      5  C   UNL     1       5.913   5.139  15.590  0.00  0.00    +0.000 C 
ATOM      6  C   UNL     1       6.684   5.693  16.770  0.00  0.00    +0.000 A 
ATOM      7  N   UNL     1       7.450   6.814  16.532  0.00  0.00    +0.000 NA
ATOM      8  C   UNL     1       7.989   7.378  17.557  0.00  0.00    +0.000 A 
ATOM      9  N   UNL     1       7.903   6.910  18.834  0.00  0.00    +0.000 N 
ATOM     10  C   UNL     1       7.284   5.726  19.115  0.00  0.00    +0.000 A 
ATOM     11  O   UNL     1       7.329   5.206  20.219  0.00  0.00    +0.000 OA
ATOM     12  C   UNL     1       6.549   5.132  17.979  0.00  0.00    +0.000 A 
ATOM     13  C   UNL     1       5.630   4.015  18.305  0.00  0.00    +0.000 C 
ATOM     14  H   UNL     1       8.378   7.361  19.599  0.00  0.00    +0.000 HD
ENDROOT
BRANCH   2  15
ATOM     15  C   UNL     1       2.651   3.731  18.936  0.00  0.00    +0.000 A 
ATOM     16  C   UNL     1       1.920   2.612  19.374  0.00  0.00    +0.000 A 
ATOM     17  C   UNL     1       1.621   2.420  20.721  0.00  0.00    +0.000 A 
ATOM     18  C   UNL     1       1.938   3.408  21.637  0.00  0.00    +0.000 A 
ATOM     19  C   UNL     1       2.485   4.610  21.191  0.00  0.00    +0.000 A 
ATOM     20  C   UNL     1       2.844   4.810  19.839  0.00  0.00    +0.000 A 
BRANCH  20  21
ATOM     21  C   UNL     1       3.302   6.193  19.387  0.00  0.00    +0.000 C 
BRANCH  21  22
ATOM     22  C   UNL     1       2.429   6.958  18.361  0.00  0.00    +0.000 C 
BRANCH  22  23
ATOM     23  C   UNL     1       1.789   8.217  18.903  0.00  0.00    +0.000 A 
ATOM     24  C   UNL     1       1.491   8.347  20.263  0.00  0.00    +0.000 A 
ATOM     25  C   UNL     1       0.810   9.466  20.739  0.00  0.00    +0.000 A 
ATOM     26  C   UNL     1       0.449  10.484  19.863  0.00  0.00    +0.000 A 
ATOM     27  C   UNL     1       0.793  10.400  18.515  0.00  0.00    +0.000 A 
ATOM     28  C   UNL     1       1.470   9.275  18.035  0.00  0.00    +0.000 A 
ENDBRANCH  22  23
ENDBRANCH  21  22
ENDBRANCH  20  21
ENDBRANCH   2  15
TORSDOF 4
ENDMDL
MODEL 2
REMARK VINA RESULT:      -9.4      0.504      1.095
REMARK  Name = 
REMARK  4 active torsions:
REMARK  status: ('A' for Active; 'I' for Inactive)
REMARK    1  A    between atoms: C_2  and  C_3
REMARK    2  A    between atoms: C_8  and  C_9
REMARK    3  A    between atoms: C_9  and  C_10
REMARK    4  A    between atoms: C_10  and  C_11
REMARK                            x       y       z     vdW  Elec       q    Type
REMARK                         _______ _______ _______ _____ _____    ______ ____
ROOT
ATOM      1  O   UNL     1       2.249   3.733  16.761  0.00  0.00    +0.000 OA
ATOM      2  C   UNL     1       3.105   3.796  17.643  0.00  0.00    +0.000 C 
ATOM      3  N   UNL     1       4.465   4.013  17.331  0.00  0.00    +0.000 N 
ATOM      4  C   UNL     1       4.877   4.146  15.926  0.00  0.00    +0.000 C 
ATOM      5  C   UNL     1       5.658   5.451  15.670  0.00  0.00    +0.000 C 
ATOM      6  C   UNL     1       6.498   5.914  16.842  0.00  0.00    +0.000 A 
ATOM      7  N   UNL     1       7.224   7.070  16.658  0.00  0.00    +0.000 NA
ATOM      8  C   UNL     1       7.822   7.551  17.693  0.00  0.00    +0.000 A 
ATOM      9  N   UNL     1       7.832   6.966  18.924  0.00  0.00    +0.000 N 
ATOM     10  C   UNL     1       7.256   5.746  19.134  0.00  0.00    +0.000 A 
ATOM     11  O   UNL     1       7.386   5.128  20.180  0.00  0.00    +0.000 OA
ATOM     12  C   UNL     1       6.456   5.241  18.000  0.00  0.00    +0.000 A 
ATOM     13  C   UNL     1       5.582   4.076  18.280  0.00  0.00    +0.000 C 
ATOM     14  H   UNL     1       8.350   7.357  19.694  0.00  0.00    +0.000 HD
ENDROOT
BRANCH   2  15
ATOM     15  C   UNL     1       2.659   3.663  19.079  0.00  0.00    +0.000 A 
ATOM     16  C   UNL     1       2.368   2.376  19.569  0.00  0.00    +0.000 A 
ATOM     17  C   UNL     1       2.217   2.134  20.932  0.00  0.00    +0.000 A 
ATOM     18  C   UNL     1       2.228   3.196  21.819  0.00  0.00    +0.000 A 
ATOM     19  C   UNL     1       2.319   4.499  21.331  0.00  0.00    +0.000 A 
ATOM     20  C   UNL     1       2.523   4.769  19.959  0.00  0.00    +0.000 A 
BRANCH  20  21
ATOM     21  C   UNL     1       2.468   6.212  19.468  0.00  0.00    +0.000 C 
BRANCH  21  22
ATOM     22  C   UNL     1       1.871   7.286  20.411  0.00  0.00    +0.000 C 
BRANCH  22  23
ATOM     23  C   UNL     1       1.549   8.600  19.733  0.00  0.00    +0.000 A 
ATOM     24  C   UNL     1       1.983   8.866  18.430  0.00  0.00    +0.000 A 
ATOM     25  C   UNL     1       1.771  10.114  17.849  0.00  0.00    +0.000 A 
ATOM     26  C   UNL     1       1.093  11.103  18.555  0.00  0.00    +0.000 A 
ATOM     27  C   UNL     1       0.599  10.835  19.830  0.00  0.00    +0.000 A 
ATOM     28  C   UNL     1       0.817   9.585  20.416  0.00  0.00    +0.000 A 
ENDBRANCH  22  23
ENDBRANCH  21  22
ENDBRANCH  20  21
ENDBRANCH   2  15
TORSDOF 4
ENDMDL
MODEL 3
REMARK VINA RESULT:      -8.3      1.168      1.482
REMARK  Name = 
REMARK  4 active torsions:
REMARK  status: ('A' for Active; 'I' for Inactive)
REMARK    1  A    between atoms: C_2  and  C_3
REMARK    2  A    between atoms: C_8  and  C_9
REMARK    3  A    between atoms: C_9  and  C_10
REMARK    4  A    between atoms: C_10  and  C_11
REMARK                            x       y       z     vdW  Elec       q    Type
REMARK                         _______ _______ _______ _____ _____    ______ ____
ROOT
ATOM      1  O   UNL     1       2.369   3.689  16.747  0.00  0.00    +0.000 OA
ATOM      2  C   UNL     1       3.208   3.779  17.645  0.00  0.00    +0.000 C 
ATOM      3  N   UNL     1       4.576   3.967  17.354  0.00  0.00    +0.000 N 
ATOM      4  C   UNL     1       5.020   4.036  15.954  0.00  0.00    +0.000 C 
ATOM      5  C   UNL     1       5.822   5.319  15.660  0.00  0.00    +0.000 C 
ATOM      6  C   UNL     1       6.643   5.821  16.831  0.00  0.00    +0.000 A 
ATOM      7  N   UNL     1       7.388   6.960  16.615  0.00  0.00    +0.000 NA
ATOM      8  C   UNL     1       7.970   7.476  17.642  0.00  0.00    +0.000 A 
ATOM      9  N   UNL     1       7.946   6.943  18.896  0.00  0.00    +0.000 N 
ATOM     10  C   UNL     1       7.350   5.740  19.144  0.00  0.00    +0.000 A 
ATOM     11  O   UNL     1       7.450   5.165  20.217  0.00  0.00    +0.000 OA
ATOM     12  C   UNL     1       6.568   5.197  18.014  0.00  0.00    +0.000 A 
ATOM     13  C   UNL     1       5.673   4.056  18.324  0.00  0.00    +0.000 C 
ATOM     14  H   UNL     1       8.453   7.360  19.660  0.00  0.00    +0.000 HD
ENDROOT
BRANCH   2  15
ATOM     15  C   UNL     1       2.729   3.711  19.075  0.00  0.00    +0.000 A 
ATOM     16  C   UNL     1       2.721   2.459  19.716  0.00  0.00    +0.000 A 
ATOM     17  C   UNL     1       2.558   2.348  21.095  0.00  0.00    +0.000 A 
ATOM     18  C   UNL     1       2.273   3.478  21.840  0.00  0.00    +0.000 A 
ATOM     19  C   UNL     1       2.083   4.699  21.195  0.00  0.00    +0.000 A 
ATOM     20  C   UNL     1       2.291   4.848  19.805  0.00  0.00    +0.000 A 
BRANCH  20  21
ATOM     21  C   UNL     1       1.927   6.169  19.136  0.00  0.00    +0.000 C 
BRANCH  21  22
ATOM     22  C   UNL     1       2.427   7.484  19.784  0.00  0.00    +0.000 C 
BRANCH  22  23
ATOM     23  C   UNL     1       1.485   8.070  20.812  0.00  0.00    +0.000 A 
ATOM     24  C   UNL     1       0.134   7.709  20.841  0.00  0.00    +0.000 A 
ATOM     25  C   UNL     1      -0.751   8.327  21.722  0.00  0.00    +0.000 A 
ATOM     26  C   UNL     1      -0.286   9.292  22.610  0.00  0.00    +0.000 A 
ATOM     27  C   UNL     1       1.069   9.619  22.638  0.00  0.00    +0.000 A 
ATOM     28  C   UNL     1       1.955   9.005  21.749  0.00  0.00    +0.000 A 
ENDBRANCH  22  23
ENDBRANCH  21  22
ENDBRANCH  20  21
ENDBRANCH   2  15
TORSDOF 4
ENDMDL
MODEL 4
REMARK VINA RESULT:      -8.1      1.244      1.551
REMARK  Name = 
REMARK  4 active torsions:
REMARK  status: ('A' for Active; 'I' for Inactive)
REMARK    1  A    between atoms: C_2  and  C_3
REMARK    2  A    between atoms: C_8  and  C_9
REMARK    3  A    between atoms: C_9  and  C_10
REMARK    4  A    between atoms: C_10  and  C_11
REMARK                            x       y       z     vdW  Elec       q    Type
REMARK                         _______ _______ _______ _____ _____    ______ ____
ROOT
ATOM      1  O   UNL     1       2.665   3.872  16.794  0.00  0.00    +0.000 OA
ATOM      2  C   UNL     1       3.684   3.802  17.482  0.00  0.00    +0.000 C 
ATOM      3  N   UNL     1       4.912   4.330  17.029  0.00  0.00    +0.000 N 
ATOM      4  C   UNL     1       4.990   4.958  15.703  0.00  0.00    +0.000 C 
ATOM      5  C   UNL     1       5.559   6.389  15.768  0.00  0.00    +0.000 C 
ATOM      6  C   UNL     1       6.585   6.601  16.862  0.00  0.00    +0.000 A 
ATOM      7  N   UNL     1       7.132   7.862  16.954  0.00  0.00    +0.000 NA
ATOM      8  C   UNL     1       7.892   8.093  17.970  0.00  0.00    +0.000 A 
ATOM      9  N   UNL     1       8.231   7.166  18.910  0.00  0.00    +0.000 N 
ATOM     10  C   UNL     1       7.841   5.863  18.794  0.00  0.00    +0.000 A 
ATOM     11  O   UNL     1       8.261   4.983  19.531  0.00  0.00    +0.000 OA
ATOM     12  C   UNL     1       6.867   5.606  17.714  0.00  0.00    +0.000 A 
ATOM     13  C   UNL     1       6.198   4.283  17.734  0.00  0.00    +0.000 C 
ATOM     14  H   UNL     1       8.864   7.381  19.663  0.00  0.00    +0.000 HD
ENDROOT
BRANCH   2  15
ATOM     15  C   UNL     1       3.580   3.159  18.845  0.00  0.00    +0.000 A 
ATOM     16  C   UNL     1       4.244   1.936  19.056  0.00  0.00    +0.000 A 
ATOM     17  C   UNL     1       4.426   1.420  20.336  0.00  0.00    +0.000 A 
ATOM     18  C   UNL     1       3.837   2.051  21.417  0.00  0.00    +0.000 A 
ATOM     19  C   UNL     1       3.011   3.154  21.203  0.00  0.00    +0.000 A 
ATOM     20  C   UNL     1       2.850   3.728  19.922  0.00  0.00    +0.000 A 
BRANCH  20  21
ATOM     21  C   UNL     1       1.824   4.839  19.728  0.00  0.00    +0.000 C 
BRANCH  21  22
ATOM     22  C   UNL     1       1.995   6.147  20.539  0.00  0.00    +0.000 C 
BRANCH  22  23
ATOM     23  C   UNL     1       1.942   7.408  19.706  0.00  0.00    +0.000 A 
ATOM     24  C   UNL     1       1.321   8.566  20.187  0.00  0.00    +0.000 A 
ATOM     25  C   UNL     1       1.187   9.692  19.378  0.00  0.00    +0.000 A 
ATOM     26  C   UNL     1       1.703   9.684  18.086  0.00  0.00    +0.000 A 
ATOM     27  C   UNL     1       2.380   8.562  17.612  0.00  0.00    +0.000 A 
ATOM     28  C   UNL     1       2.509   7.430  18.421  0.00  0.00    +0.000 A 
ENDBRANCH  22  23
ENDBRANCH  21  22
ENDBRANCH  20  21
ENDBRANCH   2  15
TORSDOF 4
ENDMDL
MODEL 5
REMARK VINA RESULT:      -7.9      2.999      5.754
REMARK  Name = 
REMARK  4 active torsions:
REMARK  status: ('A' for Active; 'I' for Inactive)
REMARK    1  A    between atoms: C_2  and  C_3
REMARK    2  A    between atoms: C_8  and  C_9
REMARK    3  A    between atoms: C_9  and  C_10
REMARK    4  A    between atoms: C_10  and  C_11
REMARK                            x       y       z     vdW  Elec       q    Type
REMARK                         _______ _______ _______ _____ _____    ______ ____
ROOT
ATOM      1  O   UNL     1       2.750   5.346  17.211  0.00  0.00    +0.000 OA
ATOM      2  C   UNL     1       2.560   5.708  18.372  0.00  0.00    +0.000 C 
ATOM      3  N   UNL     1       2.543   7.076  18.720  0.00  0.00    +0.000 N 
ATOM      4  C   UNL     1       2.777   8.093  17.686  0.00  0.00    +0.000 C 
ATOM      5  C   UNL     1       1.642   9.135  17.627  0.00  0.00    +0.000 C 
ATOM      6  C   UNL     1       0.996   9.427  18.965  0.00  0.00    +0.000 A 
ATOM      7  N   UNL     1      -0.017  10.362  18.968  0.00  0.00    +0.000 NA
ATOM      8  C   UNL     1      -0.669  10.508  20.069  0.00  0.00    +0.000 A 
ATOM      9  N   UNL     1      -0.387   9.852  21.230  0.00  0.00    +0.000 N 
ATOM     10  C   UNL     1       0.694   9.025  21.332  0.00  0.00    +0.000 A 
ATOM     11  O   UNL     1       1.061   8.551  22.397  0.00  0.00    +0.000 OA
ATOM     12  C   UNL     1       1.376   8.743  20.053  0.00  0.00    +0.000 A 
ATOM     13  C   UNL     1       2.361   7.635  20.065  0.00  0.00    +0.000 C 
ATOM     14  H   UNL     1      -0.899  10.031  22.079  0.00  0.00    +0.000 HD
ENDROOT
BRANCH   2  15
ATOM     15  C   UNL     1       2.316   4.646  19.418  0.00  0.00    +0.000 A 
ATOM     16  C   UNL     1       0.989   4.386  19.805  0.00  0.00    +0.000 A 
ATOM     17  C   UNL     1       0.656   3.255  20.547  0.00  0.00    +0.000 A 
ATOM     18  C   UNL     1       1.661   2.432  21.024  0.00  0.00    +0.000 A 
ATOM     19  C   UNL     1       2.994   2.783  20.816  0.00  0.00    +0.000 A 
ATOM     20  C   UNL     1       3.358   3.896  20.024  0.00  0.00    +0.000 A 
BRANCH  20  21
ATOM     21  C   UNL     1       4.824   4.311  19.954  0.00  0.00    +0.000 C 
BRANCH  21  22
ATOM     22  C   UNL     1       5.537   4.260  18.580  0.00  0.00    +0.000 C 
BRANCH  22  23
ATOM     23  C   UNL     1       6.394   5.469  18.277  0.00  0.00    +0.000 A 
ATOM     24  C   UNL     1       7.535   5.753  19.034  0.00  0.00    +0.000 A 
ATOM     25  C   UNL     1       8.263   6.921  18.817  0.00  0.00    +0.000 A 
ATOM     26  C   UNL     1       7.874   7.805  17.815  0.00  0.00    +0.000 A 
ATOM     27  C   UNL     1       6.776   7.508  17.010  0.00  0.00    +0.000 A 
ATOM     28  C   UNL     1       6.042   6.340  17.232  0.00  0.00    +0.000 A 
ENDBRANCH  22  23
ENDBRANCH  21  22
ENDBRANCH  20  21
ENDBRANCH   2  15
TORSDOF 4
ENDMDL
MODEL 6
REMARK VINA RESULT:      -7.8      4.412      8.278
REMARK  Name = 
REMARK  4 active torsions:
REMARK  status: ('A' for Active; 'I' for Inactive)
REMARK    1  A    between atoms: C_2  and  C_3
REMARK    2  A    between atoms: C_8  and  C_9
REMARK    3  A    between atoms: C_9  and  C_10
REMARK    4  A    between atoms: C_10  and  C_11
REMARK                            x       y       z     vdW  Elec       q    Type
REMARK                         _______ _______ _______ _____ _____    ______ ____
ROOT
ATOM      1  O   UNL     1       1.700   8.508  22.295  0.00  0.00    +0.000 OA
ATOM      2  C   UNL     1       1.125   8.779  21.240  0.00  0.00    +0.000 C 
ATOM      3  N   UNL     1      -0.002   9.629  21.217  0.00  0.00    +0.000 N 
ATOM      4  C   UNL     1      -0.517  10.190  22.474  0.00  0.00    +0.000 C 
ATOM      5  C   UNL     1      -0.620  11.728  22.427  0.00  0.00    +0.000 C 
ATOM      6  C   UNL     1      -0.946  12.288  21.059  0.00  0.00    +0.000 A 
ATOM      7  N   UNL     1      -1.060  13.658  20.967  0.00  0.00    +0.000 NA
ATOM      8  C   UNL     1      -1.190  14.152  19.784  0.00  0.00    +0.000 A 
ATOM      9  N   UNL     1      -1.281  13.415  18.642  0.00  0.00    +0.000 N 
ATOM     10  C   UNL     1      -1.323  12.051  18.680  0.00  0.00    +0.000 A 
ATOM     11  O   UNL     1      -1.563  11.372  17.692  0.00  0.00    +0.000 OA
ATOM     12  C   UNL     1      -1.046  11.464  20.007  0.00  0.00    +0.000 A 
ATOM     13  C   UNL     1      -0.792  10.003  20.038  0.00  0.00    +0.000 C 
ATOM     14  H   UNL     1      -1.425  13.844  17.743  0.00  0.00    +0.000 HD
ENDROOT
BRANCH   2  15
ATOM     15  C   UNL     1       1.675   8.197  19.959  0.00  0.00    +0.000 A 
ATOM     16  C   UNL     1       1.753   9.031  18.829  0.00  0.00    +0.000 A 
ATOM     17  C   UNL     1       2.488   8.665  17.704  0.00  0.00    +0.000 A 
ATOM     18  C   UNL     1       3.052   7.404  17.640  0.00  0.00    +0.000 A 
ATOM     19  C   UNL     1       2.819   6.492  18.669  0.00  0.00    +0.000 A 
ATOM     20  C   UNL     1       2.121   6.854  19.842  0.00  0.00    +0.000 A 
BRANCH  20  21
ATOM     21  C   UNL     1       1.773   5.776  20.864  0.00  0.00    +0.000 C 
BRANCH  21  22
ATOM     22  C   UNL     1       1.023   4.514  20.374  0.00  0.00    +0.000 C 
BRANCH  22  23
ATOM     23  C   UNL     1       1.896   3.508  19.657  0.00  0.00    +0.000 A 
ATOM     24  C   UNL     1       3.079   3.037  20.236  0.00  0.00    +0.000 A 
ATOM     25  C   UNL     1       3.930   2.190  19.530  0.00  0.00    +0.000 A 
ATOM     26  C   UNL     1       3.591   1.778  18.245  0.00  0.00    +0.000 A 
ATOM     27  C   UNL     1       2.387   2.187  17.676  0.00  0.00    +0.000 A 
ATOM     28  C   UNL     1       1.535   3.042  18.381  0.00  0.00    +0.000 A 
ENDBRANCH  22  23
ENDBRANCH  21  22
ENDBRANCH  20  21
ENDBRANCH   2  15
TORSDOF 4
ENDMDL
MODEL 7
REMARK VINA RESULT:      -7.6      3.057      5.885
REMARK  Name = 
REMARK  4 active torsions:
REMARK  status: ('A' for Active; 'I' for Inactive)
REMARK    1  A    between atoms: C_2  and  C_3
REMARK    2  A    between atoms: C_8  and  C_9
REMARK    3  A    between atoms: C_9  and  C_10
REMARK    4  A    between atoms: C_10  and  C_11
REMARK                            x       y       z     vdW  Elec       q    Type
REMARK                         _______ _______ _______ _____ _____    ______ ____
ROOT
ATOM      1  O   UNL     1       2.192   5.405  17.194  0.00  0.00    +0.000 OA
ATOM      2  C   UNL     1       2.204   5.772  18.369  0.00  0.00    +0.000 C 
ATOM      3  N   UNL     1       2.257   7.142  18.708  0.00  0.00    +0.000 N 
ATOM      4  C   UNL     1       2.322   8.153  17.644  0.00  0.00    +0.000 C 
ATOM      5  C   UNL     1       1.203   9.206  17.771  0.00  0.00    +0.000 C 
ATOM      6  C   UNL     1       0.794   9.509  19.198  0.00  0.00    +0.000 A 
ATOM      7  N   UNL     1      -0.196  10.452  19.365  0.00  0.00    +0.000 NA
ATOM      8  C   UNL     1      -0.653  10.609  20.560  0.00  0.00    +0.000 A 
ATOM      9  N   UNL     1      -0.186   9.955  21.660  0.00  0.00    +0.000 N 
ATOM     10  C   UNL     1       0.890   9.118  21.584  0.00  0.00    +0.000 A 
ATOM     11  O   UNL     1       1.427   8.645  22.574  0.00  0.00    +0.000 OA
ATOM     12  C   UNL     1       1.345   8.825  20.209  0.00  0.00    +0.000 A 
ATOM     13  C   UNL     1       2.308   7.707  20.061  0.00  0.00    +0.000 C 
ATOM     14  H   UNL     1      -0.546  10.141  22.582  0.00  0.00    +0.000 HD
ENDROOT
BRANCH   2  15
ATOM     15  C   UNL     1       2.130   4.717  19.447  0.00  0.00    +0.000 A 
ATOM     16  C   UNL     1       0.860   4.321  19.904  0.00  0.00    +0.000 A 
ATOM     17  C   UNL     1       0.691   3.179  20.684  0.00  0.00    +0.000 A 
ATOM     18  C   UNL     1       1.803   2.485  21.126  0.00  0.00    +0.000 A 
ATOM     19  C   UNL     1       3.077   2.977  20.846  0.00  0.00    +0.000 A 
ATOM     20  C   UNL     1       3.276   4.103  20.016  0.00  0.00    +0.000 A 
BRANCH  20  21
ATOM     21  C   UNL     1       4.681   4.677  19.865  0.00  0.00    +0.000 C 
BRANCH  21  22
ATOM     22  C   UNL     1       5.640   4.015  18.845  0.00  0.00    +0.000 C 
BRANCH  22  23
ATOM     23  C   UNL     1       5.603   4.630  17.464  0.00  0.00    +0.000 A 
ATOM     24  C   UNL     1       5.544   6.017  17.293  0.00  0.00    +0.000 A 
ATOM     25  C   UNL     1       5.408   6.574  16.023  0.00  0.00    +0.000 A 
ATOM     26  C   UNL     1       5.361   5.748  14.904  0.00  0.00    +0.000 A 
ATOM     27  C   UNL     1       5.481   4.367  15.050  0.00  0.00    +0.000 A 
ATOM     28  C   UNL     1       5.611   3.808  16.324  0.00  0.00    +0.000 A 
ENDBRANCH  22  23
ENDBRANCH  21  22
ENDBRANCH  20  21
ENDBRANCH   2  15
TORSDOF 4
ENDMDL
MODEL 8
REMARK VINA RESULT:      -7.6      5.315      9.099
REMARK  Name = 
REMARK  4 active torsions:
REMARK  status: ('A' for Active; 'I' for Inactive)
REMARK    1  A    between atoms: C_2  and  C_3
REMARK    2  A    between atoms: C_8  and  C_9
REMARK    3  A    between atoms: C_9  and  C_10
REMARK    4  A    between atoms: C_10  and  C_11
REMARK                            x       y       z     vdW  Elec       q    Type
REMARK                         _______ _______ _______ _____ _____    ______ ____
ROOT
ATOM      1  O   UNL     1      -3.464  12.425  20.904  0.00  0.00    +0.000 OA
ATOM      2  C   UNL     1      -2.584  12.576  20.056  0.00  0.00    +0.000 C 
ATOM      3  N   UNL     1      -1.604  13.583  20.188  0.00  0.00    +0.000 N 
ATOM      4  C   UNL     1      -1.640  14.487  21.346  0.00  0.00    +0.000 C 
ATOM      5  C   UNL     1      -0.305  14.502  22.116  0.00  0.00    +0.000 C 
ATOM      6  C   UNL     1       0.917  14.297  21.245  0.00  0.00    +0.000 A 
ATOM      7  N   UNL     1       2.137  14.312  21.885  0.00  0.00    +0.000 NA
ATOM      8  C   UNL     1       3.167  13.992  21.180  0.00  0.00    +0.000 A 
ATOM      9  N   UNL     1       3.136  13.703  19.849  0.00  0.00    +0.000 N 
ATOM     10  C   UNL     1       1.982  13.814  19.127  0.00  0.00    +0.000 A 
ATOM     11  O   UNL     1       1.957  13.716  17.909  0.00  0.00    +0.000 OA
ATOM     12  C   UNL     1       0.770  14.051  19.936  0.00  0.00    +0.000 A 
ATOM     13  C   UNL     1      -0.528  13.887  19.238  0.00  0.00    +0.000 C 
ATOM     14  H   UNL     1       3.974  13.500  19.329  0.00  0.00    +0.000 HD
ENDROOT
BRANCH   2  15
ATOM     15  C   UNL     1      -2.562  11.632  18.878  0.00  0.00    +0.000 A 
ATOM     16  C   UNL     1      -3.581  11.747  17.914  0.00  0.00    +0.000 A 
ATOM     17  C   UNL     1      -3.486  11.113  16.677  0.00  0.00    +0.000 A 
ATOM     18  C   UNL     1      -2.433  10.250  16.432  0.00  0.00    +0.000 A 
ATOM     19  C   UNL     1      -1.520   9.972  17.448  0.00  0.00    +0.000 A 
ATOM     20  C   UNL     1      -1.564  10.639  18.693  0.00  0.00    +0.000 A 
BRANCH  20  21
ATOM     21  C   UNL     1      -0.631  10.189  19.812  0.00  0.00    +0.000 C 
BRANCH  21  22
ATOM     22  C   UNL     1       0.897  10.322  19.593  0.00  0.00    +0.000 C 
BRANCH  22  23
ATOM     23  C   UNL     1       1.602   9.014  19.308  0.00  0.00    +0.000 A 
ATOM     24  C   UNL     1       2.219   8.780  18.075  0.00  0.00    +0.000 A 
ATOM     25  C   UNL     1       2.778   7.538  17.782  0.00  0.00    +0.000 A 
ATOM     26  C   UNL     1       2.755   6.524  18.734  0.00  0.00    +0.000 A 
ATOM     27  C   UNL     1       2.200   6.759  19.990  0.00  0.00    +0.000 A 
ATOM     28  C   UNL     1       1.633   8.002  20.283  0.00  0.00    +0.000 A 
ENDBRANCH  22  23
ENDBRANCH  21  22
ENDBRANCH  20  21
ENDBRANCH   2  15
TORSDOF 4
ENDMDL
MODEL 9
REMARK VINA RESULT:      -7.6      2.690      6.332
REMARK  Name = 
REMARK  4 active torsions:
REMARK  status: ('A' for Active; 'I' for Inactive)
REMARK    1  A    between atoms: C_2  and  C_3
REMARK    2  A    between atoms: C_8  and  C_9
REMARK    3  A    between atoms: C_9  and  C_10
REMARK    4  A    between atoms: C_10  and  C_11
REMARK                            x       y       z     vdW  Elec       q    Type
REMARK                         _______ _______ _______ _____ _____    ______ ____
ROOT
ATOM      1  O   UNL     1       3.833   7.631  17.028  0.00  0.00    +0.000 OA
ATOM      2  C   UNL     1       4.308   6.613  17.530  0.00  0.00    +0.000 C 
ATOM      3  N   UNL     1       3.904   6.168  18.807  0.00  0.00    +0.000 N 
ATOM      4  C   UNL     1       2.913   6.941  19.568  0.00  0.00    +0.000 C 
ATOM      5  C   UNL     1       1.710   6.080  20.003  0.00  0.00    +0.000 C 
ATOM      6  C   UNL     1       2.054   4.634  20.294  0.00  0.00    +0.000 A 
ATOM      7  N   UNL     1       1.015   3.825  20.698  0.00  0.00    +0.000 NA
ATOM      8  C   UNL     1       1.266   2.566  20.804  0.00  0.00    +0.000 A 
ATOM      9  N   UNL     1       2.491   2.000  20.605  0.00  0.00    +0.000 N 
ATOM     10  C   UNL     1       3.591   2.766  20.348  0.00  0.00    +0.000 A 
ATOM     11  O   UNL     1       4.722   2.304  20.323  0.00  0.00    +0.000 OA
ATOM     12  C   UNL     1       3.303   4.192  20.093  0.00  0.00    +0.000 A 
ATOM     13  C   UNL     1       4.414   4.995  19.527  0.00  0.00    +0.000 C 
ATOM     14  H   UNL     1       2.650   1.016  20.742  0.00  0.00    +0.000 HD
ENDROOT
BRANCH   2  15
ATOM     15  C   UNL     1       5.320   5.830  16.728  0.00  0.00    +0.000 A 
ATOM     16  C   UNL     1       4.885   4.676  16.052  0.00  0.00    +0.000 A 
ATOM     17  C   UNL     1       5.674   4.058  15.084  0.00  0.00    +0.000 A 
ATOM     18  C   UNL     1       6.964   4.509  14.868  0.00  0.00    +0.000 A 
ATOM     19  C   UNL     1       7.481   5.526  15.668  0.00  0.00    +0.000 A 
ATOM     20  C   UNL     1       6.686   6.203  16.621  0.00  0.00    +0.000 A 
BRANCH  20  21
ATOM     21  C   UNL     1       7.346   7.204  17.564  0.00  0.00    +0.000 C 
BRANCH  21  22
ATOM     22  C   UNL     1       7.039   8.709  17.368  0.00  0.00    +0.000 C 
BRANCH  22  23
ATOM     23  C   UNL     1       8.071   9.638  17.967  0.00  0.00    +0.000 A 
ATOM     24  C   UNL     1       8.863   9.237  19.048  0.00  0.00    +0.000 A 
ATOM     25  C   UNL     1       9.739  10.130  19.661  0.00  0.00    +0.000 A 
ATOM     26  C   UNL     1       9.858  11.429  19.176  0.00  0.00    +0.000 A 
ATOM     27  C   UNL     1       9.123  11.828  18.061  0.00  0.00    +0.000 A 
ATOM     28  C   UNL     1       8.239  10.934  17.451  0.00  0.00    +0.000 A 
ENDBRANCH  22  23
ENDBRANCH  21  22
ENDBRANCH  20  21
ENDBRANCH   2  15
TORSDOF 4
ENDMDL
