MODEL 1
REMARK VINA RESULT:      -8.3      0.000      0.000
REMARK  Name = 
REMARK  5 active torsions:
REMARK  status: ('A' for Active; 'I' for Inactive)
REMARK    1  A    between atoms: C_2  and  C_14
REMARK    2  A    between atoms: N_3  and  C_4
REMARK    3  A    between atoms: C_9  and  C_10
REMARK    4  A    between atoms: C_16  and  C_17
REMARK    5  A    between atoms: N_20  and  C_21
REMARK                            x       y       z     vdW  Elec       q    Type
REMARK                         _______ _______ _______ _____ _____    ______ ____
ROOT
ATOM      1  O   UNL     1       2.024  10.045  17.456  0.00  0.00    +0.000 OA
ATOM      2  C   UNL     1       1.871   9.119  18.245  0.00  0.00    +0.000 C 
ATOM      3  N   UNL     1       1.125   9.186  19.432  0.00  0.00    +0.000 N 
ATOM      4  H   UNL     1       1.206   8.358  20.024  0.00  0.00    +0.000 HD
ENDROOT
BRANCH   3   5
ATOM      5  C   UNL     1       0.404  10.306  19.937  0.00  0.00    +0.000 A 
ATOM      6  C   UNL     1       0.278  11.495  19.198  0.00  0.00    +0.000 A 
ATOM      7  C   UNL     1      -0.429  12.601  19.686  0.00  0.00    +0.000 A 
ATOM      8  C   UNL     1      -1.038  12.547  20.931  0.00  0.00    +0.000 A 
ATOM      9  C   UNL     1      -0.931  11.384  21.683  0.00  0.00    +0.000 A 
ATOM     10  C   UNL     1      -0.208  10.261  21.210  0.00  0.00    +0.000 A 
BRANCH  10  11
ATOM     11  C   UNL     1      -0.101   9.096  22.160  0.00  0.00    +0.000 C 
ATOM     12  F   UNL     1      -0.589   9.341  23.408  0.00  0.00    +0.000 F 
ATOM     13  F   UNL     1      -0.772   7.998  21.709  0.00  0.00    +0.000 F 
ATOM     14  F   UNL     1       1.188   8.691  22.342  0.00  0.00    +0.000 F 
ENDBRANCH  10  11
ENDBRANCH   3   5
BRANCH   2  15
ATOM     15  C   UNL     1       2.534   7.798  18.040  0.00  0.00    +0.000 A 
ATOM     16  N   UNL     1       1.906   6.582  18.275  0.00  0.00    +0.000 NA
ATOM     17  C   UNL     1       2.857   5.703  18.027  0.00  0.00    +0.000 A 
ATOM     18  N   UNL     1       3.983   6.346  17.538  0.00  0.00    +0.000 N 
ATOM     19  N   UNL     1       3.819   7.681  17.649  0.00  0.00    +0.000 NA
BRANCH  18  20
ATOM     20  C   UNL     1       5.149   5.747  16.986  0.00  0.00    +0.000 A 
ATOM     21  C   UNL     1       5.219   5.475  15.609  0.00  0.00    +0.000 A 
ATOM     22  C   UNL     1       6.284   4.759  15.069  0.00  0.00    +0.000 A 
ATOM     23  C   UNL     1       7.313   4.335  15.898  0.00  0.00    +0.000 A 
ATOM     24  C   UNL     1       7.292   4.672  17.256  0.00  0.00    +0.000 A 
ATOM     25  C   UNL     1       6.224   5.393  17.802  0.00  0.00    +0.000 A 
ENDBRANCH  18  20
BRANCH  17  26
ATOM     26  C   UNL     1       2.788   4.224  18.393  0.00  0.00    +0.000 C 
ATOM     27  C   UNL     1       2.544   3.224  17.291  0.00  0.00    +0.000 C 
ATOM     28  C   UNL     1       1.500   3.453  18.340  0.00  0.00    +0.000 C 
ENDBRANCH  17  26
ENDBRANCH   2  15
TORSDOF 5
ENDMDL
MODEL 2
REMARK VINA RESULT:      -8.3      0.154      1.194
REMARK  Name = 
REMARK  5 active torsions:
REMARK  status: ('A' for Active; 'I' for Inactive)
REMARK    1  A    between atoms: C_2  and  C_14
REMARK    2  A    between atoms: N_3  and  C_4
REMARK    3  A    between atoms: C_9  and  C_10
REMARK    4  A    between atoms: C_16  and  C_17
REMARK    5  A    between atoms: N_20  and  C_21
REMARK                            x       y       z     vdW  Elec       q    Type
REMARK                         _______ _______ _______ _____ _____    ______ ____
ROOT
ATOM      1  O   UNL     1       2.230  10.006  17.529  0.00  0.00    +0.000 OA
ATOM      2  C   UNL     1       1.935   9.057  18.246  0.00  0.00    +0.000 C 
ATOM      3  N   UNL     1       1.060   9.114  19.341  0.00  0.00    +0.000 N 
ATOM      4  H   UNL     1       1.026   8.258  19.895  0.00  0.00    +0.000 HD
ENDROOT
BRANCH   3   5
ATOM      5  C   UNL     1       0.346  10.252  19.816  0.00  0.00    +0.000 A 
ATOM      6  C   UNL     1       0.203  11.412  19.035  0.00  0.00    +0.000 A 
ATOM      7  C   UNL     1      -0.498  12.534  19.493  0.00  0.00    +0.000 A 
ATOM      8  C   UNL     1      -1.083  12.527  20.751  0.00  0.00    +0.000 A 
ATOM      9  C   UNL     1      -0.959  11.394  21.545  0.00  0.00    +0.000 A 
ATOM     10  C   UNL     1      -0.242  10.255  21.102  0.00  0.00    +0.000 A 
BRANCH  10  11
ATOM     11  C   UNL     1      -0.113   9.127  22.094  0.00  0.00    +0.000 C 
ATOM     12  F   UNL     1      -0.707   7.965  21.704  0.00  0.00    +0.000 F 
ATOM     13  F   UNL     1       1.188   8.811  22.351  0.00  0.00    +0.000 F 
ATOM     14  F   UNL     1      -0.663   9.435  23.303  0.00  0.00    +0.000 F 
ENDBRANCH  10  11
ENDBRANCH   3   5
BRANCH   2  15
ATOM     15  C   UNL     1       2.546   7.709  18.051  0.00  0.00    +0.000 A 
ATOM     16  N   UNL     1       1.880   6.520  18.322  0.00  0.00    +0.000 NA
ATOM     17  C   UNL     1       2.793   5.604  18.070  0.00  0.00    +0.000 A 
ATOM     18  N   UNL     1       3.930   6.197  17.545  0.00  0.00    +0.000 N 
ATOM     19  N   UNL     1       3.817   7.538  17.635  0.00  0.00    +0.000 NA
BRANCH  18  20
ATOM     20  C   UNL     1       5.062   5.545  16.979  0.00  0.00    +0.000 A 
ATOM     21  C   UNL     1       6.142   5.172  17.795  0.00  0.00    +0.000 A 
ATOM     22  C   UNL     1       7.319   4.668  17.246  0.00  0.00    +0.000 A 
ATOM     23  C   UNL     1       7.415   4.497  15.873  0.00  0.00    +0.000 A 
ATOM     24  C   UNL     1       6.313   4.789  15.060  0.00  0.00    +0.000 A 
ATOM     25  C   UNL     1       5.129   5.295  15.608  0.00  0.00    +0.000 A 
ENDBRANCH  18  20
BRANCH  17  26
ATOM     26  C   UNL     1       2.679   4.135  18.465  0.00  0.00    +0.000 C 
ATOM     27  C   UNL     1       2.424   3.119  17.379  0.00  0.00    +0.000 C 
ATOM     28  C   UNL     1       1.372   3.397  18.408  0.00  0.00    +0.000 C 
ENDBRANCH  17  26
ENDBRANCH   2  15
TORSDOF 5
ENDMDL
MODEL 3
REMARK VINA RESULT:      -8.2      2.765      7.868
REMARK  Name = 
REMARK  5 active torsions:
REMARK  status: ('A' for Active; 'I' for Inactive)
REMARK    1  A    between atoms: C_2  and  C_14
REMARK    2  A    between atoms: N_3  and  C_4
REMARK    3  A    between atoms: C_9  and  C_10
REMARK    4  A    between atoms: C_16  and  C_17
REMARK    5  A    between atoms: N_20  and  C_21
REMARK                            x       y       z     vdW  Elec       q    Type
REMARK                         _______ _______ _______ _____ _____    ______ ____
ROOT
ATOM      1  O   UNL     1       3.445   5.899  20.174  0.00  0.00    +0.000 OA
ATOM      2  C   UNL     1       2.952   6.659  19.349  0.00  0.00    +0.000 C 
ATOM      3  N   UNL     1       3.233   6.650  17.974  0.00  0.00    +0.000 N 
ATOM      4  H   UNL     1       2.825   7.431  17.458  0.00  0.00    +0.000 HD
ENDROOT
BRANCH   3   5
ATOM      5  C   UNL     1       4.112   5.770  17.279  0.00  0.00    +0.000 A 
ATOM      6  C   UNL     1       5.324   6.221  16.728  0.00  0.00    +0.000 A 
ATOM      7  C   UNL     1       6.193   5.364  16.043  0.00  0.00    +0.000 A 
ATOM      8  C   UNL     1       5.877   4.021  15.893  0.00  0.00    +0.000 A 
ATOM      9  C   UNL     1       4.685   3.546  16.429  0.00  0.00    +0.000 A 
ATOM     10  C   UNL     1       3.788   4.404  17.112  0.00  0.00    +0.000 A 
BRANCH  10  11
ATOM     11  C   UNL     1       2.495   3.778  17.569  0.00  0.00    +0.000 C 
ATOM     12  F   UNL     1       2.408   3.588  18.915  0.00  0.00    +0.000 F 
ATOM     13  F   UNL     1       1.409   4.530  17.231  0.00  0.00    +0.000 F 
ATOM     14  F   UNL     1       2.285   2.554  17.009  0.00  0.00    +0.000 F 
ENDBRANCH  10  11
ENDBRANCH   3   5
BRANCH   2  15
ATOM     15  C   UNL     1       2.012   7.747  19.749  0.00  0.00    +0.000 A 
ATOM     16  N   UNL     1       1.430   7.830  21.008  0.00  0.00    +0.000 NA
ATOM     17  C   UNL     1       0.646   8.885  20.904  0.00  0.00    +0.000 A 
ATOM     18  N   UNL     1       0.834   9.498  19.675  0.00  0.00    +0.000 N 
ATOM     19  N   UNL     1       1.616   8.718  18.901  0.00  0.00    +0.000 NA
BRANCH  18  20
ATOM     20  C   UNL     1       0.319  10.754  19.248  0.00  0.00    +0.000 A 
ATOM     21  C   UNL     1      -0.960  10.832  18.673  0.00  0.00    +0.000 A 
ATOM     22  C   UNL     1      -1.428  12.019  18.115  0.00  0.00    +0.000 A 
ATOM     23  C   UNL     1      -0.632  13.155  18.158  0.00  0.00    +0.000 A 
ATOM     24  C   UNL     1       0.610  13.107  18.803  0.00  0.00    +0.000 A 
ATOM     25  C   UNL     1       1.082  11.916  19.366  0.00  0.00    +0.000 A 
ENDBRANCH  18  20
BRANCH  17  26
ATOM     26  C   UNL     1      -0.433   9.267  21.912  0.00  0.00    +0.000 C 
ATOM     27  C   UNL     1      -0.354  10.623  22.567  0.00  0.00    +0.000 C 
ATOM     28  C   UNL     1      -0.140   9.384  23.381  0.00  0.00    +0.000 C 
ENDBRANCH  17  26
ENDBRANCH   2  15
TORSDOF 5
ENDMDL
MODEL 4
REMARK VINA RESULT:      -8.1      0.904      2.882
REMARK  Name = 
REMARK  5 active torsions:
REMARK  status: ('A' for Active; 'I' for Inactive)
REMARK    1  A    between atoms: C_2  and  C_14
REMARK    2  A    between atoms: N_3  and  C_4
REMARK    3  A    between atoms: C_9  and  C_10
REMARK    4  A    between atoms: C_16  and  C_17
REMARK    5  A    between atoms: N_20  and  C_21
REMARK                            x       y       z     vdW  Elec       q    Type
REMARK                         _______ _______ _______ _____ _____    ______ ____
ROOT
ATOM      1  O   UNL     1       2.338  10.068  17.421  0.00  0.00    +0.000 OA
ATOM      2  C   UNL     1       2.093   9.093  18.123  0.00  0.00    +0.000 C 
ATOM      3  N   UNL     1       1.181   9.074  19.189  0.00  0.00    +0.000 N 
ATOM      4  H   UNL     1       1.194   8.212  19.736  0.00  0.00    +0.000 HD
ENDROOT
BRANCH   3   5
ATOM      5  C   UNL     1       0.367  10.150  19.647  0.00  0.00    +0.000 A 
ATOM      6  C   UNL     1       0.084  11.259  18.831  0.00  0.00    +0.000 A 
ATOM      7  C   UNL     1      -0.715  12.321  19.273  0.00  0.00    +0.000 A 
ATOM      8  C   UNL     1      -1.261  12.301  20.547  0.00  0.00    +0.000 A 
ATOM      9  C   UNL     1      -1.000  11.217  21.376  0.00  0.00    +0.000 A 
ATOM     10  C   UNL     1      -0.182  10.141  20.949  0.00  0.00    +0.000 A 
BRANCH  10  11
ATOM     11  C   UNL     1       0.088   9.070  21.975  0.00  0.00    +0.000 C 
ATOM     12  F   UNL     1      -0.344   7.828  21.618  0.00  0.00    +0.000 F 
ATOM     13  F   UNL     1       1.418   8.935  22.244  0.00  0.00    +0.000 F 
ATOM     14  F   UNL     1      -0.504   9.337  23.173  0.00  0.00    +0.000 F 
ENDBRANCH  10  11
ENDBRANCH   3   5
BRANCH   2  15
ATOM     15  C   UNL     1       2.811   7.797  17.940  0.00  0.00    +0.000 A 
ATOM     16  N   UNL     1       4.095   7.700  17.419  0.00  0.00    +0.000 NA
ATOM     17  C   UNL     1       4.304   6.398  17.383  0.00  0.00    +0.000 A 
ATOM     18  N   UNL     1       3.244   5.730  17.975  0.00  0.00    +0.000 N 
ATOM     19  N   UNL     1       2.249   6.605  18.229  0.00  0.00    +0.000 NA
BRANCH  18  20
ATOM     20  C   UNL     1       3.166   4.346  18.295  0.00  0.00    +0.000 A 
ATOM     21  C   UNL     1       3.994   3.805  19.293  0.00  0.00    +0.000 A 
ATOM     22  C   UNL     1       4.042   2.433  19.523  0.00  0.00    +0.000 A 
ATOM     23  C   UNL     1       3.232   1.586  18.780  0.00  0.00    +0.000 A 
ATOM     24  C   UNL     1       2.343   2.124  17.842  0.00  0.00    +0.000 A 
ATOM     25  C   UNL     1       2.292   3.503  17.608  0.00  0.00    +0.000 A 
ENDBRANCH  18  20
BRANCH  17  26
ATOM     26  C   UNL     1       5.453   5.725  16.641  0.00  0.00    +0.000 C 
ATOM     27  C   UNL     1       5.470   5.789  15.134  0.00  0.00    +0.000 C 
ATOM     28  C   UNL     1       5.251   4.479  15.826  0.00  0.00    +0.000 C 
ENDBRANCH  17  26
ENDBRANCH   2  15
TORSDOF 5
ENDMDL
MODEL 5
REMARK VINA RESULT:      -8.1      2.050      2.526
REMARK  Name = 
REMARK  5 active torsions:
REMARK  status: ('A' for Active; 'I' for Inactive)
REMARK    1  A    between atoms: C_2  and  C_14
REMARK    2  A    between atoms: N_3  and  C_4
REMARK    3  A    between atoms: C_9  and  C_10
REMARK    4  A    between atoms: C_16  and  C_17
REMARK    5  A    between atoms: N_20  and  C_21
REMARK                            x       y       z     vdW  Elec       q    Type
REMARK                         _______ _______ _______ _____ _____    ______ ____
ROOT
ATOM      1  O   UNL     1       2.322  10.468  17.585  0.00  0.00    +0.000 OA
ATOM      2  C   UNL     1       1.838   9.463  18.094  0.00  0.00    +0.000 C 
ATOM      3  N   UNL     1       0.684   9.438  18.891  0.00  0.00    +0.000 N 
ATOM      4  H   UNL     1       0.496   8.535  19.328  0.00  0.00    +0.000 HD
ENDROOT
BRANCH   3   5
ATOM      5  C   UNL     1      -0.144  10.542  19.246  0.00  0.00    +0.000 A 
ATOM      6  C   UNL     1       0.151  11.358  20.352  0.00  0.00    +0.000 A 
ATOM      7  C   UNL     1      -0.657  12.446  20.709  0.00  0.00    +0.000 A 
ATOM      8  C   UNL     1      -1.784  12.753  19.962  0.00  0.00    +0.000 A 
ATOM      9  C   UNL     1      -2.099  11.965  18.861  0.00  0.00    +0.000 A 
ATOM     10  C   UNL     1      -1.301  10.853  18.496  0.00  0.00    +0.000 A 
BRANCH  10  11
ATOM     11  C   UNL     1      -1.801  10.035  17.333  0.00  0.00    +0.000 C 
ATOM     12  F   UNL     1      -2.157  10.767  16.241  0.00  0.00    +0.000 F 
ATOM     13  F   UNL     1      -0.871   9.141  16.892  0.00  0.00    +0.000 F 
ATOM     14  F   UNL     1      -2.899   9.294  17.654  0.00  0.00    +0.000 F 
ENDBRANCH  10  11
ENDBRANCH   3   5
BRANCH   2  15
ATOM     15  C   UNL     1       2.487   8.126  17.956  0.00  0.00    +0.000 A 
ATOM     16  N   UNL     1       1.841   6.929  18.241  0.00  0.00    +0.000 NA
ATOM     17  C   UNL     1       2.783   6.028  18.043  0.00  0.00    +0.000 A 
ATOM     18  N   UNL     1       3.922   6.635  17.536  0.00  0.00    +0.000 N 
ATOM     19  N   UNL     1       3.774   7.975  17.584  0.00  0.00    +0.000 NA
BRANCH  18  20
ATOM     20  C   UNL     1       5.086   5.996  17.024  0.00  0.00    +0.000 A 
ATOM     21  C   UNL     1       5.162   5.654  15.663  0.00  0.00    +0.000 A 
ATOM     22  C   UNL     1       6.224   4.900  15.169  0.00  0.00    +0.000 A 
ATOM     23  C   UNL     1       7.243   4.510  16.026  0.00  0.00    +0.000 A 
ATOM     24  C   UNL     1       7.216   4.916  17.365  0.00  0.00    +0.000 A 
ATOM     25  C   UNL     1       6.151   5.674  17.865  0.00  0.00    +0.000 A 
ENDBRANCH  18  20
BRANCH  17  26
ATOM     26  C   UNL     1       2.692   4.569  18.475  0.00  0.00    +0.000 C 
ATOM     27  C   UNL     1       2.413   3.526  17.422  0.00  0.00    +0.000 C 
ATOM     28  C   UNL     1       1.389   3.821  18.475  0.00  0.00    +0.000 C 
ENDBRANCH  17  26
ENDBRANCH   2  15
TORSDOF 5
ENDMDL
MODEL 6
REMARK VINA RESULT:      -8.1      0.960      1.462
REMARK  Name = 
REMARK  5 active torsions:
REMARK  status: ('A' for Active; 'I' for Inactive)
REMARK    1  A    between atoms: C_2  and  C_14
REMARK    2  A    between atoms: N_3  and  C_4
REMARK    3  A    between atoms: C_9  and  C_10
REMARK    4  A    between atoms: C_16  and  C_17
REMARK    5  A    between atoms: N_20  and  C_21
REMARK                            x       y       z     vdW  Elec       q    Type
REMARK                         _______ _______ _______ _____ _____    ______ ____
ROOT
ATOM      1  O   UNL     1       1.797   9.808  17.546  0.00  0.00    +0.000 OA
ATOM      2  C   UNL     1       1.711   9.046  18.502  0.00  0.00    +0.000 C 
ATOM      3  N   UNL     1       0.961   9.289  19.663  0.00  0.00    +0.000 N 
ATOM      4  H   UNL     1       1.101   8.601  20.404  0.00  0.00    +0.000 HD
ENDROOT
BRANCH   3   5
ATOM      5  C   UNL     1       0.159  10.431  19.948  0.00  0.00    +0.000 A 
ATOM      6  C   UNL     1      -0.036  11.451  19.000  0.00  0.00    +0.000 A 
ATOM      7  C   UNL     1      -0.823  12.577  19.272  0.00  0.00    +0.000 A 
ATOM      8  C   UNL     1      -1.446  12.714  20.504  0.00  0.00    +0.000 A 
ATOM      9  C   UNL     1      -1.273  11.720  21.460  0.00  0.00    +0.000 A 
ATOM     10  C   UNL     1      -0.468  10.582  21.206  0.00  0.00    +0.000 A 
BRANCH  10  11
ATOM     11  C   UNL     1      -0.297   9.624  22.357  0.00  0.00    +0.000 C 
ATOM     12  F   UNL     1       0.996   9.418  22.731  0.00  0.00    +0.000 F 
ATOM     13  F   UNL     1      -0.945  10.044  23.481  0.00  0.00    +0.000 F 
ATOM     14  F   UNL     1      -0.802   8.388  22.083  0.00  0.00    +0.000 F 
ENDBRANCH  10  11
ENDBRANCH   3   5
BRANCH   2  15
ATOM     15  C   UNL     1       2.470   7.762  18.550  0.00  0.00    +0.000 A 
ATOM     16  N   UNL     1       2.136   6.707  19.391  0.00  0.00    +0.000 NA
ATOM     17  C   UNL     1       3.085   5.824  19.150  0.00  0.00    +0.000 A 
ATOM     18  N   UNL     1       3.894   6.265  18.115  0.00  0.00    +0.000 N 
ATOM     19  N   UNL     1       3.574   7.539  17.808  0.00  0.00    +0.000 NA
BRANCH  18  20
ATOM     20  C   UNL     1       4.909   5.532  17.439  0.00  0.00    +0.000 A 
ATOM     21  C   UNL     1       6.260   5.881  17.603  0.00  0.00    +0.000 A 
ATOM     22  C   UNL     1       7.257   5.276  16.842  0.00  0.00    +0.000 A 
ATOM     23  C   UNL     1       6.918   4.286  15.931  0.00  0.00    +0.000 A 
ATOM     24  C   UNL     1       5.584   3.874  15.820  0.00  0.00    +0.000 A 
ATOM     25  C   UNL     1       4.579   4.479  16.584  0.00  0.00    +0.000 A 
ENDBRANCH  18  20
BRANCH  17  26
ATOM     26  C   UNL     1       3.357   4.589  20.002  0.00  0.00    +0.000 C 
ATOM     27  C   UNL     1       2.570   3.334  19.717  0.00  0.00    +0.000 C 
ATOM     28  C   UNL     1       2.356   4.077  21.000  0.00  0.00    +0.000 C 
ENDBRANCH  17  26
ENDBRANCH   2  15
TORSDOF 5
ENDMDL
MODEL 7
REMARK VINA RESULT:      -8.1      2.873      7.744
REMARK  Name = 
REMARK  5 active torsions:
REMARK  status: ('A' for Active; 'I' for Inactive)
REMARK    1  A    between atoms: C_2  and  C_14
REMARK    2  A    between atoms: N_3  and  C_4
REMARK    3  A    between atoms: C_9  and  C_10
REMARK    4  A    between atoms: C_16  and  C_17
REMARK    5  A    between atoms: N_20  and  C_21
REMARK                            x       y       z     vdW  Elec       q    Type
REMARK                         _______ _______ _______ _____ _____    ______ ____
ROOT
ATOM      1  O   UNL     1       3.922   6.826  18.656  0.00  0.00    +0.000 OA
ATOM      2  C   UNL     1       2.783   6.684  19.086  0.00  0.00    +0.000 C 
ATOM      3  N   UNL     1       2.109   5.458  19.193  0.00  0.00    +0.000 N 
ATOM      4  H   UNL     1       1.127   5.542  19.459  0.00  0.00    +0.000 HD
ENDROOT
BRANCH   3   5
ATOM      5  C   UNL     1       2.604   4.167  18.848  0.00  0.00    +0.000 A 
ATOM      6  C   UNL     1       3.064   3.877  17.551  0.00  0.00    +0.000 A 
ATOM      7  C   UNL     1       3.552   2.611  17.203  0.00  0.00    +0.000 A 
ATOM      8  C   UNL     1       3.601   1.597  18.147  0.00  0.00    +0.000 A 
ATOM      9  C   UNL     1       3.155   1.855  19.438  0.00  0.00    +0.000 A 
ATOM     10  C   UNL     1       2.645   3.126  19.803  0.00  0.00    +0.000 A 
BRANCH  10  11
ATOM     11  C   UNL     1       2.118   3.247  21.210  0.00  0.00    +0.000 C 
ATOM     12  F   UNL     1       0.759   3.287  21.300  0.00  0.00    +0.000 F 
ATOM     13  F   UNL     1       2.511   2.208  22.001  0.00  0.00    +0.000 F 
ATOM     14  F   UNL     1       2.562   4.374  21.835  0.00  0.00    +0.000 F 
ENDBRANCH  10  11
ENDBRANCH   3   5
BRANCH   2  15
ATOM     15  C   UNL     1       1.951   7.851  19.501  0.00  0.00    +0.000 A 
ATOM     16  N   UNL     1       1.355   7.960  20.751  0.00  0.00    +0.000 NA
ATOM     17  C   UNL     1       0.685   9.093  20.662  0.00  0.00    +0.000 A 
ATOM     18  N   UNL     1       0.960   9.715  19.455  0.00  0.00    +0.000 N 
ATOM     19  N   UNL     1       1.673   8.879  18.673  0.00  0.00    +0.000 NA
BRANCH  18  20
ATOM     20  C   UNL     1       0.583  11.027  19.054  0.00  0.00    +0.000 A 
ATOM     21  C   UNL     1       1.477  12.099  19.217  0.00  0.00    +0.000 A 
ATOM     22  C   UNL     1       1.081  13.411  18.970  0.00  0.00    +0.000 A 
ATOM     23  C   UNL     1      -0.207  13.664  18.520  0.00  0.00    +0.000 A 
ATOM     24  C   UNL     1      -1.078  12.595  18.277  0.00  0.00    +0.000 A 
ATOM     25  C   UNL     1      -0.683  11.275  18.523  0.00  0.00    +0.000 A 
ENDBRANCH  18  20
BRANCH  17  26
ATOM     26  C   UNL     1      -0.370   9.556  21.661  0.00  0.00    +0.000 C 
ATOM     27  C   UNL     1      -0.119  10.829  22.429  0.00  0.00    +0.000 C 
ATOM     28  C   UNL     1      -0.132   9.513  23.144  0.00  0.00    +0.000 C 
ENDBRANCH  17  26
ENDBRANCH   2  15
TORSDOF 5
ENDMDL
MODEL 8
REMARK VINA RESULT:      -8.0      1.010      1.265
REMARK  Name = 
REMARK  5 active torsions:
REMARK  status: ('A' for Active; 'I' for Inactive)
REMARK    1  A    between atoms: C_2  and  C_14
REMARK    2  A    between atoms: N_3  and  C_4
REMARK    3  A    between atoms: C_9  and  C_10
REMARK    4  A    between atoms: C_16  and  C_17
REMARK    5  A    between atoms: N_20  and  C_21
REMARK                            x       y       z     vdW  Elec       q    Type
REMARK                         _______ _______ _______ _____ _____    ______ ____
ROOT
ATOM      1  O   UNL     1       2.239  10.370  17.757  0.00  0.00    +0.000 OA
ATOM      2  C   UNL     1       1.705   9.320  18.096  0.00  0.00    +0.000 C 
ATOM      3  N   UNL     1       0.437   9.213  18.687  0.00  0.00    +0.000 N 
ATOM      4  H   UNL     1       0.204   8.274  19.013  0.00  0.00    +0.000 HD
ENDROOT
BRANCH   3   5
ATOM      5  C   UNL     1      -0.466  10.273  18.990  0.00  0.00    +0.000 A 
ATOM      6  C   UNL     1      -1.219  10.909  17.987  0.00  0.00    +0.000 A 
ATOM      7  C   UNL     1      -2.109  11.951  18.275  0.00  0.00    +0.000 A 
ATOM      8  C   UNL     1      -2.276  12.387  19.582  0.00  0.00    +0.000 A 
ATOM      9  C   UNL     1      -1.545  11.776  20.594  0.00  0.00    +0.000 A 
ATOM     10  C   UNL     1      -0.631  10.730  20.318  0.00  0.00    +0.000 A 
BRANCH  10  11
ATOM     11  C   UNL     1       0.158  10.213  21.494  0.00  0.00    +0.000 C 
ATOM     12  F   UNL     1       0.117   8.861  21.648  0.00  0.00    +0.000 F 
ATOM     13  F   UNL     1       1.479  10.537  21.413  0.00  0.00    +0.000 F 
ATOM     14  F   UNL     1      -0.277  10.732  22.677  0.00  0.00    +0.000 F 
ENDBRANCH  10  11
ENDBRANCH   3   5
BRANCH   2  15
ATOM     15  C   UNL     1       2.402   8.007  17.959  0.00  0.00    +0.000 A 
ATOM     16  N   UNL     1       1.785   6.785  18.198  0.00  0.00    +0.000 NA
ATOM     17  C   UNL     1       2.764   5.919  18.020  0.00  0.00    +0.000 A 
ATOM     18  N   UNL     1       3.899   6.571  17.565  0.00  0.00    +0.000 N 
ATOM     19  N   UNL     1       3.706   7.905  17.632  0.00  0.00    +0.000 NA
BRANCH  18  20
ATOM     20  C   UNL     1       5.101   5.980  17.085  0.00  0.00    +0.000 A 
ATOM     21  C   UNL     1       5.244   5.679  15.720  0.00  0.00    +0.000 A 
ATOM     22  C   UNL     1       6.346   4.970  15.250  0.00  0.00    +0.000 A 
ATOM     23  C   UNL     1       7.340   4.584  16.138  0.00  0.00    +0.000 A 
ATOM     24  C   UNL     1       7.246   4.951  17.486  0.00  0.00    +0.000 A 
ATOM     25  C   UNL     1       6.140   5.665  17.961  0.00  0.00    +0.000 A 
ENDBRANCH  18  20
BRANCH  17  26
ATOM     26  C   UNL     1       2.706   4.450  18.423  0.00  0.00    +0.000 C 
ATOM     27  C   UNL     1       2.528   3.416  17.339  0.00  0.00    +0.000 C 
ATOM     28  C   UNL     1       1.435   3.652  18.335  0.00  0.00    +0.000 C 
ENDBRANCH  17  26
ENDBRANCH   2  15
TORSDOF 5
ENDMDL
MODEL 9
REMARK VINA RESULT:      -8.0      2.460      3.089
REMARK  Name = 
REMARK  5 active torsions:
REMARK  status: ('A' for Active; 'I' for Inactive)
REMARK    1  A    between atoms: C_2  and  C_14
REMARK    2  A    between atoms: N_3  and  C_4
REMARK    3  A    between atoms: C_9  and  C_10
REMARK    4  A    between atoms: C_16  and  C_17
REMARK    5  A    between atoms: N_20  and  C_21
REMARK                            x       y       z     vdW  Elec       q    Type
REMARK                         _______ _______ _______ _____ _____    ______ ____
ROOT
ATOM      1  O   UNL     1       0.465   8.684  21.793  0.00  0.00    +0.000 OA
ATOM      2  C   UNL     1       1.077   8.538  20.741  0.00  0.00    +0.000 C 
ATOM      3  N   UNL     1       1.192   9.507  19.733  0.00  0.00    +0.000 N 
ATOM      4  H   UNL     1       1.635   9.171  18.877  0.00  0.00    +0.000 HD
ENDROOT
BRANCH   3   5
ATOM      5  C   UNL     1       0.649  10.825  19.737  0.00  0.00    +0.000 A 
ATOM      6  C   UNL     1       1.137  11.821  20.600  0.00  0.00    +0.000 A 
ATOM      7  C   UNL     1       0.610  13.118  20.611  0.00  0.00    +0.000 A 
ATOM      8  C   UNL     1      -0.423  13.460  19.749  0.00  0.00    +0.000 A 
ATOM      9  C   UNL     1      -0.925  12.496  18.884  0.00  0.00    +0.000 A 
ATOM     10  C   UNL     1      -0.412  11.175  18.870  0.00  0.00    +0.000 A 
BRANCH  10  11
ATOM     11  C   UNL     1      -1.102  10.208  17.943  0.00  0.00    +0.000 C 
ATOM     12  F   UNL     1      -2.023   9.407  18.548  0.00  0.00    +0.000 F 
ATOM     13  F   UNL     1      -1.768  10.842  16.936  0.00  0.00    +0.000 F 
ATOM     14  F   UNL     1      -0.226   9.363  17.329  0.00  0.00    +0.000 F 
ENDBRANCH  10  11
ENDBRANCH   3   5
BRANCH   2  15
ATOM     15  C   UNL     1       1.737   7.246  20.392  0.00  0.00    +0.000 A 
ATOM     16  N   UNL     1       1.329   6.017  20.897  0.00  0.00    +0.000 NA
ATOM     17  C   UNL     1       2.208   5.179  20.383  0.00  0.00    +0.000 A 
ATOM     18  N   UNL     1       3.041   5.845  19.499  0.00  0.00    +0.000 N 
ATOM     19  N   UNL     1       2.816   7.173  19.587  0.00  0.00    +0.000 NA
BRANCH  18  20
ATOM     20  C   UNL     1       3.994   5.272  18.611  0.00  0.00    +0.000 A 
ATOM     21  C   UNL     1       5.364   5.329  18.914  0.00  0.00    +0.000 A 
ATOM     22  C   UNL     1       6.323   4.908  17.996  0.00  0.00    +0.000 A 
ATOM     23  C   UNL     1       5.919   4.390  16.774  0.00  0.00    +0.000 A 
ATOM     24  C   UNL     1       4.553   4.254  16.497  0.00  0.00    +0.000 A 
ATOM     25  C   UNL     1       3.587   4.675  17.418  0.00  0.00    +0.000 A 
ENDBRANCH  18  20
BRANCH  17  26
ATOM     26  C   UNL     1       2.390   3.732  20.831  0.00  0.00    +0.000 C 
ATOM     27  C   UNL     1       1.614   2.657  20.113  0.00  0.00    +0.000 C 
ATOM     28  C   UNL     1       1.302   2.978  21.542  0.00  0.00    +0.000 C 
ENDBRANCH  17  26
ENDBRANCH   2  15
TORSDOF 5
ENDMDL
