MODEL 1
REMARK VINA RESULT:      -8.4      0.000      0.000
REMARK  Name = 
REMARK  5 active torsions:
REMARK  status: ('A' for Active; 'I' for Inactive)
REMARK    1  A    between atoms: C_1  and  C_2
REMARK    2  A    between atoms: C_5  and  S_6
REMARK    3  A    between atoms: S_6  and  N_9
REMARK    4  A    between atoms: N_9  and  C_10
REMARK    5  A    between atoms: C_10  and  C_11
REMARK                            x       y       z     vdW  Elec       q    Type
REMARK                         _______ _______ _______ _____ _____    ______ ____
ROOT
ATOM      1  N   UNL     1       4.213   3.134  18.061  0.00  0.00    +0.000 NA
ATOM      2  H   UNL     1       4.843   2.454  18.490  0.00  0.00    +0.000 HD
ENDROOT
BRANCH   1   3
ATOM      3  S   UNL     1       2.631   2.990  18.656  0.00  0.00    +0.000 S 
ATOM      4  O   UNL     1       2.672   2.127  19.818  0.00  0.00    +0.000 OA
ATOM      5  O   UNL     1       1.757   2.705  17.542  0.00  0.00    +0.000 OA
BRANCH   3  10
ATOM      6  C   UNL     1       1.571   8.518  20.897  0.00  0.00    +0.000 C 
ATOM      7  C   UNL     1       1.787   7.168  20.276  0.00  0.00    +0.000 A 
ATOM      8  C   UNL     1       2.525   7.019  19.090  0.00  0.00    +0.000 A 
ATOM      9  C   UNL     1       2.766   5.749  18.559  0.00  0.00    +0.000 A 
ATOM     10  C   UNL     1       2.258   4.621  19.212  0.00  0.00    +0.000 A 
ATOM     11  C   UNL     1       1.507   4.766  20.368  0.00  0.00    +0.000 A 
ATOM     12  F   UNL     1       0.975   3.701  20.983  0.00  0.00    +0.000 F 
ATOM     13  C   UNL     1       1.269   6.030  20.900  0.00  0.00    +0.000 A 
ENDBRANCH   3  10
ENDBRANCH   1   3
BRANCH   1  14
ATOM     14  C   UNL     1       4.323   3.218  16.597  0.00  0.00    +0.000 C 
BRANCH  14  15
ATOM     15  C   UNL     1       5.421   4.170  16.192  0.00  0.00    +0.000 A 
ATOM     16  C   UNL     1       5.993   4.977  17.106  0.00  0.00    +0.000 A 
ATOM     17  C   UNL     1       7.135   5.865  16.793  0.00  0.00    +0.000 A 
ATOM     18  O   UNL     1       7.631   6.575  17.661  0.00  0.00    +0.000 OA
ATOM     19  N   UNL     1       7.595   5.841  15.511  0.00  0.00    +0.000 N 
ATOM     20  C   UNL     1       7.047   5.032  14.510  0.00  0.00    +0.000 A 
ATOM     21  C   UNL     1       7.588   5.098  13.221  0.00  0.00    +0.000 A 
ATOM     22  C   UNL     1       7.054   4.308  12.207  0.00  0.00    +0.000 A 
ATOM     23  C   UNL     1       5.996   3.446  12.486  0.00  0.00    +0.000 A 
ATOM     24  C   UNL     1       5.464   3.375  13.778  0.00  0.00    +0.000 A 
ATOM     25  C   UNL     1       5.969   4.176  14.811  0.00  0.00    +0.000 A 
ATOM     26  H   UNL     1       8.378   6.448  15.307  0.00  0.00    +0.000 HD
ENDBRANCH  14  15
ENDBRANCH   1  14
TORSDOF 4
ENDMDL
MODEL 2
REMARK VINA RESULT:      -8.4      1.920      2.536
REMARK  Name = 
REMARK  5 active torsions:
REMARK  status: ('A' for Active; 'I' for Inactive)
REMARK    1  A    between atoms: C_1  and  C_2
REMARK    2  A    between atoms: C_5  and  S_6
REMARK    3  A    between atoms: S_6  and  N_9
REMARK    4  A    between atoms: N_9  and  C_10
REMARK    5  A    between atoms: C_10  and  C_11
REMARK                            x       y       z     vdW  Elec       q    Type
REMARK                         _______ _______ _______ _____ _____    ______ ____
ROOT
ATOM      1  N   UNL     1       4.359   4.932  20.109  0.00  0.00    +0.000 NA
ATOM      2  H   UNL     1       4.697   4.783  21.061  0.00  0.00    +0.000 HD
ENDROOT
BRANCH   1   3
ATOM      3  S   UNL     1       2.664   4.919  20.034  0.00  0.00    +0.000 S 
ATOM      4  O   UNL     1       2.165   4.598  21.355  0.00  0.00    +0.000 OA
ATOM      5  O   UNL     1       2.273   4.149  18.877  0.00  0.00    +0.000 OA
BRANCH   3  10
ATOM      6  C   UNL     1       1.018  10.576  18.619  0.00  0.00    +0.000 C 
ATOM      7  C   UNL     1       1.480   9.205  19.025  0.00  0.00    +0.000 A 
ATOM      8  C   UNL     1       1.220   8.697  20.308  0.00  0.00    +0.000 A 
ATOM      9  C   UNL     1       1.605   7.398  20.648  0.00  0.00    +0.000 A 
ATOM     10  C   UNL     1       2.262   6.604  19.703  0.00  0.00    +0.000 A 
ATOM     11  C   UNL     1       2.545   7.111  18.443  0.00  0.00    +0.000 A 
ATOM     12  F   UNL     1       3.212   6.382  17.540  0.00  0.00    +0.000 F 
ATOM     13  C   UNL     1       2.159   8.404  18.103  0.00  0.00    +0.000 A 
ENDBRANCH   3  10
ENDBRANCH   1   3
BRANCH   1  14
ATOM     14  C   UNL     1       5.034   4.108  19.095  0.00  0.00    +0.000 C 
BRANCH  14  15
ATOM     15  C   UNL     1       5.914   4.957  18.209  0.00  0.00    +0.000 A 
ATOM     16  C   UNL     1       6.671   5.936  18.741  0.00  0.00    +0.000 A 
ATOM     17  C   UNL     1       7.623   6.740  17.941  0.00  0.00    +0.000 A 
ATOM     18  O   UNL     1       8.301   7.613  18.471  0.00  0.00    +0.000 OA
ATOM     19  N   UNL     1       7.704   6.450  16.613  0.00  0.00    +0.000 N 
ATOM     20  C   UNL     1       6.945   5.450  15.994  0.00  0.00    +0.000 A 
ATOM     21  C   UNL     1       7.096   5.248  14.618  0.00  0.00    +0.000 A 
ATOM     22  C   UNL     1       6.346   4.264  13.979  0.00  0.00    +0.000 A 
ATOM     23  C   UNL     1       5.463   3.480  14.716  0.00  0.00    +0.000 A 
ATOM     24  C   UNL     1       5.322   3.678  16.093  0.00  0.00    +0.000 A 
ATOM     25  C   UNL     1       6.049   4.676  16.756  0.00  0.00    +0.000 A 
ATOM     26  H   UNL     1       8.360   7.001  16.076  0.00  0.00    +0.000 HD
ENDBRANCH  14  15
ENDBRANCH   1  14
TORSDOF 4
ENDMDL
MODEL 3
REMARK VINA RESULT:      -8.3      1.068      1.448
REMARK  Name = 
REMARK  5 active torsions:
REMARK  status: ('A' for Active; 'I' for Inactive)
REMARK    1  A    between atoms: C_1  and  C_2
REMARK    2  A    between atoms: C_5  and  S_6
REMARK    3  A    between atoms: S_6  and  N_9
REMARK    4  A    between atoms: N_9  and  C_10
REMARK    5  A    between atoms: C_10  and  C_11
REMARK                            x       y       z     vdW  Elec       q    Type
REMARK                         _______ _______ _______ _____ _____    ______ ____
ROOT
ATOM      1  N   UNL     1       3.926   3.463  17.995  0.00  0.00    +0.000 NA
ATOM      2  H   UNL     1       4.434   2.796  18.578  0.00  0.00    +0.000 HD
ENDROOT
BRANCH   1   3
ATOM      3  S   UNL     1       2.276   3.512  18.388  0.00  0.00    +0.000 S 
ATOM      4  O   UNL     1       2.014   2.447  19.334  0.00  0.00    +0.000 OA
ATOM      5  O   UNL     1       1.525   3.625  17.160  0.00  0.00    +0.000 OA
BRANCH   3  10
ATOM      6  C   UNL     1       1.427   8.879  21.067  0.00  0.00    +0.000 C 
ATOM      7  C   UNL     1       1.696   7.532  20.460  0.00  0.00    +0.000 A 
ATOM      8  C   UNL     1       1.383   6.347  21.145  0.00  0.00    +0.000 A 
ATOM      9  C   UNL     1       1.585   5.103  20.540  0.00  0.00    +0.000 A 
ATOM     10  C   UNL     1       2.112   5.044  19.247  0.00  0.00    +0.000 A 
ATOM     11  C   UNL     1       2.447   6.211  18.577  0.00  0.00    +0.000 A 
ATOM     12  F   UNL     1       2.994   6.172  17.355  0.00  0.00    +0.000 F 
ATOM     13  C   UNL     1       2.244   7.450  19.177  0.00  0.00    +0.000 A 
ENDBRANCH   3  10
ENDBRANCH   1   3
BRANCH   1  14
ATOM     14  C   UNL     1       4.220   3.353  16.558  0.00  0.00    +0.000 C 
BRANCH  14  15
ATOM     15  C   UNL     1       5.359   4.265  16.170  0.00  0.00    +0.000 A 
ATOM     16  C   UNL     1       5.933   5.065  17.089  0.00  0.00    +0.000 A 
ATOM     17  C   UNL     1       7.111   5.912  16.794  0.00  0.00    +0.000 A 
ATOM     18  O   UNL     1       7.607   6.616  17.666  0.00  0.00    +0.000 OA
ATOM     19  N   UNL     1       7.603   5.855  15.526  0.00  0.00    +0.000 N 
ATOM     20  C   UNL     1       7.054   5.051  14.521  0.00  0.00    +0.000 A 
ATOM     21  C   UNL     1       7.631   5.083  13.246  0.00  0.00    +0.000 A 
ATOM     22  C   UNL     1       7.097   4.297  12.228  0.00  0.00    +0.000 A 
ATOM     23  C   UNL     1       6.005   3.474  12.490  0.00  0.00    +0.000 A 
ATOM     24  C   UNL     1       5.438   3.436  13.768  0.00  0.00    +0.000 A 
ATOM     25  C   UNL     1       5.942   4.235  14.804  0.00  0.00    +0.000 A 
ATOM     26  H   UNL     1       8.410   6.434  15.334  0.00  0.00    +0.000 HD
ENDBRANCH  14  15
ENDBRANCH   1  14
TORSDOF 4
ENDMDL
MODEL 4
REMARK VINA RESULT:      -8.2      3.149      6.381
REMARK  Name = 
REMARK  5 active torsions:
REMARK  status: ('A' for Active; 'I' for Inactive)
REMARK    1  A    between atoms: C_1  and  C_2
REMARK    2  A    between atoms: C_5  and  S_6
REMARK    3  A    between atoms: S_6  and  N_9
REMARK    4  A    between atoms: N_9  and  C_10
REMARK    5  A    between atoms: C_10  and  C_11
REMARK                            x       y       z     vdW  Elec       q    Type
REMARK                         _______ _______ _______ _____ _____    ______ ____
ROOT
ATOM      1  N   UNL     1       5.094   3.480  17.564  0.00  0.00    +0.000 NA
ATOM      2  H   UNL     1       5.445   3.838  18.454  0.00  0.00    +0.000 HD
ENDROOT
BRANCH   1   3
ATOM      3  S   UNL     1       5.723   4.345  16.247  0.00  0.00    +0.000 S 
ATOM      4  O   UNL     1       4.607   4.823  15.457  0.00  0.00    +0.000 OA
ATOM      5  O   UNL     1       6.776   3.554  15.654  0.00  0.00    +0.000 OA
BRANCH   3  10
ATOM      6  C   UNL     1       8.671   9.052  18.668  0.00  0.00    +0.000 C 
ATOM      7  C   UNL     1       7.872   7.909  18.109  0.00  0.00    +0.000 A 
ATOM      8  C   UNL     1       6.806   8.128  17.222  0.00  0.00    +0.000 A 
ATOM      9  C   UNL     1       6.112   7.049  16.667  0.00  0.00    +0.000 A 
ATOM     10  C   UNL     1       6.481   5.744  17.007  0.00  0.00    +0.000 A 
ATOM     11  C   UNL     1       7.516   5.524  17.903  0.00  0.00    +0.000 A 
ATOM     12  F   UNL     1       7.854   4.283  18.276  0.00  0.00    +0.000 F 
ATOM     13  C   UNL     1       8.209   6.597  18.455  0.00  0.00    +0.000 A 
ENDBRANCH   3  10
ENDBRANCH   1   3
BRANCH   1  14
ATOM     14  C   UNL     1       3.640   3.267  17.533  0.00  0.00    +0.000 C 
BRANCH  14  15
ATOM     15  C   UNL     1       2.999   3.731  18.818  0.00  0.00    +0.000 A 
ATOM     16  C   UNL     1       2.798   2.865  19.830  0.00  0.00    +0.000 A 
ATOM     17  C   UNL     1       2.260   3.277  21.146  0.00  0.00    +0.000 A 
ATOM     18  O   UNL     1       2.105   2.455  22.042  0.00  0.00    +0.000 OA
ATOM     19  N   UNL     1       1.963   4.597  21.299  0.00  0.00    +0.000 N 
ATOM     20  C   UNL     1       2.141   5.550  20.291  0.00  0.00    +0.000 A 
ATOM     21  C   UNL     1       1.786   6.878  20.552  0.00  0.00    +0.000 A 
ATOM     22  C   UNL     1       1.948   7.843  19.561  0.00  0.00    +0.000 A 
ATOM     23  C   UNL     1       2.475   7.483  18.324  0.00  0.00    +0.000 A 
ATOM     24  C   UNL     1       2.839   6.156  18.070  0.00  0.00    +0.000 A 
ATOM     25  C   UNL     1       2.665   5.162  19.043  0.00  0.00    +0.000 A 
ATOM     26  H   UNL     1       1.600   4.870  22.203  0.00  0.00    +0.000 HD
ENDBRANCH  14  15
ENDBRANCH   1  14
TORSDOF 4
ENDMDL
MODEL 5
REMARK VINA RESULT:      -8.2      3.002      7.678
REMARK  Name = 
REMARK  5 active torsions:
REMARK  status: ('A' for Active; 'I' for Inactive)
REMARK    1  A    between atoms: C_1  and  C_2
REMARK    2  A    between atoms: C_5  and  S_6
REMARK    3  A    between atoms: S_6  and  N_9
REMARK    4  A    between atoms: N_9  and  C_10
REMARK    5  A    between atoms: C_10  and  C_11
REMARK                            x       y       z     vdW  Elec       q    Type
REMARK                         _______ _______ _______ _____ _____    ______ ____
ROOT
ATOM      1  N   UNL     1       2.900   5.953  20.382  0.00  0.00    +0.000 NA
ATOM      2  H   UNL     1       3.513   6.608  19.893  0.00  0.00    +0.000 HD
ENDROOT
BRANCH   1   3
ATOM      3  S   UNL     1       2.746   4.487  19.542  0.00  0.00    +0.000 S 
ATOM      4  O   UNL     1       1.406   4.429  18.995  0.00  0.00    +0.000 OA
ATOM      5  O   UNL     1       3.259   3.432  20.383  0.00  0.00    +0.000 OA
BRANCH   3  10
ATOM      6  C   UNL     1       6.284   5.085  14.660  0.00  0.00    +0.000 C 
ATOM      7  C   UNL     1       5.475   4.947  15.918  0.00  0.00    +0.000 A 
ATOM      8  C   UNL     1       5.306   6.026  16.800  0.00  0.00    +0.000 A 
ATOM      9  C   UNL     1       4.500   5.895  17.935  0.00  0.00    +0.000 A 
ATOM     10  C   UNL     1       3.868   4.675  18.194  0.00  0.00    +0.000 A 
ATOM     11  C   UNL     1       4.053   3.599  17.339  0.00  0.00    +0.000 A 
ATOM     12  F   UNL     1       3.492   2.411  17.595  0.00  0.00    +0.000 F 
ATOM     13  C   UNL     1       4.853   3.729  16.208  0.00  0.00    +0.000 A 
ENDBRANCH   3  10
ENDBRANCH   1   3
BRANCH   1  14
ATOM     14  C   UNL     1       1.635   6.542  20.845  0.00  0.00    +0.000 C 
BRANCH  14  15
ATOM     15  C   UNL     1       1.466   7.943  20.309  0.00  0.00    +0.000 A 
ATOM     16  C   UNL     1       1.906   8.258  19.076  0.00  0.00    +0.000 A 
ATOM     17  C   UNL     1       1.687   9.586  18.459  0.00  0.00    +0.000 A 
ATOM     18  O   UNL     1       2.096   9.824  17.328  0.00  0.00    +0.000 OA
ATOM     19  N   UNL     1       1.012  10.504  19.205  0.00  0.00    +0.000 N 
ATOM     20  C   UNL     1       0.531  10.247  20.494  0.00  0.00    +0.000 A 
ATOM     21  C   UNL     1      -0.136  11.270  21.177  0.00  0.00    +0.000 A 
ATOM     22  C   UNL     1      -0.616  11.039  22.464  0.00  0.00    +0.000 A 
ATOM     23  C   UNL     1      -0.444   9.790  23.054  0.00  0.00    +0.000 A 
ATOM     24  C   UNL     1       0.214   8.767  22.363  0.00  0.00    +0.000 A 
ATOM     25  C   UNL     1       0.727   8.980  21.076  0.00  0.00    +0.000 A 
ATOM     26  H   UNL     1       0.864  11.407  18.774  0.00  0.00    +0.000 HD
ENDBRANCH  14  15
ENDBRANCH   1  14
TORSDOF 4
ENDMDL
MODEL 6
REMARK VINA RESULT:      -8.1      3.355      6.393
REMARK  Name = 
REMARK  5 active torsions:
REMARK  status: ('A' for Active; 'I' for Inactive)
REMARK    1  A    between atoms: C_1  and  C_2
REMARK    2  A    between atoms: C_5  and  S_6
REMARK    3  A    between atoms: S_6  and  N_9
REMARK    4  A    between atoms: N_9  and  C_10
REMARK    5  A    between atoms: C_10  and  C_11
REMARK                            x       y       z     vdW  Elec       q    Type
REMARK                         _______ _______ _______ _____ _____    ______ ____
ROOT
ATOM      1  N   UNL     1       5.449   5.076  16.301  0.00  0.00    +0.000 NA
ATOM      2  H   UNL     1       5.706   5.037  15.313  0.00  0.00    +0.000 HD
ENDROOT
BRANCH   1   3
ATOM      3  S   UNL     1       6.780   4.780  17.310  0.00  0.00    +0.000 S 
ATOM      4  O   UNL     1       7.821   4.178  16.503  0.00  0.00    +0.000 OA
ATOM      5  O   UNL     1       6.299   4.140  18.511  0.00  0.00    +0.000 OA
BRANCH   3  10
ATOM      6  C   UNL     1       9.001  10.228  18.755  0.00  0.00    +0.000 C 
ATOM      7  C   UNL     1       8.374   8.906  18.417  0.00  0.00    +0.000 A 
ATOM      8  C   UNL     1       7.493   8.771  17.332  0.00  0.00    +0.000 A 
ATOM      9  C   UNL     1       6.967   7.520  16.997  0.00  0.00    +0.000 A 
ATOM     10  C   UNL     1       7.316   6.399  17.757  0.00  0.00    +0.000 A 
ATOM     11  C   UNL     1       8.166   6.533  18.845  0.00  0.00    +0.000 A 
ATOM     12  F   UNL     1       8.477   5.479  19.610  0.00  0.00    +0.000 F 
ATOM     13  C   UNL     1       8.692   7.777  19.178  0.00  0.00    +0.000 A 
ENDBRANCH   3  10
ENDBRANCH   1   3
BRANCH   1  14
ATOM     14  C   UNL     1       4.232   4.322  16.637  0.00  0.00    +0.000 C 
BRANCH  14  15
ATOM     15  C   UNL     1       3.442   5.024  17.714  0.00  0.00    +0.000 A 
ATOM     16  C   UNL     1       3.357   6.368  17.728  0.00  0.00    +0.000 A 
ATOM     17  C   UNL     1       2.524   7.111  18.701  0.00  0.00    +0.000 A 
ATOM     18  O   UNL     1       2.467   8.335  18.668  0.00  0.00    +0.000 OA
ATOM     19  N   UNL     1       1.833   6.366  19.609  0.00  0.00    +0.000 N 
ATOM     20  C   UNL     1       1.879   4.969  19.655  0.00  0.00    +0.000 A 
ATOM     21  C   UNL     1       1.141   4.305  20.642  0.00  0.00    +0.000 A 
ATOM     22  C   UNL     1       1.177   2.915  20.712  0.00  0.00    +0.000 A 
ATOM     23  C   UNL     1       1.934   2.195  19.791  0.00  0.00    +0.000 A 
ATOM     24  C   UNL     1       2.663   2.861  18.800  0.00  0.00    +0.000 A 
ATOM     25  C   UNL     1       2.660   4.261  18.722  0.00  0.00    +0.000 A 
ATOM     26  H   UNL     1       1.263   6.882  20.267  0.00  0.00    +0.000 HD
ENDBRANCH  14  15
ENDBRANCH   1  14
TORSDOF 4
ENDMDL
MODEL 7
REMARK VINA RESULT:      -8.1      4.805      6.385
REMARK  Name = 
REMARK  5 active torsions:
REMARK  status: ('A' for Active; 'I' for Inactive)
REMARK    1  A    between atoms: C_1  and  C_2
REMARK    2  A    between atoms: C_5  and  S_6
REMARK    3  A    between atoms: S_6  and  N_9
REMARK    4  A    between atoms: N_9  and  C_10
REMARK    5  A    between atoms: C_10  and  C_11
REMARK                            x       y       z     vdW  Elec       q    Type
REMARK                         _______ _______ _______ _____ _____    ______ ____
ROOT
ATOM      1  N   UNL     1       1.631   8.932  18.129  0.00  0.00    +0.000 NA
ATOM      2  H   UNL     1       2.235   9.219  17.356  0.00  0.00    +0.000 HD
ENDROOT
BRANCH   1   3
ATOM      3  S   UNL     1       1.051  10.266  19.002  0.00  0.00    +0.000 S 
ATOM      4  O   UNL     1       1.805  11.430  18.584  0.00  0.00    +0.000 OA
ATOM      5  O   UNL     1       0.965   9.889  20.393  0.00  0.00    +0.000 OA
BRANCH   3  10
ATOM      6  C   UNL     1      -4.506  11.271  16.808  0.00  0.00    +0.000 C 
ATOM      7  C   UNL     1      -3.155  10.949  17.380  0.00  0.00    +0.000 A 
ATOM      8  C   UNL     1      -2.371   9.907  16.858  0.00  0.00    +0.000 A 
ATOM      9  C   UNL     1      -1.092   9.660  17.364  0.00  0.00    +0.000 A 
ATOM     10  C   UNL     1      -0.598  10.453  18.405  0.00  0.00    +0.000 A 
ATOM     11  C   UNL     1      -1.379  11.465  18.941  0.00  0.00    +0.000 A 
ATOM     12  F   UNL     1      -0.941  12.206  19.967  0.00  0.00    +0.000 F 
ATOM     13  C   UNL     1      -2.652  11.714  18.436  0.00  0.00    +0.000 A 
ENDBRANCH   3  10
ENDBRANCH   1   3
BRANCH   1  14
ATOM     14  C   UNL     1       2.179   7.842  18.949  0.00  0.00    +0.000 C 
BRANCH  14  15
ATOM     15  C   UNL     1       2.973   6.877  18.102  0.00  0.00    +0.000 A 
ATOM     16  C   UNL     1       4.022   7.312  17.378  0.00  0.00    +0.000 A 
ATOM     17  C   UNL     1       4.896   6.404  16.603  0.00  0.00    +0.000 A 
ATOM     18  O   UNL     1       5.848   6.844  15.967  0.00  0.00    +0.000 OA
ATOM     19  N   UNL     1       4.590   5.077  16.644  0.00  0.00    +0.000 N 
ATOM     20  C   UNL     1       3.514   4.556  17.370  0.00  0.00    +0.000 A 
ATOM     21  C   UNL     1       3.281   3.177  17.329  0.00  0.00    +0.000 A 
ATOM     22  C   UNL     1       2.211   2.637  18.038  0.00  0.00    +0.000 A 
ATOM     23  C   UNL     1       1.391   3.470  18.795  0.00  0.00    +0.000 A 
ATOM     24  C   UNL     1       1.633   4.847  18.842  0.00  0.00    +0.000 A 
ATOM     25  C   UNL     1       2.690   5.419  18.119  0.00  0.00    +0.000 A 
ATOM     26  H   UNL     1       5.195   4.464  16.114  0.00  0.00    +0.000 HD
ENDBRANCH  14  15
ENDBRANCH   1  14
TORSDOF 4
ENDMDL
MODEL 8
REMARK VINA RESULT:      -8.1      4.104      5.468
REMARK  Name = 
REMARK  5 active torsions:
REMARK  status: ('A' for Active; 'I' for Inactive)
REMARK    1  A    between atoms: C_1  and  C_2
REMARK    2  A    between atoms: C_5  and  S_6
REMARK    3  A    between atoms: S_6  and  N_9
REMARK    4  A    between atoms: N_9  and  C_10
REMARK    5  A    between atoms: C_10  and  C_11
REMARK                            x       y       z     vdW  Elec       q    Type
REMARK                         _______ _______ _______ _____ _____    ______ ____
ROOT
ATOM      1  N   UNL     1       2.605   7.797  18.497  0.00  0.00    +0.000 NA
ATOM      2  H   UNL     1       2.063   7.087  18.994  0.00  0.00    +0.000 HD
ENDROOT
BRANCH   1   3
ATOM      3  S   UNL     1       1.657   9.145  18.094  0.00  0.00    +0.000 S 
ATOM      4  O   UNL     1       0.587   8.691  17.231  0.00  0.00    +0.000 OA
ATOM      5  O   UNL     1       2.544  10.212  17.693  0.00  0.00    +0.000 OA
BRANCH   3  10
ATOM      6  C   UNL     1      -1.167  10.660  23.236  0.00  0.00    +0.000 C 
ATOM      7  C   UNL     1      -0.394  10.303  21.998  0.00  0.00    +0.000 A 
ATOM      8  C   UNL     1       0.476   9.202  21.972  0.00  0.00    +0.000 A 
ATOM      9  C   UNL     1       1.140   8.851  20.794  0.00  0.00    +0.000 A 
ATOM     10  C   UNL     1       0.941   9.610  19.637  0.00  0.00    +0.000 A 
ATOM     11  C   UNL     1       0.103  10.715  19.665  0.00  0.00    +0.000 A 
ATOM     12  F   UNL     1      -0.066  11.481  18.580  0.00  0.00    +0.000 F 
ATOM     13  C   UNL     1      -0.561  11.064  20.837  0.00  0.00    +0.000 A 
ENDBRANCH   3  10
ENDBRANCH   1   3
BRANCH   1  14
ATOM     14  C   UNL     1       3.432   7.267  17.403  0.00  0.00    +0.000 C 
BRANCH  14  15
ATOM     15  C   UNL     1       4.128   5.994  17.821  0.00  0.00    +0.000 A 
ATOM     16  C   UNL     1       5.455   5.988  18.050  0.00  0.00    +0.000 A 
ATOM     17  C   UNL     1       6.179   4.798  18.550  0.00  0.00    +0.000 A 
ATOM     18  O   UNL     1       7.387   4.843  18.756  0.00  0.00    +0.000 OA
ATOM     19  N   UNL     1       5.437   3.678  18.771  0.00  0.00    +0.000 N 
ATOM     20  C   UNL     1       4.056   3.611  18.550  0.00  0.00    +0.000 A 
ATOM     21  C   UNL     1       3.395   2.403  18.796  0.00  0.00    +0.000 A 
ATOM     22  C   UNL     1       2.023   2.311  18.576  0.00  0.00    +0.000 A 
ATOM     23  C   UNL     1       1.318   3.425  18.129  0.00  0.00    +0.000 A 
ATOM     24  C   UNL     1       1.980   4.635  17.895  0.00  0.00    +0.000 A 
ATOM     25  C   UNL     1       3.364   4.747  18.088  0.00  0.00    +0.000 A 
ATOM     26  H   UNL     1       5.939   2.871  19.117  0.00  0.00    +0.000 HD
ENDBRANCH  14  15
ENDBRANCH   1  14
TORSDOF 4
ENDMDL
MODEL 9
REMARK VINA RESULT:      -8.1      1.406      2.888
REMARK  Name = 
REMARK  5 active torsions:
REMARK  status: ('A' for Active; 'I' for Inactive)
REMARK    1  A    between atoms: C_1  and  C_2
REMARK    2  A    between atoms: C_5  and  S_6
REMARK    3  A    between atoms: S_6  and  N_9
REMARK    4  A    between atoms: N_9  and  C_10
REMARK    5  A    between atoms: C_10  and  C_11
REMARK                            x       y       z     vdW  Elec       q    Type
REMARK                         _______ _______ _______ _____ _____    ______ ____
ROOT
ATOM      1  N   UNL     1       3.189   3.089  17.093  0.00  0.00    +0.000 NA
ATOM      2  H   UNL     1       3.093   4.040  16.734  0.00  0.00    +0.000 HD
ENDROOT
BRANCH   1   3
ATOM      3  S   UNL     1       2.286   2.857  18.510  0.00  0.00    +0.000 S 
ATOM      4  O   UNL     1       3.120   2.146  19.456  0.00  0.00    +0.000 OA
ATOM      5  O   UNL     1       0.984   2.356  18.135  0.00  0.00    +0.000 OA
BRANCH   3  10
ATOM      6  C   UNL     1       1.760   8.395  20.911  0.00  0.00    +0.000 C 
ATOM      7  C   UNL     1       1.839   7.046  20.254  0.00  0.00    +0.000 A 
ATOM      8  C   UNL     1       2.460   6.877  19.006  0.00  0.00    +0.000 A 
ATOM      9  C   UNL     1       2.577   5.605  18.439  0.00  0.00    +0.000 A 
ATOM     10  C   UNL     1       2.062   4.497  19.118  0.00  0.00    +0.000 A 
ATOM     11  C   UNL     1       1.425   4.663  20.339  0.00  0.00    +0.000 A 
ATOM     12  F   UNL     1       0.886   3.620  20.984  0.00  0.00    +0.000 F 
ATOM     13  C   UNL     1       1.310   5.929  20.906  0.00  0.00    +0.000 A 
ENDBRANCH   3  10
ENDBRANCH   1   3
BRANCH   1  14
ATOM     14  C   UNL     1       4.577   2.605  17.153  0.00  0.00    +0.000 C 
BRANCH  14  15
ATOM     15  C   UNL     1       5.517   3.581  16.488  0.00  0.00    +0.000 A 
ATOM     16  C   UNL     1       5.672   3.573  15.150  0.00  0.00    +0.000 A 
ATOM     17  C   UNL     1       6.505   4.561  14.430  0.00  0.00    +0.000 A 
ATOM     18  O   UNL     1       6.607   4.522  13.209  0.00  0.00    +0.000 OA
ATOM     19  N   UNL     1       7.131   5.503  15.190  0.00  0.00    +0.000 N 
ATOM     20  C   UNL     1       7.019   5.568  16.584  0.00  0.00    +0.000 A 
ATOM     21  C   UNL     1       7.719   6.569  17.267  0.00  0.00    +0.000 A 
ATOM     22  C   UNL     1       7.629   6.649  18.654  0.00  0.00    +0.000 A 
ATOM     23  C   UNL     1       6.831   5.744  19.349  0.00  0.00    +0.000 A 
ATOM     24  C   UNL     1       6.123   4.752  18.661  0.00  0.00    +0.000 A 
ATOM     25  C   UNL     1       6.215   4.636  17.267  0.00  0.00    +0.000 A 
ATOM     26  H   UNL     1       7.695   6.177  14.690  0.00  0.00    +0.000 HD
ENDBRANCH  14  15
ENDBRANCH   1  14
TORSDOF 4
ENDMDL
