MODEL 1
REMARK VINA RESULT:      -8.6      0.000      0.000
REMARK  Name = 
REMARK  6 active torsions:
REMARK  status: ('A' for Active; 'I' for Inactive)
REMARK    1  A    between atoms: C_1  and  C_2
REMARK    2  A    between atoms: C_2  and  C_3
REMARK    3  A    between atoms: C_5  and  N_6
REMARK    4  A    between atoms: C_7  and  C_9
REMARK    5  A    between atoms: C_9  and  C_10
REMARK    6  A    between atoms: N_13  and  C_14
REMARK                            x       y       z     vdW  Elec       q    Type
REMARK                         _______ _______ _______ _____ _____    ______ ____
ROOT
ATOM      1  N   UNL     1       4.354   4.172  17.038  0.00  0.00    +0.000 N 
ATOM      2  C   UNL     1       3.450   3.201  17.416  0.00  0.00    +0.000 C 
ATOM      3  O   UNL     1       3.774   2.026  17.582  0.00  0.00    +0.000 OA
ATOM      4  H   UNL     1       4.035   5.119  16.874  0.00  0.00    +0.000 HD
ENDROOT
BRANCH   1   9
ATOM      5  C   UNL     1       7.800   6.821  18.312  0.00  0.00    +0.000 C 
ATOM      6  C   UNL     1       6.867   6.110  17.320  0.00  0.00    +0.000 C 
ATOM      7  C   UNL     1       5.579   6.946  17.210  0.00  0.00    +0.000 C 
ATOM      8  C   UNL     1       6.661   4.671  17.808  0.00  0.00    +0.000 C 
ATOM      9  C   UNL     1       5.768   3.877  16.855  0.00  0.00    +0.000 C 
ATOM     10  C   UNL     1       6.197   4.140  15.430  0.00  0.00    +0.000 A 
ATOM     11  C   UNL     1       5.752   3.303  14.392  0.00  0.00    +0.000 A 
ATOM     12  C   UNL     1       6.177   3.519  13.080  0.00  0.00    +0.000 A 
ATOM     13  C   UNL     1       7.049   4.566  12.805  0.00  0.00    +0.000 A 
ATOM     14  F   UNL     1       7.463   4.765  11.546  0.00  0.00    +0.000 F 
ATOM     15  C   UNL     1       7.491   5.411  13.813  0.00  0.00    +0.000 A 
ATOM     16  C   UNL     1       7.053   5.211  15.122  0.00  0.00    +0.000 A 
ATOM     17  O   UNL     1       7.530   6.106  16.044  0.00  0.00    +0.000 OA
ENDBRANCH   1   9
BRANCH   2  18
ATOM     18  C   UNL     1       2.046   3.710  17.682  0.00  0.00    +0.000 C 
BRANCH  18  19
ATOM     19  C   UNL     1       2.045   4.869  18.614  0.00  0.00    +0.000 A 
ATOM     20  C   UNL     1       2.390   4.884  19.980  0.00  0.00    +0.000 A 
ATOM     21  C   UNL     1       2.279   6.199  20.359  0.00  0.00    +0.000 A 
ATOM     22  N   UNL     1       1.914   6.913  19.240  0.00  0.00    +0.000 N 
ATOM     23  N   UNL     1       1.725   6.093  18.173  0.00  0.00    +0.000 NA
BRANCH  22  24
ATOM     24  C   UNL     1       1.772   8.323  19.116  0.00  0.00    +0.000 A 
ATOM     25  C   UNL     1       2.270   9.001  17.991  0.00  0.00    +0.000 A 
ATOM     26  C   UNL     1       2.082  10.380  17.866  0.00  0.00    +0.000 A 
ATOM     27  C   UNL     1       1.410  11.078  18.863  0.00  0.00    +0.000 A 
ATOM     28  F   UNL     1       1.230  12.398  18.734  0.00  0.00    +0.000 F 
ATOM     29  C   UNL     1       0.920  10.425  19.987  0.00  0.00    +0.000 A 
ATOM     30  C   UNL     1       1.096   9.045  20.115  0.00  0.00    +0.000 A 
ENDBRANCH  22  24
ENDBRANCH  18  19
ENDBRANCH   2  18
TORSDOF 4
ENDMDL
MODEL 2
REMARK VINA RESULT:      -8.4      3.993      5.789
REMARK  Name = 
REMARK  6 active torsions:
REMARK  status: ('A' for Active; 'I' for Inactive)
REMARK    1  A    between atoms: C_1  and  C_2
REMARK    2  A    between atoms: C_2  and  C_3
REMARK    3  A    between atoms: C_5  and  N_6
REMARK    4  A    between atoms: C_7  and  C_9
REMARK    5  A    between atoms: C_9  and  C_10
REMARK    6  A    between atoms: N_13  and  C_14
REMARK                            x       y       z     vdW  Elec       q    Type
REMARK                         _______ _______ _______ _____ _____    ______ ____
ROOT
ATOM      1  N   UNL     1       3.148   6.974  18.332  0.00  0.00    +0.000 N 
ATOM      2  C   UNL     1       2.305   7.959  18.803  0.00  0.00    +0.000 C 
ATOM      3  O   UNL     1       1.896   7.979  19.963  0.00  0.00    +0.000 OA
ATOM      4  H   UNL     1       3.428   6.976  17.359  0.00  0.00    +0.000 HD
ENDROOT
BRANCH   1   9
ATOM      5  C   UNL     1       6.845   4.468  17.579  0.00  0.00    +0.000 C 
ATOM      6  C   UNL     1       5.340   4.747  17.716  0.00  0.00    +0.000 C 
ATOM      7  C   UNL     1       4.861   5.378  16.397  0.00  0.00    +0.000 C 
ATOM      8  C   UNL     1       5.129   5.616  18.961  0.00  0.00    +0.000 C 
ATOM      9  C   UNL     1       3.647   5.912  19.194  0.00  0.00    +0.000 C 
ATOM     10  C   UNL     1       2.847   4.643  19.009  0.00  0.00    +0.000 A 
ATOM     11  C   UNL     1       1.520   4.572  19.468  0.00  0.00    +0.000 A 
ATOM     12  C   UNL     1       0.790   3.389  19.335  0.00  0.00    +0.000 A 
ATOM     13  C   UNL     1       1.386   2.277  18.751  0.00  0.00    +0.000 A 
ATOM     14  F   UNL     1       0.687   1.140  18.634  0.00  0.00    +0.000 F 
ATOM     15  C   UNL     1       2.691   2.330  18.281  0.00  0.00    +0.000 A 
ATOM     16  C   UNL     1       3.417   3.515  18.394  0.00  0.00    +0.000 A 
ATOM     17  O   UNL     1       4.690   3.475  17.887  0.00  0.00    +0.000 OA
ENDBRANCH   1   9
BRANCH   2  18
ATOM     18  C   UNL     1       1.986   9.053  17.802  0.00  0.00    +0.000 C 
BRANCH  18  19
ATOM     19  C   UNL     1       0.927   9.969  18.302  0.00  0.00    +0.000 A 
ATOM     20  C   UNL     1       1.055  11.016  19.237  0.00  0.00    +0.000 A 
ATOM     21  C   UNL     1      -0.192  11.584  19.305  0.00  0.00    +0.000 A 
ATOM     22  N   UNL     1      -0.996  10.906  18.418  0.00  0.00    +0.000 N 
ATOM     23  N   UNL     1      -0.323   9.881  17.830  0.00  0.00    +0.000 NA
BRANCH  22  24
ATOM     24  C   UNL     1      -2.345  11.193  18.069  0.00  0.00    +0.000 A 
ATOM     25  C   UNL     1      -2.847  10.864  16.799  0.00  0.00    +0.000 A 
ATOM     26  C   UNL     1      -4.186  11.115  16.491  0.00  0.00    +0.000 A 
ATOM     27  C   UNL     1      -5.016  11.699  17.441  0.00  0.00    +0.000 A 
ATOM     28  F   UNL     1      -6.299  11.932  17.140  0.00  0.00    +0.000 F 
ATOM     29  C   UNL     1      -4.533  12.041  18.698  0.00  0.00    +0.000 A 
ATOM     30  C   UNL     1      -3.198  11.785  19.018  0.00  0.00    +0.000 A 
ENDBRANCH  22  24
ENDBRANCH  18  19
ENDBRANCH   2  18
TORSDOF 4
ENDMDL
MODEL 3
REMARK VINA RESULT:      -8.3      3.685      5.752
REMARK  Name = 
REMARK  6 active torsions:
REMARK  status: ('A' for Active; 'I' for Inactive)
REMARK    1  A    between atoms: C_1  and  C_2
REMARK    2  A    between atoms: C_2  and  C_3
REMARK    3  A    between atoms: C_5  and  N_6
REMARK    4  A    between atoms: C_7  and  C_9
REMARK    5  A    between atoms: C_9  and  C_10
REMARK    6  A    between atoms: N_13  and  C_14
REMARK                            x       y       z     vdW  Elec       q    Type
REMARK                         _______ _______ _______ _____ _____    ______ ____
ROOT
ATOM      1  N   UNL     1       2.312   7.103  18.858  0.00  0.00    +0.000 N 
ATOM      2  C   UNL     1       1.978   8.404  18.548  0.00  0.00    +0.000 C 
ATOM      3  O   UNL     1       1.966   8.825  17.392  0.00  0.00    +0.000 OA
ATOM      4  H   UNL     1       2.347   6.811  19.827  0.00  0.00    +0.000 HD
ENDROOT
BRANCH   1   9
ATOM      5  C   UNL     1       1.456   2.660  19.071  0.00  0.00    +0.000 C 
ATOM      6  C   UNL     1       2.332   3.923  19.043  0.00  0.00    +0.000 C 
ATOM      7  C   UNL     1       2.330   4.522  20.461  0.00  0.00    +0.000 C 
ATOM      8  C   UNL     1       1.791   4.852  17.950  0.00  0.00    +0.000 C 
ATOM      9  C   UNL     1       2.631   6.124  17.829  0.00  0.00    +0.000 C 
ATOM     10  C   UNL     1       4.097   5.761  17.860  0.00  0.00    +0.000 A 
ATOM     11  C   UNL     1       5.065   6.697  17.456  0.00  0.00    +0.000 A 
ATOM     12  C   UNL     1       6.419   6.354  17.446  0.00  0.00    +0.000 A 
ATOM     13  C   UNL     1       6.805   5.076  17.834  0.00  0.00    +0.000 A 
ATOM     14  F   UNL     1       8.103   4.745  17.813  0.00  0.00    +0.000 F 
ATOM     15  C   UNL     1       5.867   4.140  18.248  0.00  0.00    +0.000 A 
ATOM     16  C   UNL     1       4.516   4.486  18.278  0.00  0.00    +0.000 A 
ATOM     17  O   UNL     1       3.668   3.502  18.717  0.00  0.00    +0.000 OA
ENDBRANCH   1   9
BRANCH   2  18
ATOM     18  C   UNL     1       1.554   9.251  19.733  0.00  0.00    +0.000 C 
BRANCH  18  19
ATOM     19  C   UNL     1       0.658  10.365  19.326  0.00  0.00    +0.000 A 
ATOM     20  C   UNL     1       1.011  11.696  19.023  0.00  0.00    +0.000 A 
ATOM     21  C   UNL     1      -0.165  12.298  18.651  0.00  0.00    +0.000 A 
ATOM     22  N   UNL     1      -1.149  11.337  18.709  0.00  0.00    +0.000 N 
ATOM     23  N   UNL     1      -0.655  10.155  19.167  0.00  0.00    +0.000 NA
BRANCH  22  24
ATOM     24  C   UNL     1      -2.512  11.461  18.322  0.00  0.00    +0.000 A 
ATOM     25  C   UNL     1      -3.461  12.018  19.195  0.00  0.00    +0.000 A 
ATOM     26  C   UNL     1      -4.786  12.171  18.781  0.00  0.00    +0.000 A 
ATOM     27  C   UNL     1      -5.162  11.763  17.507  0.00  0.00    +0.000 A 
ATOM     28  F   UNL     1      -6.434  11.918  17.115  0.00  0.00    +0.000 F 
ATOM     29  C   UNL     1      -4.239  11.200  16.634  0.00  0.00    +0.000 A 
ATOM     30  C   UNL     1      -2.911  11.051  17.038  0.00  0.00    +0.000 A 
ENDBRANCH  22  24
ENDBRANCH  18  19
ENDBRANCH   2  18
TORSDOF 4
ENDMDL
MODEL 4
REMARK VINA RESULT:      -8.0      3.879      5.883
REMARK  Name = 
REMARK  6 active torsions:
REMARK  status: ('A' for Active; 'I' for Inactive)
REMARK    1  A    between atoms: C_1  and  C_2
REMARK    2  A    between atoms: C_2  and  C_3
REMARK    3  A    between atoms: C_5  and  N_6
REMARK    4  A    between atoms: C_7  and  C_9
REMARK    5  A    between atoms: C_9  and  C_10
REMARK    6  A    between atoms: N_13  and  C_14
REMARK                            x       y       z     vdW  Elec       q    Type
REMARK                         _______ _______ _______ _____ _____    ______ ____
ROOT
ATOM      1  N   UNL     1       2.982   6.897  18.438  0.00  0.00    +0.000 N 
ATOM      2  C   UNL     1       2.219   7.964  18.867  0.00  0.00    +0.000 C 
ATOM      3  O   UNL     1       1.931   8.134  20.052  0.00  0.00    +0.000 OA
ATOM      4  H   UNL     1       3.161   6.775  17.449  0.00  0.00    +0.000 HD
ENDROOT
BRANCH   1   9
ATOM      5  C   UNL     1       6.840   4.594  17.871  0.00  0.00    +0.000 C 
ATOM      6  C   UNL     1       5.318   4.782  17.978  0.00  0.00    +0.000 C 
ATOM      7  C   UNL     1       4.817   5.300  16.619  0.00  0.00    +0.000 C 
ATOM      8  C   UNL     1       5.037   5.710  19.166  0.00  0.00    +0.000 C 
ATOM      9  C   UNL     1       3.536   5.924  19.368  0.00  0.00    +0.000 C 
ATOM     10  C   UNL     1       2.822   4.598  19.255  0.00  0.00    +0.000 A 
ATOM     11  C   UNL     1       1.496   4.469  19.705  0.00  0.00    +0.000 A 
ATOM     12  C   UNL     1       0.845   3.236  19.640  0.00  0.00    +0.000 A 
ATOM     13  C   UNL     1       1.518   2.131  19.130  0.00  0.00    +0.000 A 
ATOM     14  F   UNL     1       0.893   0.947  19.078  0.00  0.00    +0.000 F 
ATOM     15  C   UNL     1       2.822   2.239  18.669  0.00  0.00    +0.000 A 
ATOM     16  C   UNL     1       3.469   3.474  18.715  0.00  0.00    +0.000 A 
ATOM     17  O   UNL     1       4.749   3.484  18.222  0.00  0.00    +0.000 OA
ENDBRANCH   1   9
BRANCH   2  18
ATOM     18  C   UNL     1       1.830   8.945  17.779  0.00  0.00    +0.000 C 
BRANCH  18  19
ATOM     19  C   UNL     1       1.052  10.092  18.320  0.00  0.00    +0.000 A 
ATOM     20  C   UNL     1       1.534  11.351  18.731  0.00  0.00    +0.000 A 
ATOM     21  C   UNL     1       0.415  12.059  19.088  0.00  0.00    +0.000 A 
ATOM     22  N   UNL     1      -0.671  11.245  18.858  0.00  0.00    +0.000 N 
ATOM     23  N   UNL     1      -0.281  10.015  18.428  0.00  0.00    +0.000 NA
BRANCH  22  24
ATOM     24  C   UNL     1      -2.049  11.573  18.987  0.00  0.00    +0.000 A 
ATOM     25  C   UNL     1      -2.511  12.329  20.076  0.00  0.00    +0.000 A 
ATOM     26  C   UNL     1      -3.861  12.679  20.162  0.00  0.00    +0.000 A 
ATOM     27  C   UNL     1      -4.745  12.267  19.171  0.00  0.00    +0.000 A 
ATOM     28  F   UNL     1      -6.036  12.610  19.258  0.00  0.00    +0.000 F 
ATOM     29  C   UNL     1      -4.307  11.510  18.092  0.00  0.00    +0.000 A 
ATOM     30  C   UNL     1      -2.957  11.164  17.995  0.00  0.00    +0.000 A 
ENDBRANCH  22  24
ENDBRANCH  18  19
ENDBRANCH   2  18
TORSDOF 4
ENDMDL
MODEL 5
REMARK VINA RESULT:      -7.9      3.446      5.406
REMARK  Name = 
REMARK  6 active torsions:
REMARK  status: ('A' for Active; 'I' for Inactive)
REMARK    1  A    between atoms: C_1  and  C_2
REMARK    2  A    between atoms: C_2  and  C_3
REMARK    3  A    between atoms: C_5  and  N_6
REMARK    4  A    between atoms: C_7  and  C_9
REMARK    5  A    between atoms: C_9  and  C_10
REMARK    6  A    between atoms: N_13  and  C_14
REMARK                            x       y       z     vdW  Elec       q    Type
REMARK                         _______ _______ _______ _____ _____    ______ ____
ROOT
ATOM      1  N   UNL     1       3.366   6.985  18.181  0.00  0.00    +0.000 N 
ATOM      2  C   UNL     1       2.456   7.874  18.716  0.00  0.00    +0.000 C 
ATOM      3  O   UNL     1       2.032   7.771  19.866  0.00  0.00    +0.000 OA
ATOM      4  H   UNL     1       3.658   7.085  17.216  0.00  0.00    +0.000 HD
ENDROOT
BRANCH   1   9
ATOM      5  C   UNL     1       6.962   4.478  17.043  0.00  0.00    +0.000 C 
ATOM      6  C   UNL     1       5.476   4.763  17.311  0.00  0.00    +0.000 C 
ATOM      7  C   UNL     1       4.901   5.447  16.058  0.00  0.00    +0.000 C 
ATOM      8  C   UNL     1       5.374   5.588  18.599  0.00  0.00    +0.000 C 
ATOM      9  C   UNL     1       3.919   5.887  18.961  0.00  0.00    +0.000 C 
ATOM     10  C   UNL     1       3.093   4.633  18.795  0.00  0.00    +0.000 A 
ATOM     11  C   UNL     1       1.806   4.556  19.355  0.00  0.00    +0.000 A 
ATOM     12  C   UNL     1       1.055   3.385  19.238  0.00  0.00    +0.000 A 
ATOM     13  C   UNL     1       1.589   2.291  18.568  0.00  0.00    +0.000 A 
ATOM     14  F   UNL     1       0.870   1.165  18.467  0.00  0.00    +0.000 F 
ATOM     15  C   UNL     1       2.853   2.350  17.998  0.00  0.00    +0.000 A 
ATOM     16  C   UNL     1       3.599   3.524  18.095  0.00  0.00    +0.000 A 
ATOM     17  O   UNL     1       4.827   3.492  17.487  0.00  0.00    +0.000 OA
ENDBRANCH   1   9
BRANCH   2  18
ATOM     18  C   UNL     1       2.082   9.025  17.803  0.00  0.00    +0.000 C 
BRANCH  18  19
ATOM     19  C   UNL     1       0.936   9.807  18.340  0.00  0.00    +0.000 A 
ATOM     20  C   UNL     1      -0.397   9.816  17.883  0.00  0.00    +0.000 A 
ATOM     21  C   UNL     1      -1.061  10.650  18.747  0.00  0.00    +0.000 A 
ATOM     22  N   UNL     1      -0.146  11.077  19.683  0.00  0.00    +0.000 N 
ATOM     23  N   UNL     1       1.096  10.596  19.410  0.00  0.00    +0.000 NA
BRANCH  22  24
ATOM     24  C   UNL     1      -0.386  11.878  20.834  0.00  0.00    +0.000 A 
ATOM     25  C   UNL     1       0.037  13.216  20.881  0.00  0.00    +0.000 A 
ATOM     26  C   UNL     1      -0.246  14.000  22.003  0.00  0.00    +0.000 A 
ATOM     27  C   UNL     1      -0.939  13.446  23.073  0.00  0.00    +0.000 A 
ATOM     28  F   UNL     1      -1.210  14.205  24.143  0.00  0.00    +0.000 F 
ATOM     29  C   UNL     1      -1.355  12.122  23.047  0.00  0.00    +0.000 A 
ATOM     30  C   UNL     1      -1.084  11.335  21.926  0.00  0.00    +0.000 A 
ENDBRANCH  22  24
ENDBRANCH  18  19
ENDBRANCH   2  18
TORSDOF 4
ENDMDL
MODEL 6
REMARK VINA RESULT:      -7.9      3.260      5.550
REMARK  Name = 
REMARK  6 active torsions:
REMARK  status: ('A' for Active; 'I' for Inactive)
REMARK    1  A    between atoms: C_1  and  C_2
REMARK    2  A    between atoms: C_2  and  C_3
REMARK    3  A    between atoms: C_5  and  N_6
REMARK    4  A    between atoms: C_7  and  C_9
REMARK    5  A    between atoms: C_9  and  C_10
REMARK    6  A    between atoms: N_13  and  C_14
REMARK                            x       y       z     vdW  Elec       q    Type
REMARK                         _______ _______ _______ _____ _____    ______ ____
ROOT
ATOM      1  N   UNL     1       2.256   6.960  18.852  0.00  0.00    +0.000 N 
ATOM      2  C   UNL     1       1.947   8.268  18.542  0.00  0.00    +0.000 C 
ATOM      3  O   UNL     1       2.011   8.707  17.395  0.00  0.00    +0.000 OA
ATOM      4  H   UNL     1       2.227   6.652  19.816  0.00  0.00    +0.000 HD
ENDROOT
BRANCH   1   9
ATOM      5  C   UNL     1       1.462   2.502  18.982  0.00  0.00    +0.000 C 
ATOM      6  C   UNL     1       2.318   3.779  19.007  0.00  0.00    +0.000 C 
ATOM      7  C   UNL     1       2.240   4.363  20.429  0.00  0.00    +0.000 C 
ATOM      8  C   UNL     1       1.815   4.711  17.898  0.00  0.00    +0.000 C 
ATOM      9  C   UNL     1       2.639   5.997  17.829  0.00  0.00    +0.000 C 
ATOM     10  C   UNL     1       4.107   5.657  17.926  0.00  0.00    +0.000 A 
ATOM     11  C   UNL     1       5.078   6.612  17.577  0.00  0.00    +0.000 A 
ATOM     12  C   UNL     1       6.436   6.290  17.627  0.00  0.00    +0.000 A 
ATOM     13  C   UNL     1       6.824   5.014  18.021  0.00  0.00    +0.000 A 
ATOM     14  F   UNL     1       8.127   4.705  18.058  0.00  0.00    +0.000 F 
ATOM     15  C   UNL     1       5.883   4.060  18.380  0.00  0.00    +0.000 A 
ATOM     16  C   UNL     1       4.527   4.385  18.350  0.00  0.00    +0.000 A 
ATOM     17  O   UNL     1       3.675   3.383  18.740  0.00  0.00    +0.000 OA
ENDBRANCH   1   9
BRANCH   2  18
ATOM     18  C   UNL     1       1.449   9.096  19.711  0.00  0.00    +0.000 C 
BRANCH  18  19
ATOM     19  C   UNL     1       0.736  10.320  19.259  0.00  0.00    +0.000 A 
ATOM     20  C   UNL     1      -0.632  10.464  18.953  0.00  0.00    +0.000 A 
ATOM     21  C   UNL     1      -0.789  11.792  18.646  0.00  0.00    +0.000 A 
ATOM     22  N   UNL     1       0.440  12.392  18.802  0.00  0.00    +0.000 N 
ATOM     23  N   UNL     1       1.393  11.481  19.136  0.00  0.00    +0.000 NA
BRANCH  22  24
ATOM     24  C   UNL     1       0.755  13.775  18.691  0.00  0.00    +0.000 A 
ATOM     25  C   UNL     1      -0.253  14.751  18.755  0.00  0.00    +0.000 A 
ATOM     26  C   UNL     1       0.082  16.106  18.688  0.00  0.00    +0.000 A 
ATOM     27  C   UNL     1       1.412  16.482  18.547  0.00  0.00    +0.000 A 
ATOM     28  F   UNL     1       1.725  17.783  18.488  0.00  0.00    +0.000 F 
ATOM     29  C   UNL     1       2.421  15.529  18.471  0.00  0.00    +0.000 A 
ATOM     30  C   UNL     1       2.096  14.173  18.547  0.00  0.00    +0.000 A 
ENDBRANCH  22  24
ENDBRANCH  18  19
ENDBRANCH   2  18
TORSDOF 4
ENDMDL
MODEL 7
REMARK VINA RESULT:      -7.8      1.435      1.785
REMARK  Name = 
REMARK  6 active torsions:
REMARK  status: ('A' for Active; 'I' for Inactive)
REMARK    1  A    between atoms: C_1  and  C_2
REMARK    2  A    between atoms: C_2  and  C_3
REMARK    3  A    between atoms: C_5  and  N_6
REMARK    4  A    between atoms: C_7  and  C_9
REMARK    5  A    between atoms: C_9  and  C_10
REMARK    6  A    between atoms: N_13  and  C_14
REMARK                            x       y       z     vdW  Elec       q    Type
REMARK                         _______ _______ _______ _____ _____    ______ ____
ROOT
ATOM      1  N   UNL     1       4.989   4.588  18.334  0.00  0.00    +0.000 N 
ATOM      2  C   UNL     1       4.415   3.733  19.252  0.00  0.00    +0.000 C 
ATOM      3  O   UNL     1       5.015   2.764  19.715  0.00  0.00    +0.000 OA
ATOM      4  H   UNL     1       4.444   5.350  17.950  0.00  0.00    +0.000 HD
ENDROOT
BRANCH   1   9
ATOM      5  C   UNL     1       8.138   7.841  18.218  0.00  0.00    +0.000 C 
ATOM      6  C   UNL     1       7.152   6.818  17.632  0.00  0.00    +0.000 C 
ATOM      7  C   UNL     1       5.750   7.452  17.666  0.00  0.00    +0.000 C 
ATOM      8  C   UNL     1       7.289   5.515  18.428  0.00  0.00    +0.000 C 
ATOM      9  C   UNL     1       6.364   4.426  17.886  0.00  0.00    +0.000 C 
ATOM     10  C   UNL     1       6.443   4.406  16.377  0.00  0.00    +0.000 A 
ATOM     11  C   UNL     1       5.940   3.308  15.658  0.00  0.00    +0.000 A 
ATOM     12  C   UNL     1       6.047   3.266  14.266  0.00  0.00    +0.000 A 
ATOM     13  C   UNL     1       6.660   4.318  13.594  0.00  0.00    +0.000 A 
ATOM     14  F   UNL     1       6.771   4.270  12.259  0.00  0.00    +0.000 F 
ATOM     15  C   UNL     1       7.154   5.416  14.284  0.00  0.00    +0.000 A 
ATOM     16  C   UNL     1       7.031   5.470  15.672  0.00  0.00    +0.000 A 
ATOM     17  O   UNL     1       7.532   6.601  16.262  0.00  0.00    +0.000 OA
ENDBRANCH   1   9
BRANCH   2  18
ATOM     18  C   UNL     1       3.020   4.124  19.699  0.00  0.00    +0.000 C 
BRANCH  18  19
ATOM     19  C   UNL     1       2.683   5.518  19.308  0.00  0.00    +0.000 A 
ATOM     20  C   UNL     1       2.666   6.076  18.013  0.00  0.00    +0.000 A 
ATOM     21  C   UNL     1       2.237   7.368  18.190  0.00  0.00    +0.000 A 
ATOM     22  N   UNL     1       1.987   7.532  19.534  0.00  0.00    +0.000 N 
ATOM     23  N   UNL     1       2.304   6.409  20.233  0.00  0.00    +0.000 NA
BRANCH  22  24
ATOM     24  C   UNL     1       1.435   8.670  20.185  0.00  0.00    +0.000 A 
ATOM     25  C   UNL     1       1.115   9.829  19.461  0.00  0.00    +0.000 A 
ATOM     26  C   UNL     1       0.533  10.920  20.111  0.00  0.00    +0.000 A 
ATOM     27  C   UNL     1       0.282  10.857  21.476  0.00  0.00    +0.000 A 
ATOM     28  F   UNL     1      -0.280  11.905  22.091  0.00  0.00    +0.000 F 
ATOM     29  C   UNL     1       0.603   9.721  22.210  0.00  0.00    +0.000 A 
ATOM     30  C   UNL     1       1.177   8.623  21.566  0.00  0.00    +0.000 A 
ENDBRANCH  22  24
ENDBRANCH  18  19
ENDBRANCH   2  18
TORSDOF 4
ENDMDL
MODEL 8
REMARK VINA RESULT:      -7.8      2.441      3.188
REMARK  Name = 
REMARK  6 active torsions:
REMARK  status: ('A' for Active; 'I' for Inactive)
REMARK    1  A    between atoms: C_1  and  C_2
REMARK    2  A    between atoms: C_2  and  C_3
REMARK    3  A    between atoms: C_5  and  N_6
REMARK    4  A    between atoms: C_7  and  C_9
REMARK    5  A    between atoms: C_9  and  C_10
REMARK    6  A    between atoms: N_13  and  C_14
REMARK                            x       y       z     vdW  Elec       q    Type
REMARK                         _______ _______ _______ _____ _____    ______ ____
ROOT
ATOM      1  N   UNL     1       4.264   6.566  17.817  0.00  0.00    +0.000 N 
ATOM      2  C   UNL     1       2.899   6.722  17.937  0.00  0.00    +0.000 C 
ATOM      3  O   UNL     1       2.132   5.765  18.038  0.00  0.00    +0.000 OA
ATOM      4  H   UNL     1       4.853   7.381  17.697  0.00  0.00    +0.000 HD
ENDROOT
BRANCH   1   9
ATOM      5  C   UNL     1       8.382   5.641  19.461  0.00  0.00    +0.000 C 
ATOM      6  C   UNL     1       7.307   5.809  18.375  0.00  0.00    +0.000 C 
ATOM      7  C   UNL     1       7.199   7.310  18.054  0.00  0.00    +0.000 C 
ATOM      8  C   UNL     1       6.012   5.164  18.884  0.00  0.00    +0.000 C 
ATOM      9  C   UNL     1       4.894   5.254  17.845  0.00  0.00    +0.000 C 
ATOM     10  C   UNL     1       5.442   4.887  16.486  0.00  0.00    +0.000 A 
ATOM     11  C   UNL     1       4.565   4.588  15.428  0.00  0.00    +0.000 A 
ATOM     12  C   UNL     1       5.066   4.210  14.181  0.00  0.00    +0.000 A 
ATOM     13  C   UNL     1       6.441   4.124  13.992  0.00  0.00    +0.000 A 
ATOM     14  F   UNL     1       6.920   3.750  12.797  0.00  0.00    +0.000 F 
ATOM     15  C   UNL     1       7.324   4.424  15.019  0.00  0.00    +0.000 A 
ATOM     16  C   UNL     1       6.828   4.822  16.260  0.00  0.00    +0.000 A 
ATOM     17  O   UNL     1       7.776   5.115  17.206  0.00  0.00    +0.000 OA
ENDBRANCH   1   9
BRANCH   2  18
ATOM     18  C   UNL     1       2.428   8.162  18.014  0.00  0.00    +0.000 C 
BRANCH  18  19
ATOM     19  C   UNL     1       1.702   8.441  19.281  0.00  0.00    +0.000 A 
ATOM     20  C   UNL     1       1.808   7.758  20.510  0.00  0.00    +0.000 A 
ATOM     21  C   UNL     1       0.981   8.440  21.366  0.00  0.00    +0.000 A 
ATOM     22  N   UNL     1       0.446   9.494  20.660  0.00  0.00    +0.000 N 
ATOM     23  N   UNL     1       0.853   9.473  19.363  0.00  0.00    +0.000 NA
BRANCH  22  24
ATOM     24  C   UNL     1      -0.392  10.535  21.149  0.00  0.00    +0.000 A 
ATOM     25  C   UNL     1      -1.084  11.378  20.265  0.00  0.00    +0.000 A 
ATOM     26  C   UNL     1      -1.936  12.366  20.764  0.00  0.00    +0.000 A 
ATOM     27  C   UNL     1      -2.088  12.516  22.138  0.00  0.00    +0.000 A 
ATOM     28  F   UNL     1      -2.910  13.463  22.609  0.00  0.00    +0.000 F 
ATOM     29  C   UNL     1      -1.402  11.698  23.027  0.00  0.00    +0.000 A 
ATOM     30  C   UNL     1      -0.555  10.702  22.535  0.00  0.00    +0.000 A 
ENDBRANCH  22  24
ENDBRANCH  18  19
ENDBRANCH   2  18
TORSDOF 4
ENDMDL
MODEL 9
REMARK VINA RESULT:      -7.7      3.785      9.031
REMARK  Name = 
REMARK  6 active torsions:
REMARK  status: ('A' for Active; 'I' for Inactive)
REMARK    1  A    between atoms: C_1  and  C_2
REMARK    2  A    between atoms: C_2  and  C_3
REMARK    3  A    between atoms: C_5  and  N_6
REMARK    4  A    between atoms: C_7  and  C_9
REMARK    5  A    between atoms: C_9  and  C_10
REMARK    6  A    between atoms: N_13  and  C_14
REMARK                            x       y       z     vdW  Elec       q    Type
REMARK                         _______ _______ _______ _____ _____    ______ ____
ROOT
ATOM      1  N   UNL     1       0.601   9.813  19.738  0.00  0.00    +0.000 N 
ATOM      2  C   UNL     1       1.471   8.864  19.243  0.00  0.00    +0.000 C 
ATOM      3  O   UNL     1       1.944   8.931  18.109  0.00  0.00    +0.000 OA
ATOM      4  H   UNL     1       0.205   9.697  20.663  0.00  0.00    +0.000 HD
ENDROOT
BRANCH   1   9
ATOM      5  C   UNL     1      -0.329  13.913  21.424  0.00  0.00    +0.000 C 
ATOM      6  C   UNL     1      -0.638  12.570  20.743  0.00  0.00    +0.000 C 
ATOM      7  C   UNL     1      -0.778  11.508  21.848  0.00  0.00    +0.000 C 
ATOM      8  C   UNL     1       0.467  12.291  19.717  0.00  0.00    +0.000 C 
ATOM      9  C   UNL     1       0.218  10.985  18.964  0.00  0.00    +0.000 C 
ATOM     10  C   UNL     1      -1.234  10.912  18.553  0.00  0.00    +0.000 A 
ATOM     11  C   UNL     1      -1.650   9.977  17.590  0.00  0.00    +0.000 A 
ATOM     12  C   UNL     1      -2.983   9.933  17.178  0.00  0.00    +0.000 A 
ATOM     13  C   UNL     1      -3.899  10.825  17.723  0.00  0.00    +0.000 A 
ATOM     14  F   UNL     1      -5.176  10.788  17.318  0.00  0.00    +0.000 F 
ATOM     15  C   UNL     1      -3.513  11.749  18.684  0.00  0.00    +0.000 A 
ATOM     16  C   UNL     1      -2.186  11.783  19.112  0.00  0.00    +0.000 A 
ATOM     17  O   UNL     1      -1.904  12.717  20.075  0.00  0.00    +0.000 OA
ENDBRANCH   1   9
BRANCH   2  18
ATOM     18  C   UNL     1       1.856   7.779  20.229  0.00  0.00    +0.000 C 
BRANCH  18  19
ATOM     19  C   UNL     1       2.375   6.565  19.544  0.00  0.00    +0.000 A 
ATOM     20  C   UNL     1       1.927   5.236  19.676  0.00  0.00    +0.000 A 
ATOM     21  C   UNL     1       2.690   4.515  18.792  0.00  0.00    +0.000 A 
ATOM     22  N   UNL     1       3.524   5.407  18.155  0.00  0.00    +0.000 N 
ATOM     23  N   UNL     1       3.365   6.665  18.647  0.00  0.00    +0.000 NA
BRANCH  22  24
ATOM     24  C   UNL     1       4.429   5.145  17.090  0.00  0.00    +0.000 A 
ATOM     25  C   UNL     1       4.824   3.832  16.786  0.00  0.00    +0.000 A 
ATOM     26  C   UNL     1       5.680   3.592  15.708  0.00  0.00    +0.000 A 
ATOM     27  C   UNL     1       6.144   4.657  14.945  0.00  0.00    +0.000 A 
ATOM     28  F   UNL     1       6.960   4.417  13.911  0.00  0.00    +0.000 F 
ATOM     29  C   UNL     1       5.771   5.962  15.238  0.00  0.00    +0.000 A 
ATOM     30  C   UNL     1       4.910   6.211  16.308  0.00  0.00    +0.000 A 
ENDBRANCH  22  24
ENDBRANCH  18  19
ENDBRANCH   2  18
TORSDOF 4
ENDMDL
