MODEL 1
REMARK VINA RESULT:      -8.9      0.000      0.000
REMARK  Name = 
REMARK  5 active torsions:
REMARK  status: ('A' for Active; 'I' for Inactive)
REMARK    1  A    between atoms: C_1  and  C_2
REMARK    2  A    between atoms: C_5  and  C_6
REMARK    3  A    between atoms: C_8  and  C_9
REMARK    4  A    between atoms: C_9  and  N_10
REMARK    5  A    between atoms: C_28  and  C_29
REMARK                            x       y       z     vdW  Elec       q    Type
REMARK                         _______ _______ _______ _____ _____    ______ ____
ROOT
ATOM      1  N   UNL     1       4.145   4.729  18.670  0.00  0.00    +0.000 N 
ATOM      2  C   UNL     1       4.955   3.758  19.163  0.00  0.00    +0.000 C 
ATOM      3  O   UNL     1       4.629   2.782  19.815  0.00  0.00    +0.000 OA
ATOM      4  N   UNL     1       6.248   4.020  18.768  0.00  0.00    +0.000 N 
ATOM      5  C   UNL     1       6.319   5.145  17.857  0.00  0.00    +0.000 C 
ATOM      6  C   UNL     1       7.448   6.081  18.263  0.00  0.00    +0.000 C 
ATOM      7  C   UNL     1       7.675   7.124  17.183  0.00  0.00    +0.000 C 
ATOM      8  O   UNL     1       8.000   6.546  15.919  0.00  0.00    +0.000 OA
ATOM      9  C   UNL     1       7.205   5.506  15.524  0.00  0.00    +0.000 A 
ATOM     10  C   UNL     1       7.215   5.222  14.155  0.00  0.00    +0.000 A 
ATOM     11  C   UNL     1       6.431   4.190  13.641  0.00  0.00    +0.000 A 
ATOM     12  C   UNL     1       5.661   3.416  14.497  0.00  0.00    +0.000 A 
ATOM     13  C   UNL     1       5.677   3.677  15.867  0.00  0.00    +0.000 A 
ATOM     14  C   UNL     1       6.433   4.738  16.401  0.00  0.00    +0.000 A 
ATOM     15  C   UNL     1       4.896   5.717  18.084  0.00  0.00    +0.000 C 
ATOM     16  O   UNL     1       4.493   6.818  17.731  0.00  0.00    +0.000 OA
ATOM     17  H   UNL     1       6.960   3.309  18.865  0.00  0.00    +0.000 HD
ENDROOT
BRANCH   1  18
ATOM     18  C   UNL     1       2.704   4.633  18.605  0.00  0.00    +0.000 C 
BRANCH  18  21
ATOM     19  C   UNL     1       1.342   7.378  20.460  0.00  0.00    +0.000 A 
ATOM     20  N   UNL     1       1.932   6.901  19.376  0.00  0.00    +0.000 NA
ATOM     21  C   UNL     1       2.117   5.559  19.630  0.00  0.00    +0.000 A 
ATOM     22  C   UNL     1       1.600   5.271  20.875  0.00  0.00    +0.000 A 
ATOM     23  O   UNL     1       1.099   6.419  21.411  0.00  0.00    +0.000 OA
BRANCH  19  28
ATOM     24  C   UNL     1      -0.457  12.739  21.828  0.00  0.00    +0.000 C 
ATOM     25  C   UNL     1       0.007  11.353  21.483  0.00  0.00    +0.000 A 
ATOM     26  C   UNL     1       0.000  10.326  22.423  0.00  0.00    +0.000 A 
ATOM     27  C   UNL     1       0.442   9.043  22.075  0.00  0.00    +0.000 A 
ATOM     28  C   UNL     1       0.908   8.748  20.776  0.00  0.00    +0.000 A 
ATOM     29  C   UNL     1       0.917   9.788  19.824  0.00  0.00    +0.000 A 
ATOM     30  C   UNL     1       1.400   9.639  18.403  0.00  0.00    +0.000 C 
ATOM     31  C   UNL     1       0.466  11.075  20.191  0.00  0.00    +0.000 A 
ENDBRANCH  19  28
ENDBRANCH  18  21
ENDBRANCH   1  18
TORSDOF 3
ENDMDL
MODEL 2
REMARK VINA RESULT:      -8.5      1.717      2.226
REMARK  Name = 
REMARK  5 active torsions:
REMARK  status: ('A' for Active; 'I' for Inactive)
REMARK    1  A    between atoms: C_1  and  C_2
REMARK    2  A    between atoms: C_5  and  C_6
REMARK    3  A    between atoms: C_8  and  C_9
REMARK    4  A    between atoms: C_9  and  N_10
REMARK    5  A    between atoms: C_28  and  C_29
REMARK                            x       y       z     vdW  Elec       q    Type
REMARK                         _______ _______ _______ _____ _____    ______ ____
ROOT
ATOM      1  N   UNL     1       3.529   5.973  18.670  0.00  0.00    +0.000 N 
ATOM      2  C   UNL     1       4.014   4.922  19.380  0.00  0.00    +0.000 C 
ATOM      3  O   UNL     1       3.394   4.182  20.124  0.00  0.00    +0.000 OA
ATOM      4  N   UNL     1       5.353   4.779  19.097  0.00  0.00    +0.000 N 
ATOM      5  C   UNL     1       5.786   5.683  18.050  0.00  0.00    +0.000 C 
ATOM      6  C   UNL     1       7.094   6.355  18.443  0.00  0.00    +0.000 C 
ATOM      7  C   UNL     1       7.666   7.113  17.259  0.00  0.00    +0.000 C 
ATOM      8  O   UNL     1       7.911   6.272  16.132  0.00  0.00    +0.000 OA
ATOM      9  C   UNL     1       6.896   5.418  15.801  0.00  0.00    +0.000 A 
ATOM     10  C   UNL     1       6.924   4.920  14.496  0.00  0.00    +0.000 A 
ATOM     11  C   UNL     1       5.929   4.050  14.048  0.00  0.00    +0.000 A 
ATOM     12  C   UNL     1       4.923   3.650  14.915  0.00  0.00    +0.000 A 
ATOM     13  C   UNL     1       4.914   4.120  16.228  0.00  0.00    +0.000 A 
ATOM     14  C   UNL     1       5.887   5.027  16.687  0.00  0.00    +0.000 A 
ATOM     15  C   UNL     1       4.556   6.627  18.037  0.00  0.00    +0.000 C 
ATOM     16  O   UNL     1       4.488   7.721  17.490  0.00  0.00    +0.000 OA
ATOM     17  H   UNL     1       5.841   3.936  19.371  0.00  0.00    +0.000 HD
ENDROOT
BRANCH   1  18
ATOM     18  C   UNL     1       2.123   6.236  18.461  0.00  0.00    +0.000 C 
BRANCH  18  21
ATOM     19  C   UNL     1       1.171   9.594  19.265  0.00  0.00    +0.000 A 
ATOM     20  N   UNL     1       1.484   8.669  18.374  0.00  0.00    +0.000 NA
ATOM     21  C   UNL     1       1.780   7.544  19.113  0.00  0.00    +0.000 A 
ATOM     22  C   UNL     1       1.610   7.837  20.449  0.00  0.00    +0.000 A 
ATOM     23  O   UNL     1       1.217   9.137  20.558  0.00  0.00    +0.000 OA
BRANCH  19  28
ATOM     24  C   UNL     1      -0.269  15.192  18.599  0.00  0.00    +0.000 C 
ATOM     25  C   UNL     1       0.110  13.749  18.772  0.00  0.00    +0.000 A 
ATOM     26  C   UNL     1       1.396  13.374  19.154  0.00  0.00    +0.000 A 
ATOM     27  C   UNL     1       1.724  12.020  19.305  0.00  0.00    +0.000 A 
ATOM     28  C   UNL     1       0.778  10.999  19.074  0.00  0.00    +0.000 A 
ATOM     29  C   UNL     1      -0.523  11.378  18.685  0.00  0.00    +0.000 A 
ATOM     30  C   UNL     1      -1.640  10.410  18.385  0.00  0.00    +0.000 C 
ATOM     31  C   UNL     1      -0.839  12.747  18.540  0.00  0.00    +0.000 A 
ENDBRANCH  19  28
ENDBRANCH  18  21
ENDBRANCH   1  18
TORSDOF 3
ENDMDL
MODEL 3
REMARK VINA RESULT:      -8.4      3.338     10.163
REMARK  Name = 
REMARK  5 active torsions:
REMARK  status: ('A' for Active; 'I' for Inactive)
REMARK    1  A    between atoms: C_1  and  C_2
REMARK    2  A    between atoms: C_5  and  C_6
REMARK    3  A    between atoms: C_8  and  C_9
REMARK    4  A    between atoms: C_9  and  N_10
REMARK    5  A    between atoms: C_28  and  C_29
REMARK                            x       y       z     vdW  Elec       q    Type
REMARK                         _______ _______ _______ _____ _____    ______ ____
ROOT
ATOM      1  N   UNL     1      -0.233  11.097  19.953  0.00  0.00    +0.000 N 
ATOM      2  C   UNL     1      -1.314  11.252  19.147  0.00  0.00    +0.000 C 
ATOM      3  O   UNL     1      -1.852  10.402  18.459  0.00  0.00    +0.000 OA
ATOM      4  N   UNL     1      -1.762  12.549  19.253  0.00  0.00    +0.000 N 
ATOM      5  C   UNL     1      -1.044  13.289  20.272  0.00  0.00    +0.000 C 
ATOM      6  C   UNL     1      -0.645  14.660  19.745  0.00  0.00    +0.000 C 
ATOM      7  C   UNL     1      -0.109  15.518  20.876  0.00  0.00    +0.000 C 
ATOM      8  O   UNL     1      -1.055  15.696  21.929  0.00  0.00    +0.000 OA
ATOM      9  C   UNL     1      -1.690  14.561  22.351  0.00  0.00    +0.000 A 
ATOM     10  C   UNL     1      -2.268  14.627  23.622  0.00  0.00    +0.000 A 
ATOM     11  C   UNL     1      -2.929  13.522  24.157  0.00  0.00    +0.000 A 
ATOM     12  C   UNL     1      -3.045  12.358  23.408  0.00  0.00    +0.000 A 
ATOM     13  C   UNL     1      -2.498  12.305  22.126  0.00  0.00    +0.000 A 
ATOM     14  C   UNL     1      -1.795  13.396  21.584  0.00  0.00    +0.000 A 
ATOM     15  C   UNL     1       0.141  12.310  20.477  0.00  0.00    +0.000 C 
ATOM     16  O   UNL     1       1.185  12.550  21.070  0.00  0.00    +0.000 OA
ATOM     17  H   UNL     1      -2.670  12.803  18.888  0.00  0.00    +0.000 HD
ENDROOT
BRANCH   1  18
ATOM     18  C   UNL     1       0.314   9.819  20.348  0.00  0.00    +0.000 C 
BRANCH  18  21
ATOM     19  C   UNL     1       2.506   7.991  18.184  0.00  0.00    +0.000 A 
ATOM     20  N   UNL     1       1.838   8.100  19.321  0.00  0.00    +0.000 NA
ATOM     21  C   UNL     1       1.232   9.336  19.263  0.00  0.00    +0.000 A 
ATOM     22  C   UNL     1       1.548   9.926  18.058  0.00  0.00    +0.000 A 
ATOM     23  O   UNL     1       2.354   9.077  17.361  0.00  0.00    +0.000 OA
BRANCH  19  28
ATOM     24  C   UNL     1       5.910   3.755  16.105  0.00  0.00    +0.000 C 
ATOM     25  C   UNL     1       5.037   4.854  16.640  0.00  0.00    +0.000 A 
ATOM     26  C   UNL     1       5.357   6.196  16.452  0.00  0.00    +0.000 A 
ATOM     27  C   UNL     1       4.526   7.201  16.964  0.00  0.00    +0.000 A 
ATOM     28  C   UNL     1       3.352   6.895  17.684  0.00  0.00    +0.000 A 
ATOM     29  C   UNL     1       3.029   5.536  17.877  0.00  0.00    +0.000 A 
ATOM     30  C   UNL     1       1.822   5.046  18.638  0.00  0.00    +0.000 C 
ATOM     31  C   UNL     1       3.876   4.535  17.352  0.00  0.00    +0.000 A 
ENDBRANCH  19  28
ENDBRANCH  18  21
ENDBRANCH   1  18
TORSDOF 3
ENDMDL
MODEL 4
REMARK VINA RESULT:      -8.3      0.673      1.408
REMARK  Name = 
REMARK  5 active torsions:
REMARK  status: ('A' for Active; 'I' for Inactive)
REMARK    1  A    between atoms: C_1  and  C_2
REMARK    2  A    between atoms: C_5  and  C_6
REMARK    3  A    between atoms: C_8  and  C_9
REMARK    4  A    between atoms: C_9  and  N_10
REMARK    5  A    between atoms: C_28  and  C_29
REMARK                            x       y       z     vdW  Elec       q    Type
REMARK                         _______ _______ _______ _____ _____    ______ ____
ROOT
ATOM      1  N   UNL     1       3.965   4.922  18.805  0.00  0.00    +0.000 N 
ATOM      2  C   UNL     1       4.695   3.891  19.301  0.00  0.00    +0.000 C 
ATOM      3  O   UNL     1       4.293   2.953  19.968  0.00  0.00    +0.000 OA
ATOM      4  N   UNL     1       6.001   4.038  18.893  0.00  0.00    +0.000 N 
ATOM      5  C   UNL     1       6.159   5.144  17.969  0.00  0.00    +0.000 C 
ATOM      6  C   UNL     1       7.367   5.985  18.355  0.00  0.00    +0.000 C 
ATOM      7  C   UNL     1       7.672   6.993  17.262  0.00  0.00    +0.000 C 
ATOM      8  O   UNL     1       7.934   6.377  16.002  0.00  0.00    +0.000 OA
ATOM      9  C   UNL     1       7.051   5.405  15.625  0.00  0.00    +0.000 A 
ATOM     10  C   UNL     1       7.024   5.107  14.259  0.00  0.00    +0.000 A 
ATOM     11  C   UNL     1       6.150   4.140  13.763  0.00  0.00    +0.000 A 
ATOM     12  C   UNL     1       5.325   3.443  14.634  0.00  0.00    +0.000 A 
ATOM     13  C   UNL     1       5.377   3.716  16.001  0.00  0.00    +0.000 A 
ATOM     14  C   UNL     1       6.224   4.714  16.517  0.00  0.00    +0.000 A 
ATOM     15  C   UNL     1       4.792   5.837  18.201  0.00  0.00    +0.000 C 
ATOM     16  O   UNL     1       4.480   6.965  17.840  0.00  0.00    +0.000 OA
ATOM     17  H   UNL     1       6.652   3.271  18.992  0.00  0.00    +0.000 HD
ENDROOT
BRANCH   1  18
ATOM     18  C   UNL     1       2.520   4.948  18.753  0.00  0.00    +0.000 C 
BRANCH  18  21
ATOM     19  C   UNL     1       1.353   8.050  20.111  0.00  0.00    +0.000 A 
ATOM     20  N   UNL     1       1.846   7.347  19.105  0.00  0.00    +0.000 NA
ATOM     21  C   UNL     1       2.032   6.078  19.611  0.00  0.00    +0.000 A 
ATOM     22  C   UNL     1       1.614   6.062  20.924  0.00  0.00    +0.000 A 
ATOM     23  O   UNL     1       1.175   7.310  21.252  0.00  0.00    +0.000 OA
BRANCH  19  28
ATOM     24  C   UNL     1      -0.098  13.683  20.239  0.00  0.00    +0.000 C 
ATOM     25  C   UNL     1       0.277  12.229  20.198  0.00  0.00    +0.000 A 
ATOM     26  C   UNL     1       0.718  11.623  19.025  0.00  0.00    +0.000 A 
ATOM     27  C   UNL     1       1.059  10.264  19.014  0.00  0.00    +0.000 A 
ATOM     28  C   UNL     1       0.965   9.468  20.175  0.00  0.00    +0.000 A 
ATOM     29  C   UNL     1       0.515  10.081  21.362  0.00  0.00    +0.000 A 
ATOM     30  C   UNL     1       0.343   9.365  22.679  0.00  0.00    +0.000 C 
ATOM     31  C   UNL     1       0.179  11.452  21.357  0.00  0.00    +0.000 A 
ENDBRANCH  19  28
ENDBRANCH  18  21
ENDBRANCH   1  18
TORSDOF 3
ENDMDL
MODEL 5
REMARK VINA RESULT:      -8.3      3.871      9.500
REMARK  Name = 
REMARK  5 active torsions:
REMARK  status: ('A' for Active; 'I' for Inactive)
REMARK    1  A    between atoms: C_1  and  C_2
REMARK    2  A    between atoms: C_5  and  C_6
REMARK    3  A    between atoms: C_8  and  C_9
REMARK    4  A    between atoms: C_9  and  N_10
REMARK    5  A    between atoms: C_28  and  C_29
REMARK                            x       y       z     vdW  Elec       q    Type
REMARK                         _______ _______ _______ _____ _____    ______ ____
ROOT
ATOM      1  N   UNL     1      -0.851  12.134  22.190  0.00  0.00    +0.000 N 
ATOM      2  C   UNL     1      -0.156  13.025  21.437  0.00  0.00    +0.000 C 
ATOM      3  O   UNL     1       1.043  13.245  21.469  0.00  0.00    +0.000 OA
ATOM      4  N   UNL     1      -1.026  13.640  20.567  0.00  0.00    +0.000 N 
ATOM      5  C   UNL     1      -2.354  13.061  20.626  0.00  0.00    +0.000 C 
ATOM      6  C   UNL     1      -3.405  14.160  20.681  0.00  0.00    +0.000 C 
ATOM      7  C   UNL     1      -4.791  13.565  20.504  0.00  0.00    +0.000 C 
ATOM      8  O   UNL     1      -4.935  12.861  19.270  0.00  0.00    +0.000 OA
ATOM      9  C   UNL     1      -3.920  11.999  18.960  0.00  0.00    +0.000 A 
ATOM     10  C   UNL     1      -4.231  11.011  18.022  0.00  0.00    +0.000 A 
ATOM     11  C   UNL     1      -3.274  10.070  17.642  0.00  0.00    +0.000 A 
ATOM     12  C   UNL     1      -1.993  10.136  18.173  0.00  0.00    +0.000 A 
ATOM     13  C   UNL     1      -1.674  11.143  19.083  0.00  0.00    +0.000 A 
ATOM     14  C   UNL     1      -2.636  12.078  19.507  0.00  0.00    +0.000 A 
ATOM     15  C   UNL     1      -2.196  12.256  21.942  0.00  0.00    +0.000 C 
ATOM     16  O   UNL     1      -3.100  11.751  22.596  0.00  0.00    +0.000 OA
ATOM     17  H   UNL     1      -0.668  14.184  19.793  0.00  0.00    +0.000 HD
ENDROOT
BRANCH   1  18
ATOM     18  C   UNL     1      -0.245  11.088  22.982  0.00  0.00    +0.000 C 
BRANCH  18  21
ATOM     19  C   UNL     1       0.959   8.581  20.725  0.00  0.00    +0.000 A 
ATOM     20  N   UNL     1       1.069   9.775  21.284  0.00  0.00    +0.000 NA
ATOM     21  C   UNL     1      -0.032   9.888  22.106  0.00  0.00    +0.000 A 
ATOM     22  C   UNL     1      -0.764   8.724  22.024  0.00  0.00    +0.000 A 
ATOM     23  O   UNL     1      -0.141   7.882  21.153  0.00  0.00    +0.000 OA
BRANCH  19  28
ATOM     24  C   UNL     1       4.469   5.836  16.984  0.00  0.00    +0.000 C 
ATOM     25  C   UNL     1       3.563   6.538  17.953  0.00  0.00    +0.000 A 
ATOM     26  C   UNL     1       3.227   5.970  19.180  0.00  0.00    +0.000 A 
ATOM     27  C   UNL     1       2.377   6.645  20.065  0.00  0.00    +0.000 A 
ATOM     28  C   UNL     1       1.833   7.908  19.750  0.00  0.00    +0.000 A 
ATOM     29  C   UNL     1       2.170   8.483  18.508  0.00  0.00    +0.000 A 
ATOM     30  C   UNL     1       1.659   9.815  18.017  0.00  0.00    +0.000 C 
ATOM     31  C   UNL     1       3.031   7.791  17.628  0.00  0.00    +0.000 A 
ENDBRANCH  19  28
ENDBRANCH  18  21
ENDBRANCH   1  18
TORSDOF 3
ENDMDL
MODEL 6
REMARK VINA RESULT:      -8.3      5.536     10.877
REMARK  Name = 
REMARK  5 active torsions:
REMARK  status: ('A' for Active; 'I' for Inactive)
REMARK    1  A    between atoms: C_1  and  C_2
REMARK    2  A    between atoms: C_5  and  C_6
REMARK    3  A    between atoms: C_8  and  C_9
REMARK    4  A    between atoms: C_9  and  N_10
REMARK    5  A    between atoms: C_28  and  C_29
REMARK                            x       y       z     vdW  Elec       q    Type
REMARK                         _______ _______ _______ _____ _____    ______ ____
ROOT
ATOM      1  N   UNL     1      -3.181  13.880  22.180  0.00  0.00    +0.000 N 
ATOM      2  C   UNL     1      -3.160  14.948  21.343  0.00  0.00    +0.000 C 
ATOM      3  O   UNL     1      -2.398  15.899  21.375  0.00  0.00    +0.000 OA
ATOM      4  N   UNL     1      -4.134  14.778  20.386  0.00  0.00    +0.000 N 
ATOM      5  C   UNL     1      -4.770  13.479  20.484  0.00  0.00    +0.000 C 
ATOM      6  C   UNL     1      -6.282  13.624  20.384  0.00  0.00    +0.000 C 
ATOM      7  C   UNL     1      -6.929  12.257  20.249  0.00  0.00    +0.000 C 
ATOM      8  O   UNL     1      -6.466  11.540  19.104  0.00  0.00    +0.000 OA
ATOM      9  C   UNL     1      -5.112  11.530  18.922  0.00  0.00    +0.000 A 
ATOM     10  C   UNL     1      -4.619  10.512  18.101  0.00  0.00    +0.000 A 
ATOM     11  C   UNL     1      -3.250  10.399  17.857  0.00  0.00    +0.000 A 
ATOM     12  C   UNL     1      -2.373  11.325  18.405  0.00  0.00    +0.000 A 
ATOM     13  C   UNL     1      -2.869  12.361  19.195  0.00  0.00    +0.000 A 
ATOM     14  C   UNL     1      -4.242  12.470  19.484  0.00  0.00    +0.000 A 
ATOM     15  C   UNL     1      -4.254  13.075  21.889  0.00  0.00    +0.000 C 
ATOM     16  O   UNL     1      -4.674  12.153  22.578  0.00  0.00    +0.000 OA
ATOM     17  H   UNL     1      -4.142  15.363  19.561  0.00  0.00    +0.000 HD
ENDROOT
BRANCH   1  18
ATOM     18  C   UNL     1      -2.121  13.548  23.105  0.00  0.00    +0.000 C 
BRANCH  18  21
ATOM     19  C   UNL     1       0.214  11.676  21.136  0.00  0.00    +0.000 A 
ATOM     20  N   UNL     1      -0.921  11.753  21.811  0.00  0.00    +0.000 NA
ATOM     21  C   UNL     1      -0.948  13.033  22.322  0.00  0.00    +0.000 A 
ATOM     22  C   UNL     1       0.186  13.697  21.907  0.00  0.00    +0.000 A 
ATOM     23  O   UNL     1       0.931  12.846  21.147  0.00  0.00    +0.000 OA
BRANCH  19  28
ATOM     24  C   UNL     1       2.461   7.300  18.029  0.00  0.00    +0.000 C 
ATOM     25  C   UNL     1       1.883   8.435  18.825  0.00  0.00    +0.000 A 
ATOM     26  C   UNL     1       1.652   9.683  18.253  0.00  0.00    +0.000 A 
ATOM     27  C   UNL     1       1.114  10.726  19.020  0.00  0.00    +0.000 A 
ATOM     28  C   UNL     1       0.794  10.552  20.383  0.00  0.00    +0.000 A 
ATOM     29  C   UNL     1       1.030   9.289  20.963  0.00  0.00    +0.000 A 
ATOM     30  C   UNL     1       0.758   8.950  22.408  0.00  0.00    +0.000 C 
ATOM     31  C   UNL     1       1.570   8.248  20.176  0.00  0.00    +0.000 A 
ENDBRANCH  19  28
ENDBRANCH  18  21
ENDBRANCH   1  18
TORSDOF 3
ENDMDL
MODEL 7
REMARK VINA RESULT:      -8.3      2.229      2.989
REMARK  Name = 
REMARK  5 active torsions:
REMARK  status: ('A' for Active; 'I' for Inactive)
REMARK    1  A    between atoms: C_1  and  C_2
REMARK    2  A    between atoms: C_5  and  C_6
REMARK    3  A    between atoms: C_8  and  C_9
REMARK    4  A    between atoms: C_9  and  N_10
REMARK    5  A    between atoms: C_28  and  C_29
REMARK                            x       y       z     vdW  Elec       q    Type
REMARK                         _______ _______ _______ _____ _____    ______ ____
ROOT
ATOM      1  N   UNL     1       3.025   6.380  18.076  0.00  0.00    +0.000 N 
ATOM      2  C   UNL     1       2.802   5.164  18.636  0.00  0.00    +0.000 C 
ATOM      3  O   UNL     1       1.726   4.655  18.900  0.00  0.00    +0.000 OA
ATOM      4  N   UNL     1       4.014   4.540  18.833  0.00  0.00    +0.000 N 
ATOM      5  C   UNL     1       5.112   5.299  18.269  0.00  0.00    +0.000 C 
ATOM      6  C   UNL     1       6.264   5.375  19.260  0.00  0.00    +0.000 C 
ATOM      7  C   UNL     1       7.494   5.959  18.587  0.00  0.00    +0.000 C 
ATOM      8  O   UNL     1       7.918   5.196  17.458  0.00  0.00    +0.000 OA
ATOM      9  C   UNL     1       6.931   4.834  16.584  0.00  0.00    +0.000 A 
ATOM     10  C   UNL     1       7.356   4.486  15.300  0.00  0.00    +0.000 A 
ATOM     11  C   UNL     1       6.431   4.113  14.324  0.00  0.00    +0.000 A 
ATOM     12  C   UNL     1       5.081   4.055  14.641  0.00  0.00    +0.000 A 
ATOM     13  C   UNL     1       4.660   4.369  15.933  0.00  0.00    +0.000 A 
ATOM     14  C   UNL     1       5.574   4.783  16.920  0.00  0.00    +0.000 A 
ATOM     15  C   UNL     1       4.372   6.642  18.039  0.00  0.00    +0.000 C 
ATOM     16  O   UNL     1       4.891   7.723  17.788  0.00  0.00    +0.000 OA
ATOM     17  H   UNL     1       4.046   3.554  19.052  0.00  0.00    +0.000 HD
ENDROOT
BRANCH   1  18
ATOM     18  C   UNL     1       2.005   7.184  17.441  0.00  0.00    +0.000 C 
BRANCH  18  21
ATOM     19  C   UNL     1       1.413  10.477  18.718  0.00  0.00    +0.000 A 
ATOM     20  N   UNL     1       1.674   9.664  17.708  0.00  0.00    +0.000 NA
ATOM     21  C   UNL     1       1.778   8.412  18.274  0.00  0.00    +0.000 A 
ATOM     22  C   UNL     1       1.549   8.520  19.629  0.00  0.00    +0.000 A 
ATOM     23  O   UNL     1       1.310   9.829  19.923  0.00  0.00    +0.000 OA
BRANCH  19  28
ATOM     24  C   UNL     1       0.735  16.255  18.840  0.00  0.00    +0.000 C 
ATOM     25  C   UNL     1       0.918  14.765  18.807  0.00  0.00    +0.000 A 
ATOM     26  C   UNL     1       2.181  14.183  18.880  0.00  0.00    +0.000 A 
ATOM     27  C   UNL     1       2.323  12.790  18.845  0.00  0.00    +0.000 A 
ATOM     28  C   UNL     1       1.207  11.935  18.732  0.00  0.00    +0.000 A 
ATOM     29  C   UNL     1      -0.072  12.523  18.656  0.00  0.00    +0.000 A 
ATOM     30  C   UNL     1      -1.360  11.750  18.515  0.00  0.00    +0.000 C 
ATOM     31  C   UNL     1      -0.199  13.929  18.695  0.00  0.00    +0.000 A 
ENDBRANCH  19  28
ENDBRANCH  18  21
ENDBRANCH   1  18
TORSDOF 3
ENDMDL
MODEL 8
REMARK VINA RESULT:      -8.2      1.442      1.800
REMARK  Name = 
REMARK  5 active torsions:
REMARK  status: ('A' for Active; 'I' for Inactive)
REMARK    1  A    between atoms: C_1  and  C_2
REMARK    2  A    between atoms: C_5  and  C_6
REMARK    3  A    between atoms: C_8  and  C_9
REMARK    4  A    between atoms: C_9  and  N_10
REMARK    5  A    between atoms: C_28  and  C_29
REMARK                            x       y       z     vdW  Elec       q    Type
REMARK                         _______ _______ _______ _____ _____    ______ ____
ROOT
ATOM      1  N   UNL     1       3.358   5.938  18.277  0.00  0.00    +0.000 N 
ATOM      2  C   UNL     1       3.030   4.641  18.511  0.00  0.00    +0.000 C 
ATOM      3  O   UNL     1       1.919   4.184  18.718  0.00  0.00    +0.000 OA
ATOM      4  N   UNL     1       4.172   3.877  18.436  0.00  0.00    +0.000 N 
ATOM      5  C   UNL     1       5.318   4.654  18.004  0.00  0.00    +0.000 C 
ATOM      6  C   UNL     1       6.523   4.348  18.881  0.00  0.00    +0.000 C 
ATOM      7  C   UNL     1       7.772   4.975  18.289  0.00  0.00    +0.000 C 
ATOM      8  O   UNL     1       8.046   4.512  16.966  0.00  0.00    +0.000 OA
ATOM      9  C   UNL     1       6.978   4.496  16.113  0.00  0.00    +0.000 A 
ATOM     10  C   UNL     1       7.292   4.472  14.751  0.00  0.00    +0.000 A 
ATOM     11  C   UNL     1       6.279   4.468  13.792  0.00  0.00    +0.000 A 
ATOM     12  C   UNL     1       4.950   4.453  14.191  0.00  0.00    +0.000 A 
ATOM     13  C   UNL     1       4.638   4.441  15.551  0.00  0.00    +0.000 A 
ATOM     14  C   UNL     1       5.645   4.484  16.533  0.00  0.00    +0.000 A 
ATOM     15  C   UNL     1       4.722   6.072  18.200  0.00  0.00    +0.000 C 
ATOM     16  O   UNL     1       5.345   7.126  18.203  0.00  0.00    +0.000 OA
ATOM     17  H   UNL     1       4.105   2.869  18.381  0.00  0.00    +0.000 HD
ENDROOT
BRANCH   1  18
ATOM     18  C   UNL     1       2.402   6.976  17.965  0.00  0.00    +0.000 C 
BRANCH  18  21
ATOM     19  C   UNL     1       1.049   9.065  20.540  0.00  0.00    +0.000 A 
ATOM     20  N   UNL     1       1.377   8.864  19.275  0.00  0.00    +0.000 NA
ATOM     21  C   UNL     1       1.950   7.611  19.248  0.00  0.00    +0.000 A 
ATOM     22  C   UNL     1       1.924   7.086  20.521  0.00  0.00    +0.000 A 
ATOM     23  O   UNL     1       1.347   8.000  21.352  0.00  0.00    +0.000 OA
BRANCH  19  28
ATOM     24  C   UNL     1      -1.567  13.564  23.140  0.00  0.00    +0.000 C 
ATOM     25  C   UNL     1      -0.894  12.399  22.476  0.00  0.00    +0.000 A 
ATOM     26  C   UNL     1      -1.030  11.102  22.965  0.00  0.00    +0.000 A 
ATOM     27  C   UNL     1      -0.388  10.032  22.326  0.00  0.00    +0.000 A 
ATOM     28  C   UNL     1       0.413  10.227  21.182  0.00  0.00    +0.000 A 
ATOM     29  C   UNL     1       0.553  11.539  20.687  0.00  0.00    +0.000 A 
ATOM     30  C   UNL     1       1.387  11.915  19.487  0.00  0.00    +0.000 C 
ATOM     31  C   UNL     1      -0.103  12.606  21.341  0.00  0.00    +0.000 A 
ENDBRANCH  19  28
ENDBRANCH  18  21
ENDBRANCH   1  18
TORSDOF 3
ENDMDL
MODEL 9
REMARK VINA RESULT:      -8.1      3.864      9.282
REMARK  Name = 
REMARK  5 active torsions:
REMARK  status: ('A' for Active; 'I' for Inactive)
REMARK    1  A    between atoms: C_1  and  C_2
REMARK    2  A    between atoms: C_5  and  C_6
REMARK    3  A    between atoms: C_8  and  C_9
REMARK    4  A    between atoms: C_9  and  N_10
REMARK    5  A    between atoms: C_28  and  C_29
REMARK                            x       y       z     vdW  Elec       q    Type
REMARK                         _______ _______ _______ _____ _____    ______ ____
ROOT
ATOM      1  N   UNL     1       0.270  11.964  19.940  0.00  0.00    +0.000 N 
ATOM      2  C   UNL     1      -0.254  12.032  18.690  0.00  0.00    +0.000 C 
ATOM      3  O   UNL     1      -1.138  11.337  18.218  0.00  0.00    +0.000 OA
ATOM      4  N   UNL     1       0.350  13.067  18.014  0.00  0.00    +0.000 N 
ATOM      5  C   UNL     1       1.235  13.832  18.871  0.00  0.00    +0.000 C 
ATOM      6  C   UNL     1       2.558  14.090  18.166  0.00  0.00    +0.000 C 
ATOM      7  C   UNL     1       3.387  15.083  18.960  0.00  0.00    +0.000 C 
ATOM      8  O   UNL     1       2.722  16.333  19.145  0.00  0.00    +0.000 OA
ATOM      9  C   UNL     1       1.419  16.253  19.550  0.00  0.00    +0.000 A 
ATOM     10  C   UNL     1       0.897  17.406  20.143  0.00  0.00    +0.000 A 
ATOM     11  C   UNL     1      -0.418  17.432  20.605  0.00  0.00    +0.000 A 
ATOM     12  C   UNL     1      -1.227  16.316  20.444  0.00  0.00    +0.000 A 
ATOM     13  C   UNL     1      -0.717  15.177  19.822  0.00  0.00    +0.000 A 
ATOM     14  C   UNL     1       0.619  15.119  19.383  0.00  0.00    +0.000 A 
ATOM     15  C   UNL     1       1.322  12.838  20.058  0.00  0.00    +0.000 C 
ATOM     16  O   UNL     1       2.131  12.876  20.977  0.00  0.00    +0.000 OA
ATOM     17  H   UNL     1      -0.043  13.403  17.145  0.00  0.00    +0.000 HD
ENDROOT
BRANCH   1  18
ATOM     18  C   UNL     1      -0.320  11.224  21.032  0.00  0.00    +0.000 C 
BRANCH  18  21
ATOM     19  C   UNL     1       1.420   8.122  20.605  0.00  0.00    +0.000 A 
ATOM     20  N   UNL     1       0.712   9.123  20.108  0.00  0.00    +0.000 NA
ATOM     21  C   UNL     1       0.422   9.928  21.188  0.00  0.00    +0.000 A 
ATOM     22  C   UNL     1       0.997   9.380  22.314  0.00  0.00    +0.000 A 
ATOM     23  O   UNL     1       1.639   8.233  21.955  0.00  0.00    +0.000 OA
BRANCH  19  28
ATOM     24  C   UNL     1       3.735   3.414  18.090  0.00  0.00    +0.000 C 
ATOM     25  C   UNL     1       3.134   4.624  18.745  0.00  0.00    +0.000 A 
ATOM     26  C   UNL     1       2.545   4.555  20.005  0.00  0.00    +0.000 A 
ATOM     27  C   UNL     1       1.989   5.700  20.591  0.00  0.00    +0.000 A 
ATOM     28  C   UNL     1       2.002   6.948  19.934  0.00  0.00    +0.000 A 
ATOM     29  C   UNL     1       2.595   7.019  18.658  0.00  0.00    +0.000 A 
ATOM     30  C   UNL     1       2.673   8.271  17.821  0.00  0.00    +0.000 C 
ATOM     31  C   UNL     1       3.154   5.856  18.082  0.00  0.00    +0.000 A 
ENDBRANCH  19  28
ENDBRANCH  18  21
ENDBRANCH   1  18
TORSDOF 3
ENDMDL
