MODEL 1
REMARK VINA RESULT:      -9.4      0.000      0.000
REMARK  Name = 
REMARK  5 active torsions:
REMARK  status: ('A' for Active; 'I' for Inactive)
REMARK    1  A    between atoms: C_2  and  C_20
REMARK    2  A    between atoms: N_3  and  C_4
REMARK    3  A    between atoms: C_4  and  C_5
REMARK    4  A    between atoms: C_5  and  C_6
REMARK    5  A    between atoms: C_11  and  N_12
REMARK                            x       y       z     vdW  Elec       q    Type
REMARK                         _______ _______ _______ _____ _____    ______ ____
ROOT
ATOM      1  C   UNL     1       7.977   8.044  18.007  0.00  0.00    +0.000 C 
ENDROOT
BRANCH   1   4
ATOM      2  O   UNL     1       9.293   9.779  19.764  0.00  0.00    +0.000 OA
ATOM      3  C   UNL     1       9.058  10.162  18.623  0.00  0.00    +0.000 C 
ATOM      4  N   UNL     1       8.375   9.405  17.693  0.00  0.00    +0.000 N 
ATOM      5  H   UNL     1       8.454   9.655  16.716  0.00  0.00    +0.000 HD
BRANCH   3   6
ATOM      6  C   UNL     1       9.545  11.493  18.183  0.00  0.00    +0.000 A 
ATOM      7  C   UNL     1      10.844  11.565  17.673  0.00  0.00    +0.000 A 
ATOM      8  C   UNL     1      11.376  12.792  17.280  0.00  0.00    +0.000 A 
ATOM      9  C   UNL     1      10.622  13.967  17.407  0.00  0.00    +0.000 A 
ATOM     10  C   UNL     1      11.157  15.208  17.031  0.00  0.00    +0.000 A 
ATOM     11  C   UNL     1      10.411  16.377  17.175  0.00  0.00    +0.000 A 
ATOM     12  C   UNL     1       9.122  16.319  17.695  0.00  0.00    +0.000 A 
ATOM     13  C   UNL     1       8.573  15.091  18.071  0.00  0.00    +0.000 A 
ATOM     14  C   UNL     1       9.309  13.902  17.932  0.00  0.00    +0.000 A 
ATOM     15  C   UNL     1       8.779  12.657  18.316  0.00  0.00    +0.000 A 
ENDBRANCH   3   6
ENDBRANCH   1   4
BRANCH   1  16
ATOM     16  C   UNL     1       6.754   7.595  17.210  0.00  0.00    +0.000 C 
BRANCH  16  17
ATOM     17  C   UNL     1       6.621   6.090  17.224  0.00  0.00    +0.000 C 
ATOM     18  O   UNL     1       7.573   5.365  16.931  0.00  0.00    +0.000 OA
ATOM     19  N   UNL     1       5.370   5.569  17.555  0.00  0.00    +0.000 N 
ATOM     20  C   UNL     1       5.274   4.127  17.731  0.00  0.00    +0.000 C 
ATOM     21  C   UNL     1       3.932   3.577  17.263  0.00  0.00    +0.000 C 
ATOM     22  C   UNL     1       2.730   4.345  17.825  0.00  0.00    +0.000 C 
ATOM     23  C   UNL     1       2.917   5.857  17.625  0.00  0.00    +0.000 C 
ATOM     24  C   UNL     1       4.269   6.358  18.115  0.00  0.00    +0.000 C 
BRANCH  22  25
ATOM     25  N   UNL     1       2.357   3.978  19.198  0.00  0.00    +0.000 N 
ATOM     26  C   UNL     1       2.719   4.714  20.387  0.00  0.00    +0.000 C 
ATOM     27  C   UNL     1       2.347   3.773  21.514  0.00  0.00    +0.000 C 
ATOM     28  C   UNL     1       1.138   3.031  20.971  0.00  0.00    +0.000 C 
ATOM     29  C   UNL     1       1.393   3.011  19.482  0.00  0.00    +0.000 C 
ATOM     30  O   UNL     1       0.810   2.305  18.677  0.00  0.00    +0.000 OA
ENDBRANCH  22  25
ENDBRANCH  16  17
ENDBRANCH   1  16
TORSDOF 5
ENDMDL
MODEL 2
REMARK VINA RESULT:      -8.9      1.024      1.500
REMARK  Name = 
REMARK  5 active torsions:
REMARK  status: ('A' for Active; 'I' for Inactive)
REMARK    1  A    between atoms: C_2  and  C_20
REMARK    2  A    between atoms: N_3  and  C_4
REMARK    3  A    between atoms: C_4  and  C_5
REMARK    4  A    between atoms: C_5  and  C_6
REMARK    5  A    between atoms: C_11  and  N_12
REMARK                            x       y       z     vdW  Elec       q    Type
REMARK                         _______ _______ _______ _____ _____    ______ ____
ROOT
ATOM      1  C   UNL     1       7.696   7.728  17.485  0.00  0.00    +0.000 C 
ENDROOT
BRANCH   1   4
ATOM      2  O   UNL     1       9.172   8.982  19.504  0.00  0.00    +0.000 OA
ATOM      3  C   UNL     1       8.792   9.652  18.549  0.00  0.00    +0.000 C 
ATOM      4  N   UNL     1       8.020   9.144  17.524  0.00  0.00    +0.000 N 
ATOM      5  H   UNL     1       7.974   9.658  16.654  0.00  0.00    +0.000 HD
BRANCH   3   6
ATOM      6  C   UNL     1       9.189  11.078  18.451  0.00  0.00    +0.000 A 
ATOM      7  C   UNL     1       8.383  11.918  17.678  0.00  0.00    +0.000 A 
ATOM      8  C   UNL     1       8.723  13.260  17.512  0.00  0.00    +0.000 A 
ATOM      9  C   UNL     1       9.883  13.776  18.104  0.00  0.00    +0.000 A 
ATOM     10  C   UNL     1      10.242  15.121  17.926  0.00  0.00    +0.000 A 
ATOM     11  C   UNL     1      11.406  15.629  18.501  0.00  0.00    +0.000 A 
ATOM     12  C   UNL     1      12.224  14.798  19.261  0.00  0.00    +0.000 A 
ATOM     13  C   UNL     1      11.880  13.458  19.452  0.00  0.00    +0.000 A 
ATOM     14  C   UNL     1      10.710  12.930  18.881  0.00  0.00    +0.000 A 
ATOM     15  C   UNL     1      10.351  11.580  19.049  0.00  0.00    +0.000 A 
ENDBRANCH   3   6
ENDBRANCH   1   4
BRANCH   1  16
ATOM     16  C   UNL     1       6.234   7.474  17.124  0.00  0.00    +0.000 C 
BRANCH  16  17
ATOM     17  C   UNL     1       5.964   5.996  16.963  0.00  0.00    +0.000 C 
ATOM     18  O   UNL     1       6.779   5.259  16.405  0.00  0.00    +0.000 OA
ATOM     19  N   UNL     1       4.747   5.519  17.450  0.00  0.00    +0.000 N 
ATOM     20  C   UNL     1       4.549   4.077  17.448  0.00  0.00    +0.000 C 
ATOM     21  C   UNL     1       3.100   3.694  17.169  0.00  0.00    +0.000 C 
ATOM     22  C   UNL     1       2.092   4.452  18.042  0.00  0.00    +0.000 C 
ATOM     23  C   UNL     1       2.382   5.960  18.012  0.00  0.00    +0.000 C 
ATOM     24  C   UNL     1       3.840   6.291  18.304  0.00  0.00    +0.000 C 
BRANCH  22  25
ATOM     25  N   UNL     1       1.931   3.913  19.399  0.00  0.00    +0.000 N 
ATOM     26  C   UNL     1       2.453   4.516  20.604  0.00  0.00    +0.000 C 
ATOM     27  C   UNL     1       2.266   3.437  21.650  0.00  0.00    +0.000 C 
ATOM     28  C   UNL     1       1.003   2.723  21.201  0.00  0.00    +0.000 C 
ATOM     29  C   UNL     1       1.036   2.887  19.700  0.00  0.00    +0.000 C 
ATOM     30  O   UNL     1       0.352   2.262  18.908  0.00  0.00    +0.000 OA
ENDBRANCH  22  25
ENDBRANCH  16  17
ENDBRANCH   1  16
TORSDOF 5
ENDMDL
MODEL 3
REMARK VINA RESULT:      -8.9      1.597      2.262
REMARK  Name = 
REMARK  5 active torsions:
REMARK  status: ('A' for Active; 'I' for Inactive)
REMARK    1  A    between atoms: C_2  and  C_20
REMARK    2  A    between atoms: N_3  and  C_4
REMARK    3  A    between atoms: C_4  and  C_5
REMARK    4  A    between atoms: C_5  and  C_6
REMARK    5  A    between atoms: C_11  and  N_12
REMARK                            x       y       z     vdW  Elec       q    Type
REMARK                         _______ _______ _______ _____ _____    ______ ____
ROOT
ATOM      1  C   UNL     1       7.220   6.698  16.680  0.00  0.00    +0.000 C 
ENDROOT
BRANCH   1   4
ATOM      2  O   UNL     1       8.627   7.510  18.959  0.00  0.00    +0.000 OA
ATOM      3  C   UNL     1       8.235   8.366  18.172  0.00  0.00    +0.000 C 
ATOM      4  N   UNL     1       7.495   8.078  17.043  0.00  0.00    +0.000 N 
ATOM      5  H   UNL     1       7.442   8.774  16.311  0.00  0.00    +0.000 HD
BRANCH   3   6
ATOM      6  C   UNL     1       8.584   9.788  18.405  0.00  0.00    +0.000 A 
ATOM      7  C   UNL     1       8.120  10.725  17.477  0.00  0.00    +0.000 A 
ATOM      8  C   UNL     1       8.446  12.072  17.617  0.00  0.00    +0.000 A 
ATOM      9  C   UNL     1       9.256  12.501  18.677  0.00  0.00    +0.000 A 
ATOM     10  C   UNL     1       9.604  13.853  18.814  0.00  0.00    +0.000 A 
ATOM     11  C   UNL     1      10.424  14.274  19.860  0.00  0.00    +0.000 A 
ATOM     12  C   UNL     1      10.904  13.349  20.782  0.00  0.00    +0.000 A 
ATOM     13  C   UNL     1      10.563  12.000  20.663  0.00  0.00    +0.000 A 
ATOM     14  C   UNL     1       9.737  11.557  19.616  0.00  0.00    +0.000 A 
ATOM     15  C   UNL     1       9.393  10.201  19.470  0.00  0.00    +0.000 A 
ENDBRANCH   3   6
ENDBRANCH   1   4
BRANCH   1  16
ATOM     16  C   UNL     1       5.837   6.523  16.058  0.00  0.00    +0.000 C 
BRANCH  16  17
ATOM     17  C   UNL     1       5.383   5.084  16.142  0.00  0.00    +0.000 C 
ATOM     18  O   UNL     1       5.972   4.196  15.524  0.00  0.00    +0.000 OA
ATOM     19  N   UNL     1       4.260   4.821  16.925  0.00  0.00    +0.000 N 
ATOM     20  C   UNL     1       3.914   3.424  17.145  0.00  0.00    +0.000 C 
ATOM     21  C   UNL     1       2.407   3.208  17.221  0.00  0.00    +0.000 C 
ATOM     22  C   UNL     1       1.702   4.172  18.182  0.00  0.00    +0.000 C 
ATOM     23  C   UNL     1       2.137   5.620  17.906  0.00  0.00    +0.000 C 
ATOM     24  C   UNL     1       3.650   5.784  17.846  0.00  0.00    +0.000 C 
BRANCH  22  25
ATOM     25  N   UNL     1       1.788   3.796  19.600  0.00  0.00    +0.000 N 
ATOM     26  C   UNL     1       1.920   4.720  20.703  0.00  0.00    +0.000 C 
ATOM     27  C   UNL     1       2.254   3.826  21.878  0.00  0.00    +0.000 C 
ATOM     28  C   UNL     1       1.508   2.539  21.567  0.00  0.00    +0.000 C 
ATOM     29  C   UNL     1       1.496   2.511  20.056  0.00  0.00    +0.000 C 
ATOM     30  O   UNL     1       1.223   1.540  19.372  0.00  0.00    +0.000 OA
ENDBRANCH  22  25
ENDBRANCH  16  17
ENDBRANCH   1  16
TORSDOF 5
ENDMDL
MODEL 4
REMARK VINA RESULT:      -8.3      0.624      1.331
REMARK  Name = 
REMARK  5 active torsions:
REMARK  status: ('A' for Active; 'I' for Inactive)
REMARK    1  A    between atoms: C_2  and  C_20
REMARK    2  A    between atoms: N_3  and  C_4
REMARK    3  A    between atoms: C_4  and  C_5
REMARK    4  A    between atoms: C_5  and  C_6
REMARK    5  A    between atoms: C_11  and  N_12
REMARK                            x       y       z     vdW  Elec       q    Type
REMARK                         _______ _______ _______ _____ _____    ______ ____
ROOT
ATOM      1  C   UNL     1       8.111   8.166  17.658  0.00  0.00    +0.000 C 
ENDROOT
BRANCH   1   4
ATOM      2  O   UNL     1       9.339   9.538  19.764  0.00  0.00    +0.000 OA
ATOM      3  C   UNL     1       8.988  10.171  18.774  0.00  0.00    +0.000 C 
ATOM      4  N   UNL     1       8.334   9.601  17.701  0.00  0.00    +0.000 N 
ATOM      5  H   UNL     1       8.319  10.103  16.823  0.00  0.00    +0.000 HD
BRANCH   3   6
ATOM      6  C   UNL     1       9.293  11.620  18.686  0.00  0.00    +0.000 A 
ATOM      7  C   UNL     1       8.629  12.472  19.573  0.00  0.00    +0.000 A 
ATOM      8  C   UNL     1       8.841  13.849  19.515  0.00  0.00    +0.000 A 
ATOM      9  C   UNL     1       9.707  14.394  18.558  0.00  0.00    +0.000 A 
ATOM     10  C   UNL     1       9.910  15.780  18.481  0.00  0.00    +0.000 A 
ATOM     11  C   UNL     1      10.759  16.322  17.517  0.00  0.00    +0.000 A 
ATOM     12  C   UNL     1      11.414  15.485  16.619  0.00  0.00    +0.000 A 
ATOM     13  C   UNL     1      11.226  14.103  16.684  0.00  0.00    +0.000 A 
ATOM     14  C   UNL     1      10.376  13.539  17.650  0.00  0.00    +0.000 A 
ATOM     15  C   UNL     1      10.162  12.150  17.725  0.00  0.00    +0.000 A 
ENDBRANCH   3   6
ENDBRANCH   1   4
BRANCH   1  16
ATOM     16  C   UNL     1       6.632   7.809  17.537  0.00  0.00    +0.000 C 
BRANCH  16  17
ATOM     17  C   UNL     1       6.448   6.323  17.331  0.00  0.00    +0.000 C 
ATOM     18  O   UNL     1       7.360   5.627  16.884  0.00  0.00    +0.000 OA
ATOM     19  N   UNL     1       5.197   5.792  17.644  0.00  0.00    +0.000 N 
ATOM     20  C   UNL     1       5.060   4.343  17.605  0.00  0.00    +0.000 C 
ATOM     21  C   UNL     1       3.680   3.906  17.129  0.00  0.00    +0.000 C 
ATOM     22  C   UNL     1       2.533   4.611  17.862  0.00  0.00    +0.000 C 
ATOM     23  C   UNL     1       2.761   6.130  17.882  0.00  0.00    +0.000 C 
ATOM     24  C   UNL     1       4.151   6.515  18.372  0.00  0.00    +0.000 C 
BRANCH  22  25
ATOM     25  N   UNL     1       2.212   4.049  19.181  0.00  0.00    +0.000 N 
ATOM     26  C   UNL     1       2.596   4.624  20.450  0.00  0.00    +0.000 C 
ATOM     27  C   UNL     1       2.281   3.529  21.446  0.00  0.00    +0.000 C 
ATOM     28  C   UNL     1       1.071   2.837  20.841  0.00  0.00    +0.000 C 
ATOM     29  C   UNL     1       1.279   3.028  19.357  0.00  0.00    +0.000 C 
ATOM     30  O   UNL     1       0.685   2.424  18.479  0.00  0.00    +0.000 OA
ENDBRANCH  22  25
ENDBRANCH  16  17
ENDBRANCH   1  16
TORSDOF 5
ENDMDL
MODEL 5
REMARK VINA RESULT:      -8.2      2.449     10.980
REMARK  Name = 
REMARK  5 active torsions:
REMARK  status: ('A' for Active; 'I' for Inactive)
REMARK    1  A    between atoms: C_2  and  C_20
REMARK    2  A    between atoms: N_3  and  C_4
REMARK    3  A    between atoms: C_4  and  C_5
REMARK    4  A    between atoms: C_5  and  C_6
REMARK    5  A    between atoms: C_11  and  N_12
REMARK                            x       y       z     vdW  Elec       q    Type
REMARK                         _______ _______ _______ _____ _____    ______ ____
ROOT
ATOM      1  C   UNL     1       8.065   7.385  17.643  0.00  0.00    +0.000 C 
ENDROOT
BRANCH   1   4
ATOM      2  O   UNL     1       5.719   7.075  16.150  0.00  0.00    +0.000 OA
ATOM      3  C   UNL     1       5.822   6.477  17.216  0.00  0.00    +0.000 C 
ATOM      4  N   UNL     1       6.915   6.595  18.051  0.00  0.00    +0.000 N 
ATOM      5  H   UNL     1       7.062   5.886  18.757  0.00  0.00    +0.000 HD
BRANCH   3   6
ATOM      6  C   UNL     1       4.745   5.551  17.643  0.00  0.00    +0.000 A 
ATOM      7  C   UNL     1       4.472   4.457  16.816  0.00  0.00    +0.000 A 
ATOM      8  C   UNL     1       3.445   3.573  17.139  0.00  0.00    +0.000 A 
ATOM      9  C   UNL     1       2.665   3.777  18.286  0.00  0.00    +0.000 A 
ATOM     10  C   UNL     1       1.618   2.901  18.608  0.00  0.00    +0.000 A 
ATOM     11  C   UNL     1       0.833   3.117  19.740  0.00  0.00    +0.000 A 
ATOM     12  C   UNL     1       1.087   4.210  20.563  0.00  0.00    +0.000 A 
ATOM     13  C   UNL     1       2.129   5.089  20.260  0.00  0.00    +0.000 A 
ATOM     14  C   UNL     1       2.931   4.887  19.124  0.00  0.00    +0.000 A 
ATOM     15  C   UNL     1       3.976   5.768  18.792  0.00  0.00    +0.000 A 
ENDBRANCH   3   6
ENDBRANCH   1   4
BRANCH   1  16
ATOM     16  C   UNL     1       8.392   8.495  18.638  0.00  0.00    +0.000 C 
BRANCH  16  17
ATOM     17  C   UNL     1       8.247   9.857  17.999  0.00  0.00    +0.000 C 
ATOM     18  O   UNL     1       7.418  10.054  17.109  0.00  0.00    +0.000 OA
ATOM     19  N   UNL     1       9.108  10.859  18.443  0.00  0.00    +0.000 N 
ATOM     20  C   UNL     1       8.868  12.209  17.954  0.00  0.00    +0.000 C 
ATOM     21  C   UNL     1      10.162  12.990  17.757  0.00  0.00    +0.000 C 
ATOM     22  C   UNL     1      11.096  12.935  18.971  0.00  0.00    +0.000 C 
ATOM     23  C   UNL     1      11.279  11.485  19.443  0.00  0.00    +0.000 C 
ATOM     24  C   UNL     1       9.959  10.750  19.632  0.00  0.00    +0.000 C 
BRANCH  22  25
ATOM     25  N   UNL     1      10.747  13.864  20.055  0.00  0.00    +0.000 N 
ATOM     26  C   UNL     1      10.088  13.499  21.288  0.00  0.00    +0.000 C 
ATOM     27  C   UNL     1       9.713  14.832  21.898  0.00  0.00    +0.000 C 
ATOM     28  C   UNL     1      10.831  15.756  21.447  0.00  0.00    +0.000 C 
ATOM     29  C   UNL     1      11.244  15.165  20.119  0.00  0.00    +0.000 C 
ATOM     30  O   UNL     1      11.938  15.722  19.286  0.00  0.00    +0.000 OA
ENDBRANCH  22  25
ENDBRANCH  16  17
ENDBRANCH   1  16
TORSDOF 5
ENDMDL
MODEL 6
REMARK VINA RESULT:      -8.2      0.898      1.021
REMARK  Name = 
REMARK  5 active torsions:
REMARK  status: ('A' for Active; 'I' for Inactive)
REMARK    1  A    between atoms: C_2  and  C_20
REMARK    2  A    between atoms: N_3  and  C_4
REMARK    3  A    between atoms: C_4  and  C_5
REMARK    4  A    between atoms: C_5  and  C_6
REMARK    5  A    between atoms: C_11  and  N_12
REMARK                            x       y       z     vdW  Elec       q    Type
REMARK                         _______ _______ _______ _____ _____    ______ ____
ROOT
ATOM      1  C   UNL     1       8.096   8.099  18.122  0.00  0.00    +0.000 C 
ENDROOT
BRANCH   1   4
ATOM      2  O   UNL     1       9.198   9.976  19.880  0.00  0.00    +0.000 OA
ATOM      3  C   UNL     1       9.079  10.276  18.697  0.00  0.00    +0.000 C 
ATOM      4  N   UNL     1       8.507   9.444  17.756  0.00  0.00    +0.000 N 
ATOM      5  H   UNL     1       8.685   9.628  16.777  0.00  0.00    +0.000 HD
BRANCH   3   6
ATOM      6  C   UNL     1       9.592  11.583  18.218  0.00  0.00    +0.000 A 
ATOM      7  C   UNL     1      10.871  11.605  17.654  0.00  0.00    +0.000 A 
ATOM      8  C   UNL     1      11.426  12.808  17.221  0.00  0.00    +0.000 A 
ATOM      9  C   UNL     1      10.718  14.009  17.361  0.00  0.00    +0.000 A 
ATOM     10  C   UNL     1      11.278  15.225  16.945  0.00  0.00    +0.000 A 
ATOM     11  C   UNL     1      10.578  16.421  17.101  0.00  0.00    +0.000 A 
ATOM     12  C   UNL     1       9.310  16.414  17.674  0.00  0.00    +0.000 A 
ATOM     13  C   UNL     1       8.736  15.211  18.090  0.00  0.00    +0.000 A 
ATOM     14  C   UNL     1       9.426  13.996  17.939  0.00  0.00    +0.000 A 
ATOM     15  C   UNL     1       8.871  12.775  18.364  0.00  0.00    +0.000 A 
ENDBRANCH   3   6
ENDBRANCH   1   4
BRANCH   1  16
ATOM     16  C   UNL     1       6.802   7.676  17.432  0.00  0.00    +0.000 C 
BRANCH  16  17
ATOM     17  C   UNL     1       6.718   6.173  17.309  0.00  0.00    +0.000 C 
ATOM     18  O   UNL     1       7.686   5.513  16.929  0.00  0.00    +0.000 OA
ATOM     19  N   UNL     1       5.495   5.580  17.620  0.00  0.00    +0.000 N 
ATOM     20  C   UNL     1       5.451   4.126  17.664  0.00  0.00    +0.000 C 
ATOM     21  C   UNL     1       4.116   3.574  17.177  0.00  0.00    +0.000 C 
ATOM     22  C   UNL     1       2.905   4.244  17.836  0.00  0.00    +0.000 C 
ATOM     23  C   UNL     1       3.036   5.773  17.773  0.00  0.00    +0.000 C 
ATOM     24  C   UNL     1       4.383   6.275  18.275  0.00  0.00    +0.000 C 
BRANCH  22  25
ATOM     25  N   UNL     1       2.580   3.739  19.177  0.00  0.00    +0.000 N 
ATOM     26  C   UNL     1       1.247   3.601  19.717  0.00  0.00    +0.000 C 
ATOM     27  C   UNL     1       1.486   3.331  21.187  0.00  0.00    +0.000 C 
ATOM     28  C   UNL     1       2.793   2.557  21.198  0.00  0.00    +0.000 C 
ATOM     29  C   UNL     1       3.517   3.099  19.987  0.00  0.00    +0.000 C 
ATOM     30  O   UNL     1       4.703   2.945  19.749  0.00  0.00    +0.000 OA
ENDBRANCH  22  25
ENDBRANCH  16  17
ENDBRANCH   1  16
TORSDOF 5
ENDMDL
MODEL 7
REMARK VINA RESULT:      -8.2      5.789     10.554
REMARK  Name = 
REMARK  5 active torsions:
REMARK  status: ('A' for Active; 'I' for Inactive)
REMARK    1  A    between atoms: C_2  and  C_20
REMARK    2  A    between atoms: N_3  and  C_4
REMARK    3  A    between atoms: C_4  and  C_5
REMARK    4  A    between atoms: C_5  and  C_6
REMARK    5  A    between atoms: C_11  and  N_12
REMARK                            x       y       z     vdW  Elec       q    Type
REMARK                         _______ _______ _______ _____ _____    ______ ____
ROOT
ATOM      1  C   UNL     1       1.210   8.886  20.268  0.00  0.00    +0.000 C 
ENDROOT
BRANCH   1   4
ATOM      2  O   UNL     1       1.743   6.178  20.724  0.00  0.00    +0.000 OA
ATOM      3  C   UNL     1       2.223   6.714  19.730  0.00  0.00    +0.000 C 
ATOM      4  N   UNL     1       2.061   8.052  19.437  0.00  0.00    +0.000 N 
ATOM      5  H   UNL     1       2.241   8.364  18.491  0.00  0.00    +0.000 HD
BRANCH   3   6
ATOM      6  C   UNL     1       3.001   5.901  18.763  0.00  0.00    +0.000 A 
ATOM      7  C   UNL     1       3.028   4.517  18.962  0.00  0.00    +0.000 A 
ATOM      8  C   UNL     1       3.773   3.701  18.113  0.00  0.00    +0.000 A 
ATOM      9  C   UNL     1       4.515   4.258  17.062  0.00  0.00    +0.000 A 
ATOM     10  C   UNL     1       5.282   3.445  16.215  0.00  0.00    +0.000 A 
ATOM     11  C   UNL     1       6.033   4.003  15.181  0.00  0.00    +0.000 A 
ATOM     12  C   UNL     1       6.024   5.380  14.982  0.00  0.00    +0.000 A 
ATOM     13  C   UNL     1       5.263   6.204  15.814  0.00  0.00    +0.000 A 
ATOM     14  C   UNL     1       4.499   5.659  16.860  0.00  0.00    +0.000 A 
ATOM     15  C   UNL     1       3.736   6.472  17.718  0.00  0.00    +0.000 A 
ENDBRANCH   3   6
ENDBRANCH   1   4
BRANCH   1  16
ATOM     16  C   UNL     1       0.445   9.930  19.458  0.00  0.00    +0.000 C 
BRANCH  16  17
ATOM     17  C   UNL     1       1.387  10.768  18.625  0.00  0.00    +0.000 C 
ATOM     18  O   UNL     1       2.050  10.264  17.717  0.00  0.00    +0.000 OA
ATOM     19  N   UNL     1       1.486  12.120  18.951  0.00  0.00    +0.000 N 
ATOM     20  C   UNL     1       2.262  12.966  18.055  0.00  0.00    +0.000 C 
ATOM     21  C   UNL     1       3.002  14.070  18.801  0.00  0.00    +0.000 C 
ATOM     22  C   UNL     1       2.107  14.856  19.766  0.00  0.00    +0.000 C 
ATOM     23  C   UNL     1       1.304  13.897  20.657  0.00  0.00    +0.000 C 
ATOM     24  C   UNL     1       0.578  12.818  19.866  0.00  0.00    +0.000 C 
BRANCH  22  25
ATOM     25  N   UNL     1       1.283  15.893  19.130  0.00  0.00    +0.000 N 
ATOM     26  C   UNL     1      -0.160  15.880  19.048  0.00  0.00    +0.000 C 
ATOM     27  C   UNL     1      -0.470  16.989  18.067  0.00  0.00    +0.000 C 
ATOM     28  C   UNL     1       0.637  18.000  18.312  0.00  0.00    +0.000 C 
ATOM     29  C   UNL     1       1.794  17.135  18.754  0.00  0.00    +0.000 C 
ATOM     30  O   UNL     1       2.958  17.494  18.818  0.00  0.00    +0.000 OA
ENDBRANCH  22  25
ENDBRANCH  16  17
ENDBRANCH   1  16
TORSDOF 5
ENDMDL
MODEL 8
REMARK VINA RESULT:      -8.2      5.722     10.419
REMARK  Name = 
REMARK  5 active torsions:
REMARK  status: ('A' for Active; 'I' for Inactive)
REMARK    1  A    between atoms: C_2  and  C_20
REMARK    2  A    between atoms: N_3  and  C_4
REMARK    3  A    between atoms: C_4  and  C_5
REMARK    4  A    between atoms: C_5  and  C_6
REMARK    5  A    between atoms: C_11  and  N_12
REMARK                            x       y       z     vdW  Elec       q    Type
REMARK                         _______ _______ _______ _____ _____    ______ ____
ROOT
ATOM      1  C   UNL     1       1.242   8.197  21.286  0.00  0.00    +0.000 C 
ENDROOT
BRANCH   1   4
ATOM      2  O   UNL     1       1.344   5.433  20.864  0.00  0.00    +0.000 OA
ATOM      3  C   UNL     1       2.046   6.161  20.170  0.00  0.00    +0.000 C 
ATOM      4  N   UNL     1       2.105   7.531  20.326  0.00  0.00    +0.000 N 
ATOM      5  H   UNL     1       2.476   8.088  19.566  0.00  0.00    +0.000 HD
BRANCH   3   6
ATOM      6  C   UNL     1       2.862   5.570  19.081  0.00  0.00    +0.000 A 
ATOM      7  C   UNL     1       3.027   4.182  19.082  0.00  0.00    +0.000 A 
ATOM      8  C   UNL     1       3.816   3.569  18.110  0.00  0.00    +0.000 A 
ATOM      9  C   UNL     1       4.463   4.337  17.132  0.00  0.00    +0.000 A 
ATOM     10  C   UNL     1       5.273   3.728  16.162  0.00  0.00    +0.000 A 
ATOM     11  C   UNL     1       5.930   4.495  15.201  0.00  0.00    +0.000 A 
ATOM     12  C   UNL     1       5.784   5.879  15.198  0.00  0.00    +0.000 A 
ATOM     13  C   UNL     1       4.978   6.500  16.155  0.00  0.00    +0.000 A 
ATOM     14  C   UNL     1       4.307   5.744  17.130  0.00  0.00    +0.000 A 
ATOM     15  C   UNL     1       3.501   6.350  18.110  0.00  0.00    +0.000 A 
ENDBRANCH   3   6
ENDBRANCH   1   4
BRANCH   1  16
ATOM     16  C   UNL     1       0.368   9.269  20.640  0.00  0.00    +0.000 C 
BRANCH  16  17
ATOM     17  C   UNL     1       0.496  10.586  21.370  0.00  0.00    +0.000 C 
ATOM     18  O   UNL     1       0.527  10.628  22.601  0.00  0.00    +0.000 OA
ATOM     19  N   UNL     1       0.550  11.739  20.589  0.00  0.00    +0.000 N 
ATOM     20  C   UNL     1       0.837  12.993  21.271  0.00  0.00    +0.000 C 
ATOM     21  C   UNL     1       0.101  14.172  20.646  0.00  0.00    +0.000 C 
ATOM     22  C   UNL     1       0.263  14.251  19.123  0.00  0.00    +0.000 C 
ATOM     23  C   UNL     1      -0.032  12.888  18.480  0.00  0.00    +0.000 C 
ATOM     24  C   UNL     1       0.732  11.745  19.135  0.00  0.00    +0.000 C 
BRANCH  22  25
ATOM     25  N   UNL     1       1.526  14.851  18.672  0.00  0.00    +0.000 N 
ATOM     26  C   UNL     1       2.643  14.125  18.112  0.00  0.00    +0.000 C 
ATOM     27  C   UNL     1       3.759  15.148  18.095  0.00  0.00    +0.000 C 
ATOM     28  C   UNL     1       3.032  16.461  17.856  0.00  0.00    +0.000 C 
ATOM     29  C   UNL     1       1.687  16.226  18.500  0.00  0.00    +0.000 C 
ATOM     30  O   UNL     1       0.872  17.093  18.766  0.00  0.00    +0.000 OA
ENDBRANCH  22  25
ENDBRANCH  16  17
ENDBRANCH   1  16
TORSDOF 5
ENDMDL
MODEL 9
REMARK VINA RESULT:      -8.1      5.722     10.160
REMARK  Name = 
REMARK  5 active torsions:
REMARK  status: ('A' for Active; 'I' for Inactive)
REMARK    1  A    between atoms: C_2  and  C_20
REMARK    2  A    between atoms: N_3  and  C_4
REMARK    3  A    between atoms: C_4  and  C_5
REMARK    4  A    between atoms: C_5  and  C_6
REMARK    5  A    between atoms: C_11  and  N_12
REMARK                            x       y       z     vdW  Elec       q    Type
REMARK                         _______ _______ _______ _____ _____    ______ ____
ROOT
ATOM      1  C   UNL     1       0.962   8.070  21.655  0.00  0.00    +0.000 C 
ENDROOT
BRANCH   1   4
ATOM      2  O   UNL     1       1.600   5.548  20.624  0.00  0.00    +0.000 OA
ATOM      3  C   UNL     1       2.119   6.539  20.121  0.00  0.00    +0.000 C 
ATOM      4  N   UNL     1       1.909   7.823  20.582  0.00  0.00    +0.000 N 
ATOM      5  H   UNL     1       2.137   8.597  19.972  0.00  0.00    +0.000 HD
BRANCH   3   6
ATOM      6  C   UNL     1       3.001   6.382  18.939  0.00  0.00    +0.000 A 
ATOM      7  C   UNL     1       3.230   7.515  18.153  0.00  0.00    +0.000 A 
ATOM      8  C   UNL     1       4.017   7.426  17.006  0.00  0.00    +0.000 A 
ATOM      9  C   UNL     1       4.572   6.199  16.618  0.00  0.00    +0.000 A 
ATOM     10  C   UNL     1       5.349   6.098  15.455  0.00  0.00    +0.000 A 
ATOM     11  C   UNL     1       5.886   4.873  15.062  0.00  0.00    +0.000 A 
ATOM     12  C   UNL     1       5.652   3.735  15.829  0.00  0.00    +0.000 A 
ATOM     13  C   UNL     1       4.884   3.819  16.992  0.00  0.00    +0.000 A 
ATOM     14  C   UNL     1       4.337   5.045  17.404  0.00  0.00    +0.000 A 
ATOM     15  C   UNL     1       3.549   5.150  18.565  0.00  0.00    +0.000 A 
ENDBRANCH   3   6
ENDBRANCH   1   4
BRANCH   1  16
ATOM     16  C   UNL     1      -0.179   8.989  21.226  0.00  0.00    +0.000 C 
BRANCH  16  17
ATOM     17  C   UNL     1      -0.019  10.368  21.823  0.00  0.00    +0.000 C 
ATOM     18  O   UNL     1      -0.055  10.540  23.042  0.00  0.00    +0.000 OA
ATOM     19  N   UNL     1       0.143  11.427  20.931  0.00  0.00    +0.000 N 
ATOM     20  C   UNL     1       0.462  12.731  21.495  0.00  0.00    +0.000 C 
ATOM     21  C   UNL     1      -0.171  13.871  20.707  0.00  0.00    +0.000 C 
ATOM     22  C   UNL     1       0.080  13.779  19.197  0.00  0.00    +0.000 C 
ATOM     23  C   UNL     1      -0.254  12.371  18.682  0.00  0.00    +0.000 C 
ATOM     24  C   UNL     1       0.407  11.268  19.497  0.00  0.00    +0.000 C 
BRANCH  22  25
ATOM     25  N   UNL     1       1.398  14.263  18.764  0.00  0.00    +0.000 N 
ATOM     26  C   UNL     1       2.452  13.441  18.216  0.00  0.00    +0.000 C 
ATOM     27  C   UNL     1       3.656  14.358  18.218  0.00  0.00    +0.000 C 
ATOM     28  C   UNL     1       3.055  15.732  17.975  0.00  0.00    +0.000 C 
ATOM     29  C   UNL     1       1.685  15.618  18.601  0.00  0.00    +0.000 C 
ATOM     30  O   UNL     1       0.949  16.555  18.860  0.00  0.00    +0.000 OA
ENDBRANCH  22  25
ENDBRANCH  16  17
ENDBRANCH   1  16
TORSDOF 5
ENDMDL
