MODEL 1
REMARK VINA RESULT:      -8.3      0.000      0.000
REMARK  Name = 
REMARK  7 active torsions:
REMARK  status: ('A' for Active; 'I' for Inactive)
REMARK    1  A    between atoms: C_2  and  C_3
REMARK    2  A    between atoms: C_3  and  C_4
REMARK    3  A    between atoms: N_10  and  C_11
REMARK    4  A    between atoms: C_11  and  C_12
REMARK    5  A    between atoms: N_14  and  C_15
REMARK    6  A    between atoms: C_20  and  S_21
REMARK    7  A    between atoms: S_21  and  N_24
REMARK                            x       y       z     vdW  Elec       q    Type
REMARK                         _______ _______ _______ _____ _____    ______ ____
ROOT
ATOM      1  C   UNL     1       1.783   8.897  18.558  0.00  0.00    +0.000 C 
ATOM      2  O   UNL     1       1.524   9.184  17.390  0.00  0.00    +0.000 OA
ATOM      3  N   UNL     1       2.285   7.706  19.057  0.00  0.00    +0.000 N 
ATOM      4  H   UNL     1       2.096   7.498  20.035  0.00  0.00    +0.000 HD
ENDROOT
BRANCH   3   5
ATOM      5  C   UNL     1       2.646   6.621  18.214  0.00  0.00    +0.000 A 
ATOM      6  C   UNL     1       1.858   5.475  18.157  0.00  0.00    +0.000 A 
ATOM      7  C   UNL     1       2.394   4.280  17.701  0.00  0.00    +0.000 A 
ATOM      8  C   UNL     1       3.715   4.260  17.268  0.00  0.00    +0.000 A 
ATOM      9 CL   UNL     1       4.620   2.837  17.669  0.00  0.00    +0.000 Cl
ATOM     10  C   UNL     1       4.382   5.449  16.996  0.00  0.00    +0.000 A 
ATOM     11  C   UNL     1       3.858   6.641  17.503  0.00  0.00    +0.000 A 
BRANCH  10  12
ATOM     12  S   UNL     1       5.616   5.485  15.722  0.00  0.00    +0.000 S 
ATOM     13  O   UNL     1       5.539   4.232  15.001  0.00  0.00    +0.000 OA
ATOM     14  O   UNL     1       5.431   6.716  14.978  0.00  0.00    +0.000 OA
BRANCH  12  15
ATOM     15  N   UNL     1       7.117   5.569  16.497  0.00  0.00    +0.000 NA
ATOM     16  C   UNL     1       7.460   4.588  17.539  0.00  0.00    +0.000 C 
ATOM     17  C   UNL     1       7.249   5.311  18.854  0.00  0.00    +0.000 C 
ATOM     18  C   UNL     1       7.662   6.739  18.553  0.00  0.00    +0.000 C 
ATOM     19  C   UNL     1       7.488   6.910  17.042  0.00  0.00    +0.000 C 
ENDBRANCH  12  15
ENDBRANCH  10  12
ENDBRANCH   3   5
BRANCH   1  20
ATOM     20  C   UNL     1       1.385   9.884  19.662  0.00  0.00    +0.000 C 
BRANCH  20  23
ATOM     21  O   UNL     1       0.254  12.346  18.946  0.00  0.00    +0.000 OA
ATOM     22  C   UNL     1      -0.500  11.419  19.238  0.00  0.00    +0.000 C 
ATOM     23  N   UNL     1      -0.033  10.180  19.600  0.00  0.00    +0.000 N 
ATOM     24  H   UNL     1      -0.681   9.466  19.907  0.00  0.00    +0.000 HD
BRANCH  22  25
ATOM     25  C   UNL     1      -2.015  11.543  19.240  0.00  0.00    +0.000 C 
BRANCH  25  26
ATOM     26  C   UNL     1      -2.663  11.106  17.950  0.00  0.00    +0.000 A 
ATOM     27  C   UNL     1      -3.935  11.577  17.588  0.00  0.00    +0.000 A 
ATOM     28  C   UNL     1      -4.496  11.228  16.358  0.00  0.00    +0.000 A 
ATOM     29  C   UNL     1      -3.794  10.407  15.478  0.00  0.00    +0.000 A 
ATOM     30  C   UNL     1      -2.537   9.921  15.832  0.00  0.00    +0.000 A 
ATOM     31  C   UNL     1      -1.975  10.266  17.062  0.00  0.00    +0.000 A 
ENDBRANCH  25  26
ENDBRANCH  22  25
ENDBRANCH  20  23
ENDBRANCH   1  20
TORSDOF 7
ENDMDL
MODEL 2
REMARK VINA RESULT:      -8.1      1.399      1.789
REMARK  Name = 
REMARK  7 active torsions:
REMARK  status: ('A' for Active; 'I' for Inactive)
REMARK    1  A    between atoms: C_2  and  C_3
REMARK    2  A    between atoms: C_3  and  C_4
REMARK    3  A    between atoms: N_10  and  C_11
REMARK    4  A    between atoms: C_11  and  C_12
REMARK    5  A    between atoms: N_14  and  C_15
REMARK    6  A    between atoms: C_20  and  S_21
REMARK    7  A    between atoms: S_21  and  N_24
REMARK                            x       y       z     vdW  Elec       q    Type
REMARK                         _______ _______ _______ _____ _____    ______ ____
ROOT
ATOM      1  C   UNL     1       1.833   7.025  20.349  0.00  0.00    +0.000 C 
ATOM      2  O   UNL     1       1.898   5.958  20.958  0.00  0.00    +0.000 OA
ATOM      3  N   UNL     1       2.174   7.282  19.031  0.00  0.00    +0.000 N 
ATOM      4  H   UNL     1       2.413   8.241  18.793  0.00  0.00    +0.000 HD
ENDROOT
BRANCH   3   5
ATOM      5  C   UNL     1       2.610   6.259  18.146  0.00  0.00    +0.000 A 
ATOM      6  C   UNL     1       1.868   5.090  17.995  0.00  0.00    +0.000 A 
ATOM      7  C   UNL     1       2.467   3.942  17.498  0.00  0.00    +0.000 A 
ATOM      8  C   UNL     1       3.804   3.993  17.120  0.00  0.00    +0.000 A 
ATOM      9 CL   UNL     1       4.746   2.584  17.481  0.00  0.00    +0.000 Cl
ATOM     10  C   UNL     1       4.436   5.219  16.940  0.00  0.00    +0.000 A 
ATOM     11  C   UNL     1       3.847   6.361  17.488  0.00  0.00    +0.000 A 
BRANCH  10  12
ATOM     12  S   UNL     1       5.716   5.368  15.722  0.00  0.00    +0.000 S 
ATOM     13  O   UNL     1       5.724   4.150  14.941  0.00  0.00    +0.000 OA
ATOM     14  O   UNL     1       5.506   6.625  15.029  0.00  0.00    +0.000 OA
BRANCH  12  15
ATOM     15  N   UNL     1       7.179   5.478  16.563  0.00  0.00    +0.000 NA
ATOM     16  C   UNL     1       7.437   4.589  17.706  0.00  0.00    +0.000 C 
ATOM     17  C   UNL     1       7.189   5.438  18.937  0.00  0.00    +0.000 C 
ATOM     18  C   UNL     1       7.665   6.818  18.528  0.00  0.00    +0.000 C 
ATOM     19  C   UNL     1       7.571   6.852  17.001  0.00  0.00    +0.000 C 
ENDBRANCH  12  15
ENDBRANCH  10  12
ENDBRANCH   3   5
BRANCH   1  20
ATOM     20  C   UNL     1       1.476   8.296  21.129  0.00  0.00    +0.000 C 
BRANCH  20  23
ATOM     21  O   UNL     1      -0.526  10.209  21.562  0.00  0.00    +0.000 OA
ATOM     22  C   UNL     1       0.119  10.266  20.517  0.00  0.00    +0.000 C 
ATOM     23  N   UNL     1       1.118   9.370  20.222  0.00  0.00    +0.000 N 
ATOM     24  H   UNL     1       1.575   9.402  19.320  0.00  0.00    +0.000 HD
BRANCH  22  25
ATOM     25  C   UNL     1      -0.119  11.314  19.443  0.00  0.00    +0.000 C 
BRANCH  25  26
ATOM     26  C   UNL     1      -1.367  11.079  18.630  0.00  0.00    +0.000 A 
ATOM     27  C   UNL     1      -1.422  10.048  17.678  0.00  0.00    +0.000 A 
ATOM     28  C   UNL     1      -2.604   9.787  16.983  0.00  0.00    +0.000 A 
ATOM     29  C   UNL     1      -3.743  10.551  17.231  0.00  0.00    +0.000 A 
ATOM     30  C   UNL     1      -3.697  11.587  18.162  0.00  0.00    +0.000 A 
ATOM     31  C   UNL     1      -2.516  11.851  18.856  0.00  0.00    +0.000 A 
ENDBRANCH  25  26
ENDBRANCH  22  25
ENDBRANCH  20  23
ENDBRANCH   1  20
TORSDOF 7
ENDMDL
MODEL 3
REMARK VINA RESULT:      -8.0      5.710      7.924
REMARK  Name = 
REMARK  7 active torsions:
REMARK  status: ('A' for Active; 'I' for Inactive)
REMARK    1  A    between atoms: C_2  and  C_3
REMARK    2  A    between atoms: C_3  and  C_4
REMARK    3  A    between atoms: N_10  and  C_11
REMARK    4  A    between atoms: C_11  and  C_12
REMARK    5  A    between atoms: N_14  and  C_15
REMARK    6  A    between atoms: C_20  and  S_21
REMARK    7  A    between atoms: S_21  and  N_24
REMARK                            x       y       z     vdW  Elec       q    Type
REMARK                         _______ _______ _______ _____ _____    ______ ____
ROOT
ATOM      1  C   UNL     1       8.043   7.888  18.093  0.00  0.00    +0.000 C 
ATOM      2  O   UNL     1       7.487   8.215  17.046  0.00  0.00    +0.000 OA
ATOM      3  N   UNL     1       7.974   6.675  18.759  0.00  0.00    +0.000 N 
ATOM      4  H   UNL     1       8.172   6.681  19.757  0.00  0.00    +0.000 HD
ENDROOT
BRANCH   3   5
ATOM      5  C   UNL     1       7.253   5.565  18.242  0.00  0.00    +0.000 A 
ATOM      6  C   UNL     1       7.492   5.106  16.949  0.00  0.00    +0.000 A 
ATOM      7  C   UNL     1       6.540   4.341  16.291  0.00  0.00    +0.000 A 
ATOM      8  C   UNL     1       5.366   4.012  16.961  0.00  0.00    +0.000 A 
ATOM      9 CL   UNL     1       3.923   4.016  16.001  0.00  0.00    +0.000 Cl
ATOM     10  C   UNL     1       5.279   4.164  18.340  0.00  0.00    +0.000 A 
ATOM     11  C   UNL     1       6.216   4.977  18.984  0.00  0.00    +0.000 A 
BRANCH  10  12
ATOM     12  S   UNL     1       4.268   3.047  19.277  0.00  0.00    +0.000 S 
ATOM     13  O   UNL     1       3.782   2.030  18.370  0.00  0.00    +0.000 OA
ATOM     14  O   UNL     1       5.046   2.625  20.427  0.00  0.00    +0.000 OA
BRANCH  12  15
ATOM     15  N   UNL     1       2.949   3.941  19.843  0.00  0.00    +0.000 NA
ATOM     16  C   UNL     1       2.563   3.861  21.260  0.00  0.00    +0.000 C 
ATOM     17  C   UNL     1       1.368   2.929  21.297  0.00  0.00    +0.000 C 
ATOM     18  C   UNL     1       0.634   3.229  20.005  0.00  0.00    +0.000 C 
ATOM     19  C   UNL     1       1.688   3.801  19.054  0.00  0.00    +0.000 C 
ENDBRANCH  12  15
ENDBRANCH  10  12
ENDBRANCH   3   5
BRANCH   1  20
ATOM     20  C   UNL     1       8.804   8.957  18.886  0.00  0.00    +0.000 C 
BRANCH  20  23
ATOM     21  O   UNL     1      10.609  11.064  19.285  0.00  0.00    +0.000 OA
ATOM     22  C   UNL     1       9.731  11.200  18.435  0.00  0.00    +0.000 C 
ATOM     23  N   UNL     1       8.805  10.221  18.174  0.00  0.00    +0.000 N 
ATOM     24  H   UNL     1       8.051  10.399  17.522  0.00  0.00    +0.000 HD
BRANCH  22  25
ATOM     25  C   UNL     1       9.567  12.458  17.596  0.00  0.00    +0.000 C 
BRANCH  25  26
ATOM     26  C   UNL     1       8.518  13.406  18.121  0.00  0.00    +0.000 A 
ATOM     27  C   UNL     1       7.347  13.659  17.388  0.00  0.00    +0.000 A 
ATOM     28  C   UNL     1       6.346  14.478  17.913  0.00  0.00    +0.000 A 
ATOM     29  C   UNL     1       6.503  15.052  19.174  0.00  0.00    +0.000 A 
ATOM     30  C   UNL     1       7.667  14.820  19.904  0.00  0.00    +0.000 A 
ATOM     31  C   UNL     1       8.670  14.004  19.380  0.00  0.00    +0.000 A 
ENDBRANCH  25  26
ENDBRANCH  22  25
ENDBRANCH  20  23
ENDBRANCH   1  20
TORSDOF 7
ENDMDL
MODEL 4
REMARK VINA RESULT:      -7.9      5.586      8.476
REMARK  Name = 
REMARK  7 active torsions:
REMARK  status: ('A' for Active; 'I' for Inactive)
REMARK    1  A    between atoms: C_2  and  C_3
REMARK    2  A    between atoms: C_3  and  C_4
REMARK    3  A    between atoms: N_10  and  C_11
REMARK    4  A    between atoms: C_11  and  C_12
REMARK    5  A    between atoms: N_14  and  C_15
REMARK    6  A    between atoms: C_20  and  S_21
REMARK    7  A    between atoms: S_21  and  N_24
REMARK                            x       y       z     vdW  Elec       q    Type
REMARK                         _______ _______ _______ _____ _____    ______ ____
ROOT
ATOM      1  C   UNL     1       7.828   7.257  17.859  0.00  0.00    +0.000 C 
ATOM      2  O   UNL     1       7.726   7.328  16.635  0.00  0.00    +0.000 OA
ATOM      3  N   UNL     1       7.194   6.379  18.724  0.00  0.00    +0.000 N 
ATOM      4  H   UNL     1       7.091   6.675  19.691  0.00  0.00    +0.000 HD
ENDROOT
BRANCH   3   5
ATOM      5  C   UNL     1       6.341   5.341  18.261  0.00  0.00    +0.000 A 
ATOM      6  C   UNL     1       6.081   5.192  16.901  0.00  0.00    +0.000 A 
ATOM      7  C   UNL     1       4.958   4.498  16.476  0.00  0.00    +0.000 A 
ATOM      8  C   UNL     1       4.124   3.925  17.430  0.00  0.00    +0.000 A 
ATOM      9 CL   UNL     1       2.426   3.997  17.089  0.00  0.00    +0.000 Cl
ATOM     10  C   UNL     1       4.559   3.772  18.742  0.00  0.00    +0.000 A 
ATOM     11  C   UNL     1       5.662   4.515  19.171  0.00  0.00    +0.000 A 
BRANCH  10  12
ATOM     12  S   UNL     1       3.982   2.392  19.696  0.00  0.00    +0.000 S 
ATOM     13  O   UNL     1       3.274   1.504  18.799  0.00  0.00    +0.000 OA
ATOM     14  O   UNL     1       5.122   1.866  20.423  0.00  0.00    +0.000 OA
BRANCH  12  15
ATOM     15  N   UNL     1       2.884   3.005  20.826  0.00  0.00    +0.000 NA
ATOM     16  C   UNL     1       1.546   2.404  20.950  0.00  0.00    +0.000 C 
ATOM     17  C   UNL     1       0.616   3.345  20.211  0.00  0.00    +0.000 C 
ATOM     18  C   UNL     1       1.199   4.718  20.481  0.00  0.00    +0.000 C 
ATOM     19  C   UNL     1       2.679   4.485  20.792  0.00  0.00    +0.000 C 
ENDBRANCH  12  15
ENDBRANCH  10  12
ENDBRANCH   3   5
BRANCH   1  20
ATOM     20  C   UNL     1       8.627   8.341  18.594  0.00  0.00    +0.000 C 
BRANCH  20  23
ATOM     21  O   UNL     1      10.123  10.671  19.030  0.00  0.00    +0.000 OA
ATOM     22  C   UNL     1       9.124  10.743  18.316  0.00  0.00    +0.000 C 
ATOM     23  N   UNL     1       8.333   9.653  18.049  0.00  0.00    +0.000 N 
ATOM     24  H   UNL     1       7.478   9.767  17.520  0.00  0.00    +0.000 HD
BRANCH  22  25
ATOM     25  C   UNL     1       8.653  12.033  17.666  0.00  0.00    +0.000 C 
BRANCH  25  26
ATOM     26  C   UNL     1       9.101  13.278  18.391  0.00  0.00    +0.000 A 
ATOM     27  C   UNL     1       8.607  13.583  19.669  0.00  0.00    +0.000 A 
ATOM     28  C   UNL     1       9.083  14.695  20.365  0.00  0.00    +0.000 A 
ATOM     29  C   UNL     1      10.054  15.514  19.793  0.00  0.00    +0.000 A 
ATOM     30  C   UNL     1      10.541  15.231  18.519  0.00  0.00    +0.000 A 
ATOM     31  C   UNL     1      10.066  14.121  17.820  0.00  0.00    +0.000 A 
ENDBRANCH  25  26
ENDBRANCH  22  25
ENDBRANCH  20  23
ENDBRANCH   1  20
TORSDOF 7
ENDMDL
MODEL 5
REMARK VINA RESULT:      -7.8      1.676      2.063
REMARK  Name = 
REMARK  7 active torsions:
REMARK  status: ('A' for Active; 'I' for Inactive)
REMARK    1  A    between atoms: C_2  and  C_3
REMARK    2  A    between atoms: C_3  and  C_4
REMARK    3  A    between atoms: N_10  and  C_11
REMARK    4  A    between atoms: C_11  and  C_12
REMARK    5  A    between atoms: N_14  and  C_15
REMARK    6  A    between atoms: C_20  and  S_21
REMARK    7  A    between atoms: S_21  and  N_24
REMARK                            x       y       z     vdW  Elec       q    Type
REMARK                         _______ _______ _______ _____ _____    ______ ____
ROOT
ATOM      1  C   UNL     1       1.507   8.374  20.103  0.00  0.00    +0.000 C 
ATOM      2  O   UNL     1       1.496   8.469  18.876  0.00  0.00    +0.000 OA
ATOM      3  N   UNL     1       1.699   7.238  20.874  0.00  0.00    +0.000 N 
ATOM      4  H   UNL     1       1.322   7.251  21.818  0.00  0.00    +0.000 HD
ENDROOT
BRANCH   3   5
ATOM      5  C   UNL     1       1.990   5.971  20.300  0.00  0.00    +0.000 A 
ATOM      6  C   UNL     1       1.343   4.824  20.752  0.00  0.00    +0.000 A 
ATOM      7  C   UNL     1       1.899   3.574  20.528  0.00  0.00    +0.000 A 
ATOM      8  C   UNL     1       3.089   3.488  19.813  0.00  0.00    +0.000 A 
ATOM      9 CL   UNL     1       4.214   2.289  20.361  0.00  0.00    +0.000 Cl
ATOM     10  C   UNL     1       3.542   4.574  19.073  0.00  0.00    +0.000 A 
ATOM     11  C   UNL     1       3.008   5.837  19.343  0.00  0.00    +0.000 A 
BRANCH  10  12
ATOM     12  S   UNL     1       4.458   4.289  17.580  0.00  0.00    +0.000 S 
ATOM     13  O   UNL     1       4.197   2.930  17.157  0.00  0.00    +0.000 OA
ATOM     14  O   UNL     1       4.134   5.366  16.664  0.00  0.00    +0.000 OA
BRANCH  12  15
ATOM     15  N   UNL     1       6.096   4.424  17.980  0.00  0.00    +0.000 NA
ATOM     16  C   UNL     1       6.513   5.314  19.074  0.00  0.00    +0.000 C 
ATOM     17  C   UNL     1       7.043   6.561  18.396  0.00  0.00    +0.000 C 
ATOM     18  C   UNL     1       7.702   6.037  17.136  0.00  0.00    +0.000 C 
ATOM     19  C   UNL     1       7.019   4.700  16.837  0.00  0.00    +0.000 C 
ENDBRANCH  12  15
ENDBRANCH  10  12
ENDBRANCH   3   5
BRANCH   1  20
ATOM     20  C   UNL     1       1.122   9.601  20.938  0.00  0.00    +0.000 C 
BRANCH  20  23
ATOM     21  O   UNL     1       0.428  11.875  19.453  0.00  0.00    +0.000 OA
ATOM     22  C   UNL     1      -0.475  11.163  19.890  0.00  0.00    +0.000 C 
ATOM     23  N   UNL     1      -0.227  10.031  20.627  0.00  0.00    +0.000 N 
ATOM     24  H   UNL     1      -0.996   9.514  21.033  0.00  0.00    +0.000 HD
BRANCH  22  25
ATOM     25  C   UNL     1      -1.950  11.459  19.674  0.00  0.00    +0.000 C 
BRANCH  25  26
ATOM     26  C   UNL     1      -2.447  11.101  18.295  0.00  0.00    +0.000 A 
ATOM     27  C   UNL     1      -1.760  10.167  17.504  0.00  0.00    +0.000 A 
ATOM     28  C   UNL     1      -2.267   9.783  16.261  0.00  0.00    +0.000 A 
ATOM     29  C   UNL     1      -3.463  10.327  15.796  0.00  0.00    +0.000 A 
ATOM     30  C   UNL     1      -4.146  11.266  16.566  0.00  0.00    +0.000 A 
ATOM     31  C   UNL     1      -3.641  11.653  17.807  0.00  0.00    +0.000 A 
ENDBRANCH  25  26
ENDBRANCH  22  25
ENDBRANCH  20  23
ENDBRANCH   1  20
TORSDOF 7
ENDMDL
MODEL 6
REMARK VINA RESULT:      -7.7      3.110      3.689
REMARK  Name = 
REMARK  7 active torsions:
REMARK  status: ('A' for Active; 'I' for Inactive)
REMARK    1  A    between atoms: C_2  and  C_3
REMARK    2  A    between atoms: C_3  and  C_4
REMARK    3  A    between atoms: N_10  and  C_11
REMARK    4  A    between atoms: C_11  and  C_12
REMARK    5  A    between atoms: N_14  and  C_15
REMARK    6  A    between atoms: C_20  and  S_21
REMARK    7  A    between atoms: S_21  and  N_24
REMARK                            x       y       z     vdW  Elec       q    Type
REMARK                         _______ _______ _______ _____ _____    ______ ____
ROOT
ATOM      1  C   UNL     1       1.923   7.842  20.055  0.00  0.00    +0.000 C 
ATOM      2  O   UNL     1       1.591   8.516  19.081  0.00  0.00    +0.000 OA
ATOM      3  N   UNL     1       2.451   6.560  20.071  0.00  0.00    +0.000 N 
ATOM      4  H   UNL     1       2.325   6.018  20.922  0.00  0.00    +0.000 HD
ENDROOT
BRANCH   3   5
ATOM      5  C   UNL     1       2.752   5.848  18.879  0.00  0.00    +0.000 A 
ATOM      6  C   UNL     1       1.981   4.755  18.493  0.00  0.00    +0.000 A 
ATOM      7  C   UNL     1       2.493   3.815  17.611  0.00  0.00    +0.000 A 
ATOM      8  C   UNL     1       3.770   4.006  17.094  0.00  0.00    +0.000 A 
ATOM      9 CL   UNL     1       4.731   2.576  16.906  0.00  0.00    +0.000 Cl
ATOM     10  C   UNL     1       4.389   5.246  17.197  0.00  0.00    +0.000 A 
ATOM     11  C   UNL     1       3.894   6.167  18.125  0.00  0.00    +0.000 A 
BRANCH  10  12
ATOM     12  S   UNL     1       5.501   5.774  15.920  0.00  0.00    +0.000 S 
ATOM     13  O   UNL     1       5.428   4.805  14.847  0.00  0.00    +0.000 OA
ATOM     14  O   UNL     1       5.184   7.157  15.617  0.00  0.00    +0.000 OA
BRANCH  12  15
ATOM     15  N   UNL     1       7.058   5.732  16.579  0.00  0.00    +0.000 NA
ATOM     16  C   UNL     1       7.426   4.667  17.525  0.00  0.00    +0.000 C 
ATOM     17  C   UNL     1       7.353   5.308  18.896  0.00  0.00    +0.000 C 
ATOM     18  C   UNL     1       7.817   6.732  18.657  0.00  0.00    +0.000 C 
ATOM     19  C   UNL     1       7.540   7.013  17.178  0.00  0.00    +0.000 C 
ENDBRANCH  12  15
ENDBRANCH  10  12
ENDBRANCH   3   5
BRANCH   1  20
ATOM     20  C   UNL     1       1.603   8.370  21.458  0.00  0.00    +0.000 C 
BRANCH  20  23
ATOM     21  O   UNL     1       0.552   9.773  23.645  0.00  0.00    +0.000 OA
ATOM     22  C   UNL     1       0.034   9.937  22.542  0.00  0.00    +0.000 C 
ATOM     23  N   UNL     1       0.483   9.291  21.417  0.00  0.00    +0.000 N 
ATOM     24  H   UNL     1      -0.016   9.392  20.543  0.00  0.00    +0.000 HD
BRANCH  22  25
ATOM     25  C   UNL     1      -1.154  10.855  22.305  0.00  0.00    +0.000 C 
BRANCH  25  26
ATOM     26  C   UNL     1      -0.814  12.322  22.380  0.00  0.00    +0.000 A 
ATOM     27  C   UNL     1      -1.424  13.155  23.331  0.00  0.00    +0.000 A 
ATOM     28  C   UNL     1      -1.049  14.495  23.445  0.00  0.00    +0.000 A 
ATOM     29  C   UNL     1      -0.063  15.017  22.611  0.00  0.00    +0.000 A 
ATOM     30  C   UNL     1       0.540  14.204  21.652  0.00  0.00    +0.000 A 
ATOM     31  C   UNL     1       0.165  12.866  21.535  0.00  0.00    +0.000 A 
ENDBRANCH  25  26
ENDBRANCH  22  25
ENDBRANCH  20  23
ENDBRANCH   1  20
TORSDOF 7
ENDMDL
MODEL 7
REMARK VINA RESULT:      -7.7      5.523      7.737
REMARK  Name = 
REMARK  7 active torsions:
REMARK  status: ('A' for Active; 'I' for Inactive)
REMARK    1  A    between atoms: C_2  and  C_3
REMARK    2  A    between atoms: C_3  and  C_4
REMARK    3  A    between atoms: N_10  and  C_11
REMARK    4  A    between atoms: C_11  and  C_12
REMARK    5  A    between atoms: N_14  and  C_15
REMARK    6  A    between atoms: C_20  and  S_21
REMARK    7  A    between atoms: S_21  and  N_24
REMARK                            x       y       z     vdW  Elec       q    Type
REMARK                         _______ _______ _______ _____ _____    ______ ____
ROOT
ATOM      1  C   UNL     1       8.000   8.021  17.996  0.00  0.00    +0.000 C 
ATOM      2  O   UNL     1       7.441   8.402  16.968  0.00  0.00    +0.000 OA
ATOM      3  N   UNL     1       7.886   6.794  18.630  0.00  0.00    +0.000 N 
ATOM      4  H   UNL     1       8.101   6.763  19.624  0.00  0.00    +0.000 HD
ENDROOT
BRANCH   3   5
ATOM      5  C   UNL     1       7.107   5.732  18.096  0.00  0.00    +0.000 A 
ATOM      6  C   UNL     1       7.696   4.750  17.304  0.00  0.00    +0.000 A 
ATOM      7  C   UNL     1       6.920   3.985  16.446  0.00  0.00    +0.000 A 
ATOM      8  C   UNL     1       5.545   4.192  16.421  0.00  0.00    +0.000 A 
ATOM      9 CL   UNL     1       4.794   4.085  14.863  0.00  0.00    +0.000 Cl
ATOM     10  C   UNL     1       4.925   4.907  17.440  0.00  0.00    +0.000 A 
ATOM     11  C   UNL     1       5.713   5.713  18.267  0.00  0.00    +0.000 A 
BRANCH  10  12
ATOM     12  S   UNL     1       3.267   4.489  17.912  0.00  0.00    +0.000 S 
ATOM     13  O   UNL     1       2.466   5.690  17.810  0.00  0.00    +0.000 OA
ATOM     14  O   UNL     1       2.874   3.334  17.127  0.00  0.00    +0.000 OA
BRANCH  12  15
ATOM     15  N   UNL     1       3.326   4.017  19.535  0.00  0.00    +0.000 NA
ATOM     16  C   UNL     1       3.136   2.603  19.895  0.00  0.00    +0.000 C 
ATOM     17  C   UNL     1       1.707   2.505  20.389  0.00  0.00    +0.000 C 
ATOM     18  C   UNL     1       1.475   3.827  21.095  0.00  0.00    +0.000 C 
ATOM     19  C   UNL     1       2.470   4.808  20.470  0.00  0.00    +0.000 C 
ENDBRANCH  12  15
ENDBRANCH  10  12
ENDBRANCH   3   5
BRANCH   1  20
ATOM     20  C   UNL     1       8.822   9.032  18.804  0.00  0.00    +0.000 C 
BRANCH  20  23
ATOM     21  O   UNL     1      10.595  11.135  19.342  0.00  0.00    +0.000 OA
ATOM     22  C   UNL     1       9.733  11.304  18.482  0.00  0.00    +0.000 C 
ATOM     23  N   UNL     1       8.823  10.328  18.155  0.00  0.00    +0.000 N 
ATOM     24  H   UNL     1       8.081  10.531  17.497  0.00  0.00    +0.000 HD
BRANCH  22  25
ATOM     25  C   UNL     1       9.571  12.599  17.703  0.00  0.00    +0.000 C 
BRANCH  25  26
ATOM     26  C   UNL     1       8.459  13.481  18.212  0.00  0.00    +0.000 A 
ATOM     27  C   UNL     1       7.282  13.657  17.467  0.00  0.00    +0.000 A 
ATOM     28  C   UNL     1       6.227  14.413  17.979  0.00  0.00    +0.000 A 
ATOM     29  C   UNL     1       6.334  15.001  19.238  0.00  0.00    +0.000 A 
ATOM     30  C   UNL     1       7.503  14.845  19.981  0.00  0.00    +0.000 A 
ATOM     31  C   UNL     1       8.561  14.092  19.470  0.00  0.00    +0.000 A 
ENDBRANCH  25  26
ENDBRANCH  22  25
ENDBRANCH  20  23
ENDBRANCH   1  20
TORSDOF 7
ENDMDL
MODEL 8
REMARK VINA RESULT:      -7.6      2.442      3.036
REMARK  Name = 
REMARK  7 active torsions:
REMARK  status: ('A' for Active; 'I' for Inactive)
REMARK    1  A    between atoms: C_2  and  C_3
REMARK    2  A    between atoms: C_3  and  C_4
REMARK    3  A    between atoms: N_10  and  C_11
REMARK    4  A    between atoms: C_11  and  C_12
REMARK    5  A    between atoms: N_14  and  C_15
REMARK    6  A    between atoms: C_20  and  S_21
REMARK    7  A    between atoms: S_21  and  N_24
REMARK                            x       y       z     vdW  Elec       q    Type
REMARK                         _______ _______ _______ _____ _____    ______ ____
ROOT
ATOM      1  C   UNL     1       1.838   7.975  19.992  0.00  0.00    +0.000 C 
ATOM      2  O   UNL     1       1.392   8.574  19.014  0.00  0.00    +0.000 OA
ATOM      3  N   UNL     1       2.470   6.743  20.028  0.00  0.00    +0.000 N 
ATOM      4  H   UNL     1       2.441   6.233  20.908  0.00  0.00    +0.000 HD
ENDROOT
BRANCH   3   5
ATOM      5  C   UNL     1       2.757   6.002  18.850  0.00  0.00    +0.000 A 
ATOM      6  C   UNL     1       1.985   4.896  18.504  0.00  0.00    +0.000 A 
ATOM      7  C   UNL     1       2.488   3.936  17.638  0.00  0.00    +0.000 A 
ATOM      8  C   UNL     1       3.756   4.119  17.098  0.00  0.00    +0.000 A 
ATOM      9 CL   UNL     1       4.720   2.688  16.932  0.00  0.00    +0.000 Cl
ATOM     10  C   UNL     1       4.371   5.364  17.160  0.00  0.00    +0.000 A 
ATOM     11  C   UNL     1       3.885   6.306  18.071  0.00  0.00    +0.000 A 
BRANCH  10  12
ATOM     12  S   UNL     1       5.462   5.863  15.853  0.00  0.00    +0.000 S 
ATOM     13  O   UNL     1       5.365   4.875  14.799  0.00  0.00    +0.000 OA
ATOM     14  O   UNL     1       5.145   7.241  15.531  0.00  0.00    +0.000 OA
BRANCH  12  15
ATOM     15  N   UNL     1       7.030   5.826  16.484  0.00  0.00    +0.000 NA
ATOM     16  C   UNL     1       7.455   4.697  17.327  0.00  0.00    +0.000 C 
ATOM     17  C   UNL     1       7.382   5.211  18.750  0.00  0.00    +0.000 C 
ATOM     18  C   UNL     1       7.786   6.668  18.632  0.00  0.00    +0.000 C 
ATOM     19  C   UNL     1       7.472   7.068  17.188  0.00  0.00    +0.000 C 
ENDBRANCH  12  15
ENDBRANCH  10  12
ENDBRANCH   3   5
BRANCH   1  20
ATOM     20  C   UNL     1       1.560   8.542  21.389  0.00  0.00    +0.000 C 
BRANCH  20  23
ATOM     21  O   UNL     1      -0.658   9.627  22.715  0.00  0.00    +0.000 OA
ATOM     22  C   UNL     1       0.009  10.364  21.993  0.00  0.00    +0.000 C 
ATOM     23  N   UNL     1       1.111   9.918  21.306  0.00  0.00    +0.000 N 
ATOM     24  H   UNL     1       1.589  10.535  20.662  0.00  0.00    +0.000 HD
BRANCH  22  25
ATOM     25  C   UNL     1      -0.313  11.834  21.773  0.00  0.00    +0.000 C 
BRANCH  25  26
ATOM     26  C   UNL     1      -1.782  12.158  21.888  0.00  0.00    +0.000 A 
ATOM     27  C   UNL     1      -2.404  12.240  23.144  0.00  0.00    +0.000 A 
ATOM     28  C   UNL     1      -3.745  12.615  23.247  0.00  0.00    +0.000 A 
ATOM     29  C   UNL     1      -4.477  12.911  22.099  0.00  0.00    +0.000 A 
ATOM     30  C   UNL     1      -3.875  12.819  20.846  0.00  0.00    +0.000 A 
ATOM     31  C   UNL     1      -2.536  12.442  20.740  0.00  0.00    +0.000 A 
ENDBRANCH  25  26
ENDBRANCH  22  25
ENDBRANCH  20  23
ENDBRANCH   1  20
TORSDOF 7
ENDMDL
MODEL 9
REMARK VINA RESULT:      -7.6      5.491      9.047
REMARK  Name = 
REMARK  7 active torsions:
REMARK  status: ('A' for Active; 'I' for Inactive)
REMARK    1  A    between atoms: C_2  and  C_3
REMARK    2  A    between atoms: C_3  and  C_4
REMARK    3  A    between atoms: N_10  and  C_11
REMARK    4  A    between atoms: C_11  and  C_12
REMARK    5  A    between atoms: N_14  and  C_15
REMARK    6  A    between atoms: C_20  and  S_21
REMARK    7  A    between atoms: S_21  and  N_24
REMARK                            x       y       z     vdW  Elec       q    Type
REMARK                         _______ _______ _______ _____ _____    ______ ____
ROOT
ATOM      1  C   UNL     1       8.169   8.187  18.151  0.00  0.00    +0.000 C 
ATOM      2  O   UNL     1       7.710   8.552  17.070  0.00  0.00    +0.000 OA
ATOM      3  N   UNL     1       7.969   6.981  18.805  0.00  0.00    +0.000 N 
ATOM      4  H   UNL     1       8.099   6.973  19.813  0.00  0.00    +0.000 HD
ENDROOT
BRANCH   3   5
ATOM      5  C   UNL     1       7.210   5.925  18.234  0.00  0.00    +0.000 A 
ATOM      6  C   UNL     1       7.825   4.954  17.448  0.00  0.00    +0.000 A 
ATOM      7  C   UNL     1       7.078   4.198  16.558  0.00  0.00    +0.000 A 
ATOM      8  C   UNL     1       5.704   4.402  16.494  0.00  0.00    +0.000 A 
ATOM      9 CL   UNL     1       5.000   4.313  14.912  0.00  0.00    +0.000 Cl
ATOM     10  C   UNL     1       5.051   5.102  17.502  0.00  0.00    +0.000 A 
ATOM     11  C   UNL     1       5.811   5.899  18.363  0.00  0.00    +0.000 A 
BRANCH  10  12
ATOM     12  S   UNL     1       3.381   4.675  17.919  0.00  0.00    +0.000 S 
ATOM     13  O   UNL     1       2.586   5.881  17.836  0.00  0.00    +0.000 OA
ATOM     14  O   UNL     1       3.005   3.548  17.086  0.00  0.00    +0.000 OA
BRANCH  12  15
ATOM     15  N   UNL     1       3.398   4.148  19.526  0.00  0.00    +0.000 NA
ATOM     16  C   UNL     1       3.285   2.713  19.829  0.00  0.00    +0.000 C 
ATOM     17  C   UNL     1       1.845   2.506  20.252  0.00  0.00    +0.000 C 
ATOM     18  C   UNL     1       1.496   3.784  20.989  0.00  0.00    +0.000 C 
ATOM     19  C   UNL     1       2.451   4.849  20.445  0.00  0.00    +0.000 C 
ENDBRANCH  12  15
ENDBRANCH  10  12
ENDBRANCH   3   5
BRANCH   1  20
ATOM     20  C   UNL     1       8.948   9.199  19.000  0.00  0.00    +0.000 C 
BRANCH  20  23
ATOM     21  O   UNL     1      11.050  11.052  18.916  0.00  0.00    +0.000 OA
ATOM     22  C   UNL     1       9.975  11.364  18.407  0.00  0.00    +0.000 C 
ATOM     23  N   UNL     1       8.892  10.520  18.402  0.00  0.00    +0.000 N 
ATOM     24  H   UNL     1       8.003  10.841  18.042  0.00  0.00    +0.000 HD
BRANCH  22  25
ATOM     25  C   UNL     1       9.724  12.708  17.743  0.00  0.00    +0.000 C 
BRANCH  25  26
ATOM     26  C   UNL     1      10.478  13.850  18.377  0.00  0.00    +0.000 A 
ATOM     27  C   UNL     1      10.257  14.200  19.719  0.00  0.00    +0.000 A 
ATOM     28  C   UNL     1      11.012  15.208  20.321  0.00  0.00    +0.000 A 
ATOM     29  C   UNL     1      11.994  15.876  19.591  0.00  0.00    +0.000 A 
ATOM     30  C   UNL     1      12.212  15.548  18.255  0.00  0.00    +0.000 A 
ATOM     31  C   UNL     1      11.457  14.543  17.650  0.00  0.00    +0.000 A 
ENDBRANCH  25  26
ENDBRANCH  22  25
ENDBRANCH  20  23
ENDBRANCH   1  20
TORSDOF 7
ENDMDL
