MODEL 1
REMARK VINA RESULT:      -9.0      0.000      0.000
REMARK  Name = 
REMARK  7 active torsions:
REMARK  status: ('A' for Active; 'I' for Inactive)
REMARK    1  A    between atoms: C_2  and  C_11
REMARK    2  A    between atoms: N_3  and  C_4
REMARK    3  A    between atoms: C_4  and  C_5
REMARK    4  A    between atoms: C_16  and  O_17
REMARK    5  A    between atoms: O_17  and  C_18
REMARK    6  A    between atoms: C_18  and  C_19
REMARK    7  A    between atoms: C_22  and  C_23
REMARK                            x       y       z     vdW  Elec       q    Type
REMARK                         _______ _______ _______ _____ _____    ______ ____
ROOT
ATOM      1  C   UNL     1       2.535   4.373  19.785  0.00  0.00    +0.000 A 
ATOM      2  C   UNL     1       1.479   4.209  20.710  0.00  0.00    +0.000 A 
ATOM      3  C   UNL     1       1.460   3.165  21.632  0.00  0.00    +0.000 A 
ATOM      4  C   UNL     1       2.518   2.273  21.666  0.00  0.00    +0.000 A 
ATOM      5  C   UNL     1       3.579   2.426  20.774  0.00  0.00    +0.000 A 
ATOM      6  C   UNL     1       3.594   3.444  19.793  0.00  0.00    +0.000 A 
ENDROOT
BRANCH   1   8
ATOM      7  O   UNL     1       2.089   5.377  17.698  0.00  0.00    +0.000 OA
ATOM      8  C   UNL     1       2.388   5.559  18.878  0.00  0.00    +0.000 C 
ATOM      9  N   UNL     1       2.588   6.821  19.385  0.00  0.00    +0.000 N 
ATOM     10  H   UNL     1       2.786   6.930  20.372  0.00  0.00    +0.000 HD
BRANCH   9  11
ATOM     11  C   UNL     1       2.399   8.000  18.564  0.00  0.00    +0.000 C 
BRANCH  11  12
ATOM     12  C   UNL     1       1.288   8.916  19.034  0.00  0.00    +0.000 A 
ATOM     13  C   UNL     1       0.966   9.036  20.395  0.00  0.00    +0.000 A 
ATOM     14  C   UNL     1       0.028   9.974  20.833  0.00  0.00    +0.000 A 
ATOM     15  C   UNL     1      -0.596  10.813  19.916  0.00  0.00    +0.000 A 
ATOM     16  C   UNL     1      -0.295  10.704  18.560  0.00  0.00    +0.000 A 
ATOM     17  C   UNL     1       0.640   9.761  18.121  0.00  0.00    +0.000 A 
ENDBRANCH  11  12
ENDBRANCH   9  11
ENDBRANCH   1   8
BRANCH   6  18
ATOM     18  O   UNL     1       4.603   3.544  18.851  0.00  0.00    +0.000 OA
BRANCH  18  19
ATOM     19  C   UNL     1       5.534   4.611  19.108  0.00  0.00    +0.000 C 
BRANCH  19  20
ATOM     20  C   UNL     1       6.105   5.163  17.860  0.00  0.00    +0.000 A 
ATOM     21  N   UNL     1       7.025   6.101  17.760  0.00  0.00    +0.000 NA
ATOM     22  N   UNL     1       7.402   6.134  16.441  0.00  0.00    +0.000 NA
ATOM     23  C   UNL     1       6.691   5.213  15.821  0.00  0.00    +0.000 A 
ATOM     24  O   UNL     1       5.832   4.552  16.666  0.00  0.00    +0.000 OA
BRANCH  23  25
ATOM     25  C   UNL     1       6.738   4.792  14.430  0.00  0.00    +0.000 A 
ATOM     26  C   UNL     1       7.694   5.363  13.574  0.00  0.00    +0.000 A 
ATOM     27  C   UNL     1       7.787   4.964  12.240  0.00  0.00    +0.000 A 
ATOM     28  C   UNL     1       6.923   3.991  11.746  0.00  0.00    +0.000 A 
ATOM     29  C   UNL     1       5.966   3.418  12.581  0.00  0.00    +0.000 A 
ATOM     30  C   UNL     1       5.872   3.817  13.916  0.00  0.00    +0.000 A 
ENDBRANCH  23  25
ENDBRANCH  19  20
ENDBRANCH  18  19
ENDBRANCH   6  18
TORSDOF 7
ENDMDL
MODEL 2
REMARK VINA RESULT:      -9.0      0.277      1.295
REMARK  Name = 
REMARK  7 active torsions:
REMARK  status: ('A' for Active; 'I' for Inactive)
REMARK    1  A    between atoms: C_2  and  C_11
REMARK    2  A    between atoms: N_3  and  C_4
REMARK    3  A    between atoms: C_4  and  C_5
REMARK    4  A    between atoms: C_16  and  O_17
REMARK    5  A    between atoms: O_17  and  C_18
REMARK    6  A    between atoms: C_18  and  C_19
REMARK    7  A    between atoms: C_22  and  C_23
REMARK                            x       y       z     vdW  Elec       q    Type
REMARK                         _______ _______ _______ _____ _____    ______ ____
ROOT
ATOM      1  C   UNL     1       2.440   4.312  19.732  0.00  0.00    +0.000 A 
ATOM      2  C   UNL     1       1.345   4.123  20.606  0.00  0.00    +0.000 A 
ATOM      3  C   UNL     1       1.330   3.111  21.564  0.00  0.00    +0.000 A 
ATOM      4  C   UNL     1       2.428   2.278  21.685  0.00  0.00    +0.000 A 
ATOM      5  C   UNL     1       3.527   2.457  20.845  0.00  0.00    +0.000 A 
ATOM      6  C   UNL     1       3.543   3.441  19.830  0.00  0.00    +0.000 A 
ENDROOT
BRANCH   1   8
ATOM      7  O   UNL     1       1.678   5.276  17.720  0.00  0.00    +0.000 OA
ATOM      8  C   UNL     1       2.282   5.457  18.777  0.00  0.00    +0.000 C 
ATOM      9  N   UNL     1       2.812   6.682  19.103  0.00  0.00    +0.000 N 
ATOM     10  H   UNL     1       3.260   6.802  20.004  0.00  0.00    +0.000 HD
BRANCH   9  11
ATOM     11  C   UNL     1       2.634   7.834  18.241  0.00  0.00    +0.000 C 
BRANCH  11  12
ATOM     12  C   UNL     1       1.591   8.820  18.725  0.00  0.00    +0.000 A 
ATOM     13  C   UNL     1       0.816   9.567  17.823  0.00  0.00    +0.000 A 
ATOM     14  C   UNL     1      -0.228  10.379  18.272  0.00  0.00    +0.000 A 
ATOM     15  C   UNL     1      -0.519  10.450  19.631  0.00  0.00    +0.000 A 
ATOM     16  C   UNL     1       0.244   9.721  20.541  0.00  0.00    +0.000 A 
ATOM     17  C   UNL     1       1.292   8.912  20.092  0.00  0.00    +0.000 A 
ENDBRANCH  11  12
ENDBRANCH   9  11
ENDBRANCH   1   8
BRANCH   6  18
ATOM     18  O   UNL     1       4.596   3.563  18.939  0.00  0.00    +0.000 OA
BRANCH  18  19
ATOM     19  C   UNL     1       5.475   4.665  19.227  0.00  0.00    +0.000 C 
BRANCH  19  20
ATOM     20  C   UNL     1       6.118   5.195  18.004  0.00  0.00    +0.000 A 
ATOM     21  N   UNL     1       7.103   6.069  17.947  0.00  0.00    +0.000 NA
ATOM     22  N   UNL     1       7.520   6.096  16.639  0.00  0.00    +0.000 NA
ATOM     23  C   UNL     1       6.765   5.236  15.984  0.00  0.00    +0.000 A 
ATOM     24  O   UNL     1       5.840   4.623  16.793  0.00  0.00    +0.000 OA
BRANCH  23  25
ATOM     25  C   UNL     1       6.824   4.834  14.588  0.00  0.00    +0.000 A 
ATOM     26  C   UNL     1       5.960   3.826  14.129  0.00  0.00    +0.000 A 
ATOM     27  C   UNL     1       5.969   3.432  12.790  0.00  0.00    +0.000 A 
ATOM     28  C   UNL     1       6.844   4.042  11.895  0.00  0.00    +0.000 A 
ATOM     29  C   UNL     1       7.711   5.039  12.336  0.00  0.00    +0.000 A 
ATOM     30  C   UNL     1       7.703   5.434  13.675  0.00  0.00    +0.000 A 
ENDBRANCH  23  25
ENDBRANCH  19  20
ENDBRANCH  18  19
ENDBRANCH   6  18
TORSDOF 7
ENDMDL
MODEL 3
REMARK VINA RESULT:      -9.0      1.701      8.595
REMARK  Name = 
REMARK  7 active torsions:
REMARK  status: ('A' for Active; 'I' for Inactive)
REMARK    1  A    between atoms: C_2  and  C_11
REMARK    2  A    between atoms: N_3  and  C_4
REMARK    3  A    between atoms: C_4  and  C_5
REMARK    4  A    between atoms: C_16  and  O_17
REMARK    5  A    between atoms: O_17  and  C_18
REMARK    6  A    between atoms: C_18  and  C_19
REMARK    7  A    between atoms: C_22  and  C_23
REMARK                            x       y       z     vdW  Elec       q    Type
REMARK                         _______ _______ _______ _____ _____    ______ ____
ROOT
ATOM      1  C   UNL     1       4.551   4.412  18.963  0.00  0.00    +0.000 A 
ATOM      2  C   UNL     1       4.386   3.134  19.545  0.00  0.00    +0.000 A 
ATOM      3  C   UNL     1       3.249   2.796  20.276  0.00  0.00    +0.000 A 
ATOM      4  C   UNL     1       2.235   3.728  20.419  0.00  0.00    +0.000 A 
ATOM      5  C   UNL     1       2.370   4.989  19.838  0.00  0.00    +0.000 A 
ATOM      6  C   UNL     1       3.536   5.373  19.139  0.00  0.00    +0.000 A 
ENDROOT
BRANCH   1   8
ATOM      7  O   UNL     1       6.899   4.320  18.760  0.00  0.00    +0.000 OA
ATOM      8  C   UNL     1       5.834   4.588  18.206  0.00  0.00    +0.000 C 
ATOM      9  N   UNL     1       5.790   5.042  16.909  0.00  0.00    +0.000 N 
ATOM     10  H   UNL     1       4.891   5.207  16.473  0.00  0.00    +0.000 HD
BRANCH   9  11
ATOM     11  C   UNL     1       6.997   5.172  16.116  0.00  0.00    +0.000 C 
BRANCH  11  12
ATOM     12  C   UNL     1       6.826   4.809  14.656  0.00  0.00    +0.000 A 
ATOM     13  C   UNL     1       7.669   5.340  13.667  0.00  0.00    +0.000 A 
ATOM     14  C   UNL     1       7.587   4.904  12.342  0.00  0.00    +0.000 A 
ATOM     15  C   UNL     1       6.666   3.924  11.988  0.00  0.00    +0.000 A 
ATOM     16  C   UNL     1       5.817   3.390  12.955  0.00  0.00    +0.000 A 
ATOM     17  C   UNL     1       5.895   3.830  14.280  0.00  0.00    +0.000 A 
ENDBRANCH  11  12
ENDBRANCH   9  11
ENDBRANCH   1   8
BRANCH   6  18
ATOM     18  O   UNL     1       3.707   6.652  18.638  0.00  0.00    +0.000 OA
BRANCH  18  19
ATOM     19  C   UNL     1       2.587   7.130  17.871  0.00  0.00    +0.000 C 
BRANCH  19  20
ATOM     20  C   UNL     1       2.063   8.411  18.393  0.00  0.00    +0.000 A 
ATOM     21  N   UNL     1       1.904   9.532  17.719  0.00  0.00    +0.000 NA
ATOM     22  N   UNL     1       1.192  10.376  18.535  0.00  0.00    +0.000 NA
ATOM     23  C   UNL     1       0.962   9.716  19.653  0.00  0.00    +0.000 A 
ATOM     24  O   UNL     1       1.495   8.450  19.637  0.00  0.00    +0.000 OA
BRANCH  23  25
ATOM     25  C   UNL     1       0.202  10.122  20.824  0.00  0.00    +0.000 A 
ATOM     26  C   UNL     1       0.316   9.373  22.007  0.00  0.00    +0.000 A 
ATOM     27  C   UNL     1      -0.377   9.748  23.159  0.00  0.00    +0.000 A 
ATOM     28  C   UNL     1      -1.193  10.876  23.140  0.00  0.00    +0.000 A 
ATOM     29  C   UNL     1      -1.320  11.626  21.973  0.00  0.00    +0.000 A 
ATOM     30  C   UNL     1      -0.628  11.252  20.820  0.00  0.00    +0.000 A 
ENDBRANCH  23  25
ENDBRANCH  19  20
ENDBRANCH  18  19
ENDBRANCH   6  18
TORSDOF 7
ENDMDL
MODEL 4
REMARK VINA RESULT:      -8.9      4.068      6.908
REMARK  Name = 
REMARK  7 active torsions:
REMARK  status: ('A' for Active; 'I' for Inactive)
REMARK    1  A    between atoms: C_2  and  C_11
REMARK    2  A    between atoms: N_3  and  C_4
REMARK    3  A    between atoms: C_4  and  C_5
REMARK    4  A    between atoms: C_16  and  O_17
REMARK    5  A    between atoms: O_17  and  C_18
REMARK    6  A    between atoms: C_18  and  C_19
REMARK    7  A    between atoms: C_22  and  C_23
REMARK                            x       y       z     vdW  Elec       q    Type
REMARK                         _______ _______ _______ _____ _____    ______ ____
ROOT
ATOM      1  C   UNL     1       5.807   4.378  16.966  0.00  0.00    +0.000 A 
ATOM      2  C   UNL     1       4.939   4.287  15.854  0.00  0.00    +0.000 A 
ATOM      3  C   UNL     1       5.383   4.499  14.550  0.00  0.00    +0.000 A 
ATOM      4  C   UNL     1       6.720   4.782  14.329  0.00  0.00    +0.000 A 
ATOM      5  C   UNL     1       7.598   4.858  15.411  0.00  0.00    +0.000 A 
ATOM      6  C   UNL     1       7.160   4.702  16.745  0.00  0.00    +0.000 A 
ENDROOT
BRANCH   1   8
ATOM      7  O   UNL     1       4.559   5.022  18.860  0.00  0.00    +0.000 OA
ATOM      8  C   UNL     1       5.152   4.108  18.288  0.00  0.00    +0.000 C 
ATOM      9  N   UNL     1       5.227   2.847  18.830  0.00  0.00    +0.000 N 
ATOM     10  H   UNL     1       5.684   2.111  18.305  0.00  0.00    +0.000 HD
BRANCH   9  11
ATOM     11  C   UNL     1       4.560   2.522  20.076  0.00  0.00    +0.000 C 
BRANCH  11  12
ATOM     12  C   UNL     1       3.052   2.642  20.025  0.00  0.00    +0.000 A 
ATOM     13  C   UNL     1       2.348   3.411  20.966  0.00  0.00    +0.000 A 
ATOM     14  C   UNL     1       0.973   3.621  20.840  0.00  0.00    +0.000 A 
ATOM     15  C   UNL     1       0.281   3.072  19.765  0.00  0.00    +0.000 A 
ATOM     16  C   UNL     1       0.962   2.301  18.825  0.00  0.00    +0.000 A 
ATOM     17  C   UNL     1       2.337   2.086  18.954  0.00  0.00    +0.000 A 
ENDBRANCH  11  12
ENDBRANCH   9  11
ENDBRANCH   1   8
BRANCH   6  18
ATOM     18  O   UNL     1       8.012   4.864  17.824  0.00  0.00    +0.000 OA
BRANCH  18  19
ATOM     19  C   UNL     1       7.599   5.893  18.741  0.00  0.00    +0.000 C 
BRANCH  19  20
ATOM     20  C   UNL     1       7.863   7.248  18.210  0.00  0.00    +0.000 A 
ATOM     21  N   UNL     1       7.262   7.826  17.189  0.00  0.00    +0.000 NA
ATOM     22  N   UNL     1       7.662   9.139  17.198  0.00  0.00    +0.000 NA
ATOM     23  C   UNL     1       8.480   9.279  18.223  0.00  0.00    +0.000 A 
ATOM     24  O   UNL     1       8.661   8.107  18.917  0.00  0.00    +0.000 OA
BRANCH  23  25
ATOM     25  C   UNL     1       9.140  10.475  18.720  0.00  0.00    +0.000 A 
ATOM     26  C   UNL     1       9.635  10.487  20.035  0.00  0.00    +0.000 A 
ATOM     27  C   UNL     1      10.298  11.607  20.537  0.00  0.00    +0.000 A 
ATOM     28  C   UNL     1      10.472  12.729  19.732  0.00  0.00    +0.000 A 
ATOM     29  C   UNL     1       9.982  12.734  18.427  0.00  0.00    +0.000 A 
ATOM     30  C   UNL     1       9.318  11.614  17.923  0.00  0.00    +0.000 A 
ENDBRANCH  23  25
ENDBRANCH  19  20
ENDBRANCH  18  19
ENDBRANCH   6  18
TORSDOF 7
ENDMDL
MODEL 5
REMARK VINA RESULT:      -8.8      1.770      8.616
REMARK  Name = 
REMARK  7 active torsions:
REMARK  status: ('A' for Active; 'I' for Inactive)
REMARK    1  A    between atoms: C_2  and  C_11
REMARK    2  A    between atoms: N_3  and  C_4
REMARK    3  A    between atoms: C_4  and  C_5
REMARK    4  A    between atoms: C_16  and  O_17
REMARK    5  A    between atoms: O_17  and  C_18
REMARK    6  A    between atoms: C_18  and  C_19
REMARK    7  A    between atoms: C_22  and  C_23
REMARK                            x       y       z     vdW  Elec       q    Type
REMARK                         _______ _______ _______ _____ _____    ______ ____
ROOT
ATOM      1  C   UNL     1       3.545   3.699  18.243  0.00  0.00    +0.000 A 
ATOM      2  C   UNL     1       3.515   2.337  18.621  0.00  0.00    +0.000 A 
ATOM      3  C   UNL     1       2.350   1.722  19.077  0.00  0.00    +0.000 A 
ATOM      4  C   UNL     1       1.178   2.456  19.139  0.00  0.00    +0.000 A 
ATOM      5  C   UNL     1       1.181   3.796  18.754  0.00  0.00    +0.000 A 
ATOM      6  C   UNL     1       2.361   4.456  18.341  0.00  0.00    +0.000 A 
ENDROOT
BRANCH   1   8
ATOM      7  O   UNL     1       5.863   4.045  18.500  0.00  0.00    +0.000 OA
ATOM      8  C   UNL     1       4.883   4.182  17.769  0.00  0.00    +0.000 C 
ATOM      9  N   UNL     1       4.986   4.764  16.528  0.00  0.00    +0.000 N 
ATOM     10  H   UNL     1       4.165   4.816  15.937  0.00  0.00    +0.000 HD
BRANCH   9  11
ATOM     11  C   UNL     1       6.267   5.193  16.001  0.00  0.00    +0.000 C 
BRANCH  11  12
ATOM     12  C   UNL     1       6.485   4.855  14.542  0.00  0.00    +0.000 A 
ATOM     13  C   UNL     1       7.544   5.417  13.811  0.00  0.00    +0.000 A 
ATOM     14  C   UNL     1       7.815   5.006  12.504  0.00  0.00    +0.000 A 
ATOM     15  C   UNL     1       7.036   4.018  11.910  0.00  0.00    +0.000 A 
ATOM     16  C   UNL     1       5.977   3.453  12.618  0.00  0.00    +0.000 A 
ATOM     17  C   UNL     1       5.702   3.868  13.924  0.00  0.00    +0.000 A 
ENDBRANCH  11  12
ENDBRANCH   9  11
ENDBRANCH   1   8
BRANCH   6  18
ATOM     18  O   UNL     1       2.383   5.807  18.043  0.00  0.00    +0.000 OA
BRANCH  18  19
ATOM     19  C   UNL     1       2.892   6.630  19.109  0.00  0.00    +0.000 C 
BRANCH  19  20
ATOM     20  C   UNL     1       2.183   7.925  19.196  0.00  0.00    +0.000 A 
ATOM     21  N   UNL     1       1.854   8.713  18.191  0.00  0.00    +0.000 NA
ATOM     22  N   UNL     1       1.027   9.678  18.712  0.00  0.00    +0.000 NA
ATOM     23  C   UNL     1       0.903   9.416  19.998  0.00  0.00    +0.000 A 
ATOM     24  O   UNL     1       1.621   8.309  20.383  0.00  0.00    +0.000 OA
BRANCH  23  25
ATOM     25  C   UNL     1       0.097  10.089  21.003  0.00  0.00    +0.000 A 
ATOM     26  C   UNL     1      -0.615  11.246  20.646  0.00  0.00    +0.000 A 
ATOM     27  C   UNL     1      -1.421  11.904  21.577  0.00  0.00    +0.000 A 
ATOM     28  C   UNL     1      -1.524  11.412  22.875  0.00  0.00    +0.000 A 
ATOM     29  C   UNL     1      -0.820  10.268  23.245  0.00  0.00    +0.000 A 
ATOM     30  C   UNL     1      -0.013   9.609  22.316  0.00  0.00    +0.000 A 
ENDBRANCH  23  25
ENDBRANCH  19  20
ENDBRANCH  18  19
ENDBRANCH   6  18
TORSDOF 7
ENDMDL
MODEL 6
REMARK VINA RESULT:      -8.7      0.944      1.538
REMARK  Name = 
REMARK  7 active torsions:
REMARK  status: ('A' for Active; 'I' for Inactive)
REMARK    1  A    between atoms: C_2  and  C_11
REMARK    2  A    between atoms: N_3  and  C_4
REMARK    3  A    between atoms: C_4  and  C_5
REMARK    4  A    between atoms: C_16  and  O_17
REMARK    5  A    between atoms: O_17  and  C_18
REMARK    6  A    between atoms: C_18  and  C_19
REMARK    7  A    between atoms: C_22  and  C_23
REMARK                            x       y       z     vdW  Elec       q    Type
REMARK                         _______ _______ _______ _____ _____    ______ ____
ROOT
ATOM      1  C   UNL     1       2.494   4.771  20.137  0.00  0.00    +0.000 A 
ATOM      2  C   UNL     1       1.703   4.421  21.256  0.00  0.00    +0.000 A 
ATOM      3  C   UNL     1       1.819   3.183  21.885  0.00  0.00    +0.000 A 
ATOM      4  C   UNL     1       2.754   2.274  21.421  0.00  0.00    +0.000 A 
ATOM      5  C   UNL     1       3.556   2.605  20.330  0.00  0.00    +0.000 A 
ATOM      6  C   UNL     1       3.419   3.831  19.641  0.00  0.00    +0.000 A 
ENDROOT
BRANCH   1   8
ATOM      7  O   UNL     1       2.300   6.339  18.387  0.00  0.00    +0.000 OA
ATOM      8  C   UNL     1       2.236   6.147  19.601  0.00  0.00    +0.000 C 
ATOM      9  N   UNL     1       1.932   7.163  20.476  0.00  0.00    +0.000 N 
ATOM     10  H   UNL     1       1.843   6.954  21.463  0.00  0.00    +0.000 HD
BRANCH   9  11
ATOM     11  C   UNL     1       1.617   8.496  20.001  0.00  0.00    +0.000 C 
BRANCH  11  12
ATOM     12  C   UNL     1       0.819   9.333  20.979  0.00  0.00    +0.000 A 
ATOM     13  C   UNL     1       0.122  10.478  20.563  0.00  0.00    +0.000 A 
ATOM     14  C   UNL     1      -0.713  11.172  21.442  0.00  0.00    +0.000 A 
ATOM     15  C   UNL     1      -0.870  10.726  22.750  0.00  0.00    +0.000 A 
ATOM     16  C   UNL     1      -0.180   9.596  23.183  0.00  0.00    +0.000 A 
ATOM     17  C   UNL     1       0.659   8.904  22.305  0.00  0.00    +0.000 A 
ENDBRANCH  11  12
ENDBRANCH   9  11
ENDBRANCH   1   8
BRANCH   6  18
ATOM     18  O   UNL     1       4.154   4.124  18.506  0.00  0.00    +0.000 OA
BRANCH  18  19
ATOM     19  C   UNL     1       5.462   4.657  18.781  0.00  0.00    +0.000 C 
BRANCH  19  20
ATOM     20  C   UNL     1       6.131   5.146  17.556  0.00  0.00    +0.000 A 
ATOM     21  N   UNL     1       7.165   5.961  17.494  0.00  0.00    +0.000 NA
ATOM     22  N   UNL     1       7.580   5.960  16.185  0.00  0.00    +0.000 NA
ATOM     23  C   UNL     1       6.774   5.144  15.534  0.00  0.00    +0.000 A 
ATOM     24  O   UNL     1       5.817   4.588  16.347  0.00  0.00    +0.000 OA
BRANCH  23  25
ATOM     25  C   UNL     1       6.806   4.736  14.139  0.00  0.00    +0.000 A 
ATOM     26  C   UNL     1       7.714   5.356  13.265  0.00  0.00    +0.000 A 
ATOM     27  C   UNL     1       7.792   4.972  11.925  0.00  0.00    +0.000 A 
ATOM     28  C   UNL     1       6.961   3.964  11.444  0.00  0.00    +0.000 A 
ATOM     29  C   UNL     1       6.050   3.344  12.297  0.00  0.00    +0.000 A 
ATOM     30  C   UNL     1       5.972   3.728  13.637  0.00  0.00    +0.000 A 
ENDBRANCH  23  25
ENDBRANCH  19  20
ENDBRANCH  18  19
ENDBRANCH   6  18
TORSDOF 7
ENDMDL
MODEL 7
REMARK VINA RESULT:      -8.7      1.777      8.541
REMARK  Name = 
REMARK  7 active torsions:
REMARK  status: ('A' for Active; 'I' for Inactive)
REMARK    1  A    between atoms: C_2  and  C_11
REMARK    2  A    between atoms: N_3  and  C_4
REMARK    3  A    between atoms: C_4  and  C_5
REMARK    4  A    between atoms: C_16  and  O_17
REMARK    5  A    between atoms: O_17  and  C_18
REMARK    6  A    between atoms: C_18  and  C_19
REMARK    7  A    between atoms: C_22  and  C_23
REMARK                            x       y       z     vdW  Elec       q    Type
REMARK                         _______ _______ _______ _____ _____    ______ ____
ROOT
ATOM      1  C   UNL     1       3.714   3.993  18.563  0.00  0.00    +0.000 A 
ATOM      2  C   UNL     1       3.444   2.616  18.391  0.00  0.00    +0.000 A 
ATOM      3  C   UNL     1       2.231   2.047  18.776  0.00  0.00    +0.000 A 
ATOM      4  C   UNL     1       1.247   2.855  19.320  0.00  0.00    +0.000 A 
ATOM      5  C   UNL     1       1.486   4.220  19.481  0.00  0.00    +0.000 A 
ATOM      6  C   UNL     1       2.727   4.809  19.150  0.00  0.00    +0.000 A 
ENDROOT
BRANCH   1   8
ATOM      7  O   UNL     1       5.908   4.786  18.902  0.00  0.00    +0.000 OA
ATOM      8  C   UNL     1       5.066   4.425  18.081  0.00  0.00    +0.000 C 
ATOM      9  N   UNL     1       5.337   4.405  16.733  0.00  0.00    +0.000 N 
ATOM     10  H   UNL     1       4.633   4.056  16.093  0.00  0.00    +0.000 HD
BRANCH   9  11
ATOM     11  C   UNL     1       6.648   4.756  16.223  0.00  0.00    +0.000 C 
BRANCH  11  12
ATOM     12  C   UNL     1       6.821   4.523  14.737  0.00  0.00    +0.000 A 
ATOM     13  C   UNL     1       6.052   3.569  14.051  0.00  0.00    +0.000 A 
ATOM     14  C   UNL     1       6.127   3.447  12.662  0.00  0.00    +0.000 A 
ATOM     15  C   UNL     1       6.967   4.284  11.935  0.00  0.00    +0.000 A 
ATOM     16  C   UNL     1       7.744   5.232  12.599  0.00  0.00    +0.000 A 
ATOM     17  C   UNL     1       7.673   5.350  13.990  0.00  0.00    +0.000 A 
ENDBRANCH  11  12
ENDBRANCH   9  11
ENDBRANCH   1   8
BRANCH   6  18
ATOM     18  O   UNL     1       2.995   6.145  19.391  0.00  0.00    +0.000 OA
BRANCH  18  19
ATOM     19  C   UNL     1       2.885   6.980  18.224  0.00  0.00    +0.000 C 
BRANCH  19  20
ATOM     20  C   UNL     1       2.146   8.231  18.505  0.00  0.00    +0.000 A 
ATOM     21  N   UNL     1       1.656   9.073  17.618  0.00  0.00    +0.000 NA
ATOM     22  N   UNL     1       0.871   9.957  18.316  0.00  0.00    +0.000 NA
ATOM     23  C   UNL     1       0.931   9.596  19.583  0.00  0.00    +0.000 A 
ATOM     24  O   UNL     1       1.735   8.499  19.782  0.00  0.00    +0.000 OA
BRANCH  23  25
ATOM     25  C   UNL     1       0.242  10.155  20.735  0.00  0.00    +0.000 A 
ATOM     26  C   UNL     1      -0.233  11.475  20.673  0.00  0.00    +0.000 A 
ATOM     27  C   UNL     1      -0.923  12.036  21.749  0.00  0.00    +0.000 A 
ATOM     28  C   UNL     1      -1.143  11.284  22.900  0.00  0.00    +0.000 A 
ATOM     29  C   UNL     1      -0.672   9.975  22.978  0.00  0.00    +0.000 A 
ATOM     30  C   UNL     1       0.018   9.413  21.903  0.00  0.00    +0.000 A 
ENDBRANCH  23  25
ENDBRANCH  19  20
ENDBRANCH  18  19
ENDBRANCH   6  18
TORSDOF 7
ENDMDL
MODEL 8
REMARK VINA RESULT:      -8.6      2.560      7.313
REMARK  Name = 
REMARK  7 active torsions:
REMARK  status: ('A' for Active; 'I' for Inactive)
REMARK    1  A    between atoms: C_2  and  C_11
REMARK    2  A    between atoms: N_3  and  C_4
REMARK    3  A    between atoms: C_4  and  C_5
REMARK    4  A    between atoms: C_16  and  O_17
REMARK    5  A    between atoms: O_17  and  C_18
REMARK    6  A    between atoms: C_18  and  C_19
REMARK    7  A    between atoms: C_22  and  C_23
REMARK                            x       y       z     vdW  Elec       q    Type
REMARK                         _______ _______ _______ _____ _____    ______ ____
ROOT
ATOM      1  C   UNL     1       2.759   3.760  18.322  0.00  0.00    +0.000 A 
ATOM      2  C   UNL     1       2.127   2.569  17.899  0.00  0.00    +0.000 A 
ATOM      3  C   UNL     1       1.016   2.046  18.559  0.00  0.00    +0.000 A 
ATOM      4  C   UNL     1       0.495   2.725  19.647  0.00  0.00    +0.000 A 
ATOM      5  C   UNL     1       1.092   3.912  20.071  0.00  0.00    +0.000 A 
ATOM      6  C   UNL     1       2.251   4.431  19.453  0.00  0.00    +0.000 A 
ENDROOT
BRANCH   1   8
ATOM      7  O   UNL     1       4.680   3.307  17.033  0.00  0.00    +0.000 OA
ATOM      8  C   UNL     1       3.932   4.173  17.484  0.00  0.00    +0.000 C 
ATOM      9  N   UNL     1       4.144   5.508  17.237  0.00  0.00    +0.000 N 
ATOM     10  H   UNL     1       3.478   6.187  17.587  0.00  0.00    +0.000 HD
BRANCH   9  11
ATOM     11  C   UNL     1       5.228   5.953  16.384  0.00  0.00    +0.000 C 
BRANCH  11  12
ATOM     12  C   UNL     1       6.422   6.509  17.132  0.00  0.00    +0.000 A 
ATOM     13  C   UNL     1       6.843   7.836  16.954  0.00  0.00    +0.000 A 
ATOM     14  C   UNL     1       7.864   8.379  17.739  0.00  0.00    +0.000 A 
ATOM     15  C   UNL     1       8.473   7.603  18.720  0.00  0.00    +0.000 A 
ATOM     16  C   UNL     1       8.073   6.282  18.906  0.00  0.00    +0.000 A 
ATOM     17  C   UNL     1       7.055   5.737  18.118  0.00  0.00    +0.000 A 
ENDBRANCH  11  12
ENDBRANCH   9  11
ENDBRANCH   1   8
BRANCH   6  18
ATOM     18  O   UNL     1       2.895   5.561  19.927  0.00  0.00    +0.000 OA
BRANCH  18  19
ATOM     19  C   UNL     1       2.000   6.607  20.348  0.00  0.00    +0.000 C 
BRANCH  19  20
ATOM     20  C   UNL     1       2.024   7.763  19.425  0.00  0.00    +0.000 A 
ATOM     21  N   UNL     1       2.453   7.768  18.179  0.00  0.00    +0.000 NA
ATOM     22  N   UNL     1       2.083   8.978  17.648  0.00  0.00    +0.000 NA
ATOM     23  C   UNL     1       1.450   9.633  18.602  0.00  0.00    +0.000 A 
ATOM     24  O   UNL     1       1.377   8.917  19.773  0.00  0.00    +0.000 OA
BRANCH  23  25
ATOM     25  C   UNL     1       0.802  10.933  18.556  0.00  0.00    +0.000 A 
ATOM     26  C   UNL     1      -0.581  11.000  18.322  0.00  0.00    +0.000 A 
ATOM     27  C   UNL     1      -1.242  12.229  18.298  0.00  0.00    +0.000 A 
ATOM     28  C   UNL     1      -0.527  13.406  18.504  0.00  0.00    +0.000 A 
ATOM     29  C   UNL     1       0.848  13.355  18.731  0.00  0.00    +0.000 A 
ATOM     30  C   UNL     1       1.510  12.126  18.756  0.00  0.00    +0.000 A 
ENDBRANCH  23  25
ENDBRANCH  19  20
ENDBRANCH  18  19
ENDBRANCH   6  18
TORSDOF 7
ENDMDL
MODEL 9
REMARK VINA RESULT:      -8.6      2.725      7.901
REMARK  Name = 
REMARK  7 active torsions:
REMARK  status: ('A' for Active; 'I' for Inactive)
REMARK    1  A    between atoms: C_2  and  C_11
REMARK    2  A    between atoms: N_3  and  C_4
REMARK    3  A    between atoms: C_4  and  C_5
REMARK    4  A    between atoms: C_16  and  O_17
REMARK    5  A    between atoms: O_17  and  C_18
REMARK    6  A    between atoms: C_18  and  C_19
REMARK    7  A    between atoms: C_22  and  C_23
REMARK                            x       y       z     vdW  Elec       q    Type
REMARK                         _______ _______ _______ _____ _____    ______ ____
ROOT
ATOM      1  C   UNL     1       3.173   3.728  18.771  0.00  0.00    +0.000 A 
ATOM      2  C   UNL     1       2.733   2.386  18.707  0.00  0.00    +0.000 A 
ATOM      3  C   UNL     1       1.567   1.959  19.340  0.00  0.00    +0.000 A 
ATOM      4  C   UNL     1       0.799   2.879  20.033  0.00  0.00    +0.000 A 
ATOM      5  C   UNL     1       1.205   4.212  20.094  0.00  0.00    +0.000 A 
ATOM      6  C   UNL     1       2.411   4.656  19.508  0.00  0.00    +0.000 A 
ENDROOT
BRANCH   1   8
ATOM      7  O   UNL     1       4.404   4.105  16.795  0.00  0.00    +0.000 OA
ATOM      8  C   UNL     1       4.442   4.002  18.021  0.00  0.00    +0.000 C 
ATOM      9  N   UNL     1       5.619   4.135  18.718  0.00  0.00    +0.000 N 
ATOM     10  H   UNL     1       5.601   4.090  19.730  0.00  0.00    +0.000 HD
BRANCH   9  11
ATOM     11  C   UNL     1       6.861   4.459  18.044  0.00  0.00    +0.000 C 
BRANCH  11  12
ATOM     12  C   UNL     1       7.218   5.930  18.068  0.00  0.00    +0.000 A 
ATOM     13  C   UNL     1       8.162   6.439  18.975  0.00  0.00    +0.000 A 
ATOM     14  C   UNL     1       8.579   7.771  18.908  0.00  0.00    +0.000 A 
ATOM     15  C   UNL     1       8.064   8.612  17.926  0.00  0.00    +0.000 A 
ATOM     16  C   UNL     1       7.122   8.126  17.022  0.00  0.00    +0.000 A 
ATOM     17  C   UNL     1       6.701   6.795  17.093  0.00  0.00    +0.000 A 
ENDBRANCH  11  12
ENDBRANCH   9  11
ENDBRANCH   1   8
BRANCH   6  18
ATOM     18  O   UNL     1       2.859   5.959  19.642  0.00  0.00    +0.000 OA
BRANCH  18  19
ATOM     19  C   UNL     1       2.658   6.767  18.468  0.00  0.00    +0.000 C 
BRANCH  19  20
ATOM     20  C   UNL     1       2.130   8.109  18.802  0.00  0.00    +0.000 A 
ATOM     21  N   UNL     1       2.023   9.139  17.987  0.00  0.00    +0.000 NA
ATOM     22  N   UNL     1       1.287  10.085  18.656  0.00  0.00    +0.000 NA
ATOM     23  C   UNL     1       0.990   9.571  19.833  0.00  0.00    +0.000 A 
ATOM     24  O   UNL     1       1.502   8.307  20.001  0.00  0.00    +0.000 OA
BRANCH  23  25
ATOM     25  C   UNL     1       0.181  10.128  20.905  0.00  0.00    +0.000 A 
ATOM     26  C   UNL     1       0.136   9.465  22.143  0.00  0.00    +0.000 A 
ATOM     27  C   UNL     1      -0.608   9.984  23.204  0.00  0.00    +0.000 A 
ATOM     28  C   UNL     1      -1.318  11.170  23.038  0.00  0.00    +0.000 A 
ATOM     29  C   UNL     1      -1.288  11.836  21.814  0.00  0.00    +0.000 A 
ATOM     30  C   UNL     1      -0.544  11.318  20.752  0.00  0.00    +0.000 A 
ENDBRANCH  23  25
ENDBRANCH  19  20
ENDBRANCH  18  19
ENDBRANCH   6  18
TORSDOF 7
ENDMDL
