MODEL 1
REMARK VINA RESULT:      -8.7      0.000      0.000
REMARK  Name = 
REMARK  4 active torsions:
REMARK  status: ('A' for Active; 'I' for Inactive)
REMARK    1  A    between atoms: C_1  and  N_2
REMARK    2  A    between atoms: N_5  and  C_6
REMARK    3  A    between atoms: C_11  and  N_12
REMARK    4  A    between atoms: C_13  and  C_15
REMARK                            x       y       z     vdW  Elec       q    Type
REMARK                         _______ _______ _______ _____ _____    ______ ____
ROOT
ATOM      1  N   UNL     1       1.157   9.281  20.146  0.00  0.00    +0.000 N 
ATOM      2  C   UNL     1       1.429   7.932  20.325  0.00  0.00    +0.000 C 
ATOM      3  O   UNL     1       1.051   7.273  21.292  0.00  0.00    +0.000 OA
ATOM      4  H   UNL     1       1.557   9.738  19.351  0.00  0.00    +0.000 HD
ENDROOT
BRANCH   2   5
ATOM      5  C   UNL     1       2.385   7.230  19.391  0.00  0.00    +0.000 A 
ATOM      6  C   UNL     1       2.603   5.883  19.742  0.00  0.00    +0.000 A 
ATOM      7  C   UNL     1       3.791   5.270  19.414  0.00  0.00    +0.000 A 
ATOM      8  C   UNL     1       4.675   5.988  18.645  0.00  0.00    +0.000 A 
ATOM      9  C   UNL     1       6.010   5.475  18.387  0.00  0.00    +0.000 A 
ATOM     10  O   UNL     1       6.790   5.219  19.288  0.00  0.00    +0.000 OA
ATOM     11  N   UNL     1       6.198   5.295  17.064  0.00  0.00    +0.000 N 
ATOM     12  C   UNL     1       5.362   5.875  16.119  0.00  0.00    +0.000 A 
ATOM     13  N   UNL     1       4.494   6.818  16.389  0.00  0.00    +0.000 NA
ATOM     14  C   UNL     1       4.179   6.962  17.788  0.00  0.00    +0.000 A 
ATOM     15  C   UNL     1       3.111   7.734  18.291  0.00  0.00    +0.000 A 
ATOM     16  C   UNL     1       5.641   5.154  14.817  0.00  0.00    +0.000 C 
ATOM     17  C   UNL     1       6.340   3.864  15.321  0.00  0.00    +0.000 C 
ATOM     18  C   UNL     1       7.132   4.366  16.508  0.00  0.00    +0.000 C 
ENDBRANCH   2   5
BRANCH   1  24
ATOM     19  C   UNL     1       0.608  11.548  21.038  0.00  0.00    +0.000 A 
ATOM     20  C   UNL     1      -0.124  12.320  22.013  0.00  0.00    +0.000 A 
ATOM     21  C   UNL     1      -0.996  11.737  22.929  0.00  0.00    +0.000 A 
ATOM     22  C   UNL     1      -1.151  10.379  22.929  0.00  0.00    +0.000 A 
ATOM     23  C   UNL     1      -0.429   9.590  22.021  0.00  0.00    +0.000 A 
ATOM     24  C   UNL     1       0.459  10.135  21.070  0.00  0.00    +0.000 A 
BRANCH  19  29
ATOM     25  C   UNL     1       4.202  14.598  17.905  0.00  0.00    +0.000 C 
ATOM     26  N   UNL     1       2.989  14.123  18.560  0.00  0.00    +0.000 NA
ATOM     27  C   UNL     1       2.609  12.780  18.068  0.00  0.00    +0.000 C 
ATOM     28  C   UNL     1       1.294  12.289  18.721  0.00  0.00    +0.000 C 
ATOM     29  N   UNL     1       1.397  12.299  20.185  0.00  0.00    +0.000 N 
ATOM     30  C   UNL     1       1.891  13.583  20.747  0.00  0.00    +0.000 C 
ATOM     31  C   UNL     1       3.172  14.054  20.025  0.00  0.00    +0.000 C 
ENDBRANCH  19  29
ENDBRANCH   1  24
TORSDOF 3
ENDMDL
MODEL 2
REMARK VINA RESULT:      -8.6      2.745      9.312
REMARK  Name = 
REMARK  4 active torsions:
REMARK  status: ('A' for Active; 'I' for Inactive)
REMARK    1  A    between atoms: C_1  and  N_2
REMARK    2  A    between atoms: N_5  and  C_6
REMARK    3  A    between atoms: C_11  and  N_12
REMARK    4  A    between atoms: C_13  and  C_15
REMARK                            x       y       z     vdW  Elec       q    Type
REMARK                         _______ _______ _______ _____ _____    ______ ____
ROOT
ATOM      1  N   UNL     1       2.546   7.337  18.521  0.00  0.00    +0.000 N 
ATOM      2  C   UNL     1       2.044   8.565  18.112  0.00  0.00    +0.000 C 
ATOM      3  O   UNL     1       2.324   9.105  17.043  0.00  0.00    +0.000 OA
ATOM      4  H   UNL     1       2.298   7.011  19.434  0.00  0.00    +0.000 HD
ENDROOT
BRANCH   2   5
ATOM      5  C   UNL     1       1.237   9.403  19.074  0.00  0.00    +0.000 A 
ATOM      6  C   UNL     1       0.652  10.529  18.460  0.00  0.00    +0.000 A 
ATOM      7  C   UNL     1       0.390  11.659  19.202  0.00  0.00    +0.000 A 
ATOM      8  C   UNL     1       0.615  11.585  20.556  0.00  0.00    +0.000 A 
ATOM      9  C   UNL     1       0.512  12.774  21.384  0.00  0.00    +0.000 A 
ATOM     10  O   UNL     1       1.198  13.762  21.186  0.00  0.00    +0.000 OA
ATOM     11  N   UNL     1      -0.453  12.620  22.314  0.00  0.00    +0.000 N 
ATOM     12  C   UNL     1      -0.972  11.371  22.630  0.00  0.00    +0.000 A 
ATOM     13  N   UNL     1      -0.432  10.238  22.259  0.00  0.00    +0.000 NA
ATOM     14  C   UNL     1       0.521  10.349  21.183  0.00  0.00    +0.000 A 
ATOM     15  C   UNL     1       1.044   9.256  20.464  0.00  0.00    +0.000 A 
ATOM     16  C   UNL     1      -2.252  11.634  23.395  0.00  0.00    +0.000 C 
ATOM     17  C   UNL     1      -2.545  13.108  23.011  0.00  0.00    +0.000 C 
ATOM     18  C   UNL     1      -1.158  13.704  22.923  0.00  0.00    +0.000 C 
ENDBRANCH   2   5
BRANCH   1  24
ATOM     19  C   UNL     1       3.656   5.146  18.072  0.00  0.00    +0.000 A 
ATOM     20  C   UNL     1       4.656   4.429  17.318  0.00  0.00    +0.000 A 
ATOM     21  C   UNL     1       5.426   5.034  16.329  0.00  0.00    +0.000 A 
ATOM     22  C   UNL     1       5.253   6.365  16.072  0.00  0.00    +0.000 A 
ATOM     23  C   UNL     1       4.316   7.106  16.807  0.00  0.00    +0.000 A 
ATOM     24  C   UNL     1       3.508   6.536  17.814  0.00  0.00    +0.000 A 
BRANCH  19  29
ATOM     25  C   UNL     1       1.158   2.137  22.163  0.00  0.00    +0.000 C 
ATOM     26  N   UNL     1       1.714   2.537  20.876  0.00  0.00    +0.000 NA
ATOM     27  C   UNL     1       0.973   3.686  20.310  0.00  0.00    +0.000 C 
ATOM     28  C   UNL     1       1.523   4.087  18.920  0.00  0.00    +0.000 C 
ATOM     29  N   UNL     1       2.961   4.374  18.986  0.00  0.00    +0.000 N 
ATOM     30  C   UNL     1       3.759   3.314  19.653  0.00  0.00    +0.000 C 
ATOM     31  C   UNL     1       3.137   2.914  21.008  0.00  0.00    +0.000 C 
ENDBRANCH  19  29
ENDBRANCH   1  24
TORSDOF 3
ENDMDL
MODEL 3
REMARK VINA RESULT:      -8.5      2.321      8.427
REMARK  Name = 
REMARK  4 active torsions:
REMARK  status: ('A' for Active; 'I' for Inactive)
REMARK    1  A    between atoms: C_1  and  N_2
REMARK    2  A    between atoms: N_5  and  C_6
REMARK    3  A    between atoms: C_11  and  N_12
REMARK    4  A    between atoms: C_13  and  C_15
REMARK                            x       y       z     vdW  Elec       q    Type
REMARK                         _______ _______ _______ _____ _____    ______ ____
ROOT
ATOM      1  N   UNL     1       2.289   6.330  19.095  0.00  0.00    +0.000 N 
ATOM      2  C   UNL     1       1.808   6.672  20.351  0.00  0.00    +0.000 C 
ATOM      3  O   UNL     1       1.515   5.857  21.225  0.00  0.00    +0.000 OA
ATOM      4  H   UNL     1       2.445   7.067  18.437  0.00  0.00    +0.000 HD
ENDROOT
BRANCH   2   5
ATOM      5  C   UNL     1       1.446   8.107  20.650  0.00  0.00    +0.000 A 
ATOM      6  C   UNL     1       1.725   8.475  21.981  0.00  0.00    +0.000 A 
ATOM      7  C   UNL     1       0.989   9.468  22.589  0.00  0.00    +0.000 A 
ATOM      8  C   UNL     1       0.078  10.139  21.809  0.00  0.00    +0.000 A 
ATOM      9  C   UNL     1      -0.843  11.089  22.408  0.00  0.00    +0.000 A 
ATOM     10  O   UNL     1      -1.626  10.768  23.286  0.00  0.00    +0.000 OA
ATOM     11  N   UNL     1      -0.652  12.321  21.892  0.00  0.00    +0.000 N 
ATOM     12  C   UNL     1       0.058  12.520  20.715  0.00  0.00    +0.000 A 
ATOM     13  N   UNL     1       0.387  11.560  19.887  0.00  0.00    +0.000 NA
ATOM     14  C   UNL     1       0.307  10.233  20.443  0.00  0.00    +0.000 A 
ATOM     15  C   UNL     1       0.833   9.078  19.829  0.00  0.00    +0.000 A 
ATOM     16  C   UNL     1       0.384  13.998  20.671  0.00  0.00    +0.000 C 
ATOM     17  C   UNL     1       0.178  14.405  22.153  0.00  0.00    +0.000 C 
ATOM     18  C   UNL     1      -0.984  13.533  22.572  0.00  0.00    +0.000 C 
ENDBRANCH   2   5
BRANCH   1  24
ATOM     19  C   UNL     1       3.703   4.550  18.063  0.00  0.00    +0.000 A 
ATOM     20  C   UNL     1       3.775   3.197  17.567  0.00  0.00    +0.000 A 
ATOM     21  C   UNL     1       2.698   2.317  17.634  0.00  0.00    +0.000 A 
ATOM     22  C   UNL     1       1.516   2.750  18.167  0.00  0.00    +0.000 A 
ATOM     23  C   UNL     1       1.396   4.070  18.628  0.00  0.00    +0.000 A 
ATOM     24  C   UNL     1       2.460   4.996  18.587  0.00  0.00    +0.000 A 
BRANCH  19  29
ATOM     25  C   UNL     1       8.237   7.911  17.635  0.00  0.00    +0.000 C 
ATOM     26  N   UNL     1       7.285   6.829  17.415  0.00  0.00    +0.000 NA
ATOM     27  C   UNL     1       7.173   5.966  18.612  0.00  0.00    +0.000 C 
ATOM     28  C   UNL     1       6.201   4.785  18.370  0.00  0.00    +0.000 C 
ATOM     29  N   UNL     1       4.881   5.267  17.947  0.00  0.00    +0.000 N 
ATOM     30  C   UNL     1       4.923   6.237  16.822  0.00  0.00    +0.000 C 
ATOM     31  C   UNL     1       5.945   7.362  17.091  0.00  0.00    +0.000 C 
ENDBRANCH  19  29
ENDBRANCH   1  24
TORSDOF 3
ENDMDL
MODEL 4
REMARK VINA RESULT:      -8.5      2.383      8.298
REMARK  Name = 
REMARK  4 active torsions:
REMARK  status: ('A' for Active; 'I' for Inactive)
REMARK    1  A    between atoms: C_1  and  N_2
REMARK    2  A    between atoms: N_5  and  C_6
REMARK    3  A    between atoms: C_11  and  N_12
REMARK    4  A    between atoms: C_13  and  C_15
REMARK                            x       y       z     vdW  Elec       q    Type
REMARK                         _______ _______ _______ _____ _____    ______ ____
ROOT
ATOM      1  N   UNL     1       2.095   6.002  18.310  0.00  0.00    +0.000 N 
ATOM      2  C   UNL     1       2.305   6.776  19.443  0.00  0.00    +0.000 C 
ATOM      3  O   UNL     1       2.924   6.395  20.436  0.00  0.00    +0.000 OA
ATOM      4  H   UNL     1       1.532   6.387  17.579  0.00  0.00    +0.000 HD
ENDROOT
BRANCH   2   5
ATOM      5  C   UNL     1       1.610   8.109  19.580  0.00  0.00    +0.000 A 
ATOM      6  C   UNL     1       1.525   8.810  18.361  0.00  0.00    +0.000 A 
ATOM      7  C   UNL     1       1.470  10.186  18.360  0.00  0.00    +0.000 A 
ATOM      8  C   UNL     1       1.384  10.809  19.581  0.00  0.00    +0.000 A 
ATOM      9  C   UNL     1       1.477  12.256  19.676  0.00  0.00    +0.000 A 
ATOM     10  O   UNL     1       2.453  12.870  19.279  0.00  0.00    +0.000 OA
ATOM     11  N   UNL     1       0.344  12.769  20.197  0.00  0.00    +0.000 N 
ATOM     12  C   UNL     1      -0.578  11.976  20.868  0.00  0.00    +0.000 A 
ATOM     13  N   UNL     1      -0.339  10.752  21.266  0.00  0.00    +0.000 NA
ATOM     14  C   UNL     1       0.800  10.128  20.641  0.00  0.00    +0.000 A 
ATOM     15  C   UNL     1       1.106   8.755  20.729  0.00  0.00    +0.000 A 
ATOM     16  C   UNL     1      -1.847  12.798  20.956  0.00  0.00    +0.000 C 
ATOM     17  C   UNL     1      -1.602  13.866  19.859  0.00  0.00    +0.000 C 
ATOM     18  C   UNL     1      -0.112  14.103  19.963  0.00  0.00    +0.000 C 
ENDBRANCH   2   5
BRANCH   1  24
ATOM     19  C   UNL     1       3.855   4.273  17.926  0.00  0.00    +0.000 A 
ATOM     20  C   UNL     1       4.157   2.873  17.747  0.00  0.00    +0.000 A 
ATOM     21  C   UNL     1       3.183   1.881  17.823  0.00  0.00    +0.000 A 
ATOM     22  C   UNL     1       1.884   2.239  18.051  0.00  0.00    +0.000 A 
ATOM     23  C   UNL     1       1.544   3.592  18.195  0.00  0.00    +0.000 A 
ATOM     24  C   UNL     1       2.495   4.632  18.133  0.00  0.00    +0.000 A 
BRANCH  19  29
ATOM     25  C   UNL     1       8.016   8.099  17.659  0.00  0.00    +0.000 C 
ATOM     26  N   UNL     1       7.200   6.917  17.414  0.00  0.00    +0.000 NA
ATOM     27  C   UNL     1       7.116   6.067  18.623  0.00  0.00    +0.000 C 
ATOM     28  C   UNL     1       6.292   4.784  18.358  0.00  0.00    +0.000 C 
ATOM     29  N   UNL     1       4.953   5.112  17.856  0.00  0.00    +0.000 N 
ATOM     30  C   UNL     1       4.951   6.061  16.713  0.00  0.00    +0.000 C 
ATOM     31  C   UNL     1       5.830   7.295  17.008  0.00  0.00    +0.000 C 
ENDBRANCH  19  29
ENDBRANCH   1  24
TORSDOF 3
ENDMDL
MODEL 5
REMARK VINA RESULT:      -8.4      3.152      4.899
REMARK  Name = 
REMARK  4 active torsions:
REMARK  status: ('A' for Active; 'I' for Inactive)
REMARK    1  A    between atoms: C_1  and  N_2
REMARK    2  A    between atoms: N_5  and  C_6
REMARK    3  A    between atoms: C_11  and  N_12
REMARK    4  A    between atoms: C_13  and  C_15
REMARK                            x       y       z     vdW  Elec       q    Type
REMARK                         _______ _______ _______ _____ _____    ______ ____
ROOT
ATOM      1  N   UNL     1       1.405  10.452  18.769  0.00  0.00    +0.000 N 
ATOM      2  C   UNL     1       1.296   9.616  19.871  0.00  0.00    +0.000 C 
ATOM      3  O   UNL     1       0.981   9.995  20.998  0.00  0.00    +0.000 OA
ATOM      4  H   UNL     1       1.721  10.053  17.908  0.00  0.00    +0.000 HD
ENDROOT
BRANCH   2   5
ATOM      5  C   UNL     1       1.745   8.178  19.769  0.00  0.00    +0.000 A 
ATOM      6  C   UNL     1       2.447   7.908  18.577  0.00  0.00    +0.000 A 
ATOM      7  C   UNL     1       2.433   6.640  18.042  0.00  0.00    +0.000 A 
ATOM      8  C   UNL     1       1.814   5.657  18.777  0.00  0.00    +0.000 A 
ATOM      9  C   UNL     1       1.620   4.331  18.216  0.00  0.00    +0.000 A 
ATOM     10  O   UNL     1       0.990   4.149  17.188  0.00  0.00    +0.000 OA
ATOM     11  N   UNL     1       2.264   3.406  18.957  0.00  0.00    +0.000 N 
ATOM     12  C   UNL     1       2.709   3.679  20.244  0.00  0.00    +0.000 A 
ATOM     13  N   UNL     1       2.346   4.729  20.937  0.00  0.00    +0.000 NA
ATOM     14  C   UNL     1       1.758   5.790  20.159  0.00  0.00    +0.000 A 
ATOM     15  C   UNL     1       1.515   7.092  20.640  0.00  0.00    +0.000 A 
ATOM     16  C   UNL     1       3.688   2.576  20.588  0.00  0.00    +0.000 C 
ATOM     17  C   UNL     1       4.031   2.016  19.183  0.00  0.00    +0.000 C 
ATOM     18  C   UNL     1       2.714   2.148  18.450  0.00  0.00    +0.000 C 
ENDBRANCH   2   5
BRANCH   1  24
ATOM     19  C   UNL     1      -0.039  12.482  18.591  0.00  0.00    +0.000 A 
ATOM     20  C   UNL     1      -0.105  13.924  18.594  0.00  0.00    +0.000 A 
ATOM     21  C   UNL     1       1.013  14.724  18.815  0.00  0.00    +0.000 A 
ATOM     22  C   UNL     1       2.228  14.131  19.012  0.00  0.00    +0.000 A 
ATOM     23  C   UNL     1       2.341  12.733  18.981  0.00  0.00    +0.000 A 
ATOM     24  C   UNL     1       1.237  11.880  18.768  0.00  0.00    +0.000 A 
BRANCH  19  29
ATOM     25  C   UNL     1      -5.232  10.368  17.821  0.00  0.00    +0.000 C 
ATOM     26  N   UNL     1      -3.860  10.547  18.280  0.00  0.00    +0.000 NA
ATOM     27  C   UNL     1      -2.906  10.471  17.151  0.00  0.00    +0.000 C 
ATOM     28  C   UNL     1      -1.442  10.610  17.635  0.00  0.00    +0.000 C 
ATOM     29  N   UNL     1      -1.254  11.851  18.394  0.00  0.00    +0.000 N 
ATOM     30  C   UNL     1      -2.255  12.058  19.473  0.00  0.00    +0.000 C 
ATOM     31  C   UNL     1      -3.693  11.855  18.949  0.00  0.00    +0.000 C 
ENDBRANCH  19  29
ENDBRANCH   1  24
TORSDOF 3
ENDMDL
MODEL 6
REMARK VINA RESULT:      -8.3      2.322      8.338
REMARK  Name = 
REMARK  4 active torsions:
REMARK  status: ('A' for Active; 'I' for Inactive)
REMARK    1  A    between atoms: C_1  and  N_2
REMARK    2  A    between atoms: N_5  and  C_6
REMARK    3  A    between atoms: C_11  and  N_12
REMARK    4  A    between atoms: C_13  and  C_15
REMARK                            x       y       z     vdW  Elec       q    Type
REMARK                         _______ _______ _______ _____ _____    ______ ____
ROOT
ATOM      1  N   UNL     1       2.268   6.395  18.498  0.00  0.00    +0.000 N 
ATOM      2  C   UNL     1       1.982   7.002  19.713  0.00  0.00    +0.000 C 
ATOM      3  O   UNL     1       1.929   6.406  20.788  0.00  0.00    +0.000 OA
ATOM      4  H   UNL     1       2.233   6.961  17.673  0.00  0.00    +0.000 HD
ENDROOT
BRANCH   2   5
ATOM      5  C   UNL     1       1.539   8.444  19.745  0.00  0.00    +0.000 A 
ATOM      6  C   UNL     1       0.732   8.744  20.861  0.00  0.00    +0.000 A 
ATOM      7  C   UNL     1      -0.197   9.758  20.787  0.00  0.00    +0.000 A 
ATOM      8  C   UNL     1      -0.208  10.514  19.639  0.00  0.00    +0.000 A 
ATOM      9  C   UNL     1      -1.254  11.498  19.418  0.00  0.00    +0.000 A 
ATOM     10  O   UNL     1      -2.434  11.194  19.392  0.00  0.00    +0.000 OA
ATOM     11  N   UNL     1      -0.724  12.733  19.307  0.00  0.00    +0.000 N 
ATOM     12  C   UNL     1       0.630  12.930  19.072  0.00  0.00    +0.000 A 
ATOM     13  N   UNL     1       1.455  11.984  18.700  0.00  0.00    +0.000 NA
ATOM     14  C   UNL     1       0.968  10.644  18.912  0.00  0.00    +0.000 A 
ATOM     15  C   UNL     1       1.760   9.482  18.815  0.00  0.00    +0.000 A 
ATOM     16  C   UNL     1       0.901  14.386  19.392  0.00  0.00    +0.000 C 
ATOM     17  C   UNL     1      -0.339  14.750  20.250  0.00  0.00    +0.000 C 
ATOM     18  C   UNL     1      -1.436  13.938  19.598  0.00  0.00    +0.000 C 
ENDBRANCH   2   5
BRANCH   1  24
ATOM     19  C   UNL     1       3.783   4.444  18.138  0.00  0.00    +0.000 A 
ATOM     20  C   UNL     1       3.892   3.022  17.912  0.00  0.00    +0.000 A 
ATOM     21  C   UNL     1       2.783   2.180  17.885  0.00  0.00    +0.000 A 
ATOM     22  C   UNL     1       1.537   2.716  18.052  0.00  0.00    +0.000 A 
ATOM     23  C   UNL     1       1.385   4.097  18.239  0.00  0.00    +0.000 A 
ATOM     24  C   UNL     1       2.479   4.989  18.281  0.00  0.00    +0.000 A 
BRANCH  19  29
ATOM     25  C   UNL     1       8.459   7.629  18.252  0.00  0.00    +0.000 C 
ATOM     26  N   UNL     1       7.509   6.569  17.940  0.00  0.00    +0.000 NA
ATOM     27  C   UNL     1       7.182   5.774  19.145  0.00  0.00    +0.000 C 
ATOM     28  C   UNL     1       6.212   4.614  18.813  0.00  0.00    +0.000 C 
ATOM     29  N   UNL     1       4.992   5.115  18.170  0.00  0.00    +0.000 N 
ATOM     30  C   UNL     1       5.242   6.022  17.020  0.00  0.00    +0.000 C 
ATOM     31  C   UNL     1       6.256   7.127  17.389  0.00  0.00    +0.000 C 
ENDBRANCH  19  29
ENDBRANCH   1  24
TORSDOF 3
ENDMDL
MODEL 7
REMARK VINA RESULT:      -8.3      2.683      3.457
REMARK  Name = 
REMARK  4 active torsions:
REMARK  status: ('A' for Active; 'I' for Inactive)
REMARK    1  A    between atoms: C_1  and  N_2
REMARK    2  A    between atoms: N_5  and  C_6
REMARK    3  A    between atoms: C_11  and  N_12
REMARK    4  A    between atoms: C_13  and  C_15
REMARK                            x       y       z     vdW  Elec       q    Type
REMARK                         _______ _______ _______ _____ _____    ______ ____
ROOT
ATOM      1  N   UNL     1       0.701   9.651  19.330  0.00  0.00    +0.000 N 
ATOM      2  C   UNL     1       1.237   8.486  19.861  0.00  0.00    +0.000 C 
ATOM      3  O   UNL     1       1.085   8.124  21.027  0.00  0.00    +0.000 OA
ATOM      4  H   UNL     1       0.929   9.883  18.384  0.00  0.00    +0.000 HD
ENDROOT
BRANCH   2   5
ATOM      5  C   UNL     1       2.210   7.669  19.046  0.00  0.00    +0.000 A 
ATOM      6  C   UNL     1       2.344   6.348  19.518  0.00  0.00    +0.000 A 
ATOM      7  C   UNL     1       3.519   5.660  19.314  0.00  0.00    +0.000 A 
ATOM      8  C   UNL     1       4.478   6.274  18.544  0.00  0.00    +0.000 A 
ATOM      9  C   UNL     1       5.800   5.686  18.409  0.00  0.00    +0.000 A 
ATOM     10  O   UNL     1       6.515   5.473  19.373  0.00  0.00    +0.000 OA
ATOM     11  N   UNL     1       6.054   5.387  17.118  0.00  0.00    +0.000 N 
ATOM     12  C   UNL     1       5.301   5.921  16.081  0.00  0.00    +0.000 A 
ATOM     13  N   UNL     1       4.464   6.918  16.221  0.00  0.00    +0.000 NA
ATOM     14  C   UNL     1       4.077   7.193  17.582  0.00  0.00    +0.000 A 
ATOM     15  C   UNL     1       3.020   8.047  17.955  0.00  0.00    +0.000 A 
ATOM     16  C   UNL     1       5.619   5.082  14.861  0.00  0.00    +0.000 C 
ATOM     17  C   UNL     1       6.228   3.811  15.510  0.00  0.00    +0.000 C 
ATOM     18  C   UNL     1       6.973   4.377  16.698  0.00  0.00    +0.000 C 
ENDBRANCH   2   5
BRANCH   1  24
ATOM     19  C   UNL     1      -1.273  11.165  19.549  0.00  0.00    +0.000 A 
ATOM     20  C   UNL     1      -1.947  12.167  20.339  0.00  0.00    +0.000 A 
ATOM     21  C   UNL     1      -1.471  12.591  21.577  0.00  0.00    +0.000 A 
ATOM     22  C   UNL     1      -0.307  12.061  22.059  0.00  0.00    +0.000 A 
ATOM     23  C   UNL     1       0.397  11.111  21.306  0.00  0.00    +0.000 A 
ATOM     24  C   UNL     1      -0.049  10.645  20.050  0.00  0.00    +0.000 A 
BRANCH  19  29
ATOM     25  C   UNL     1      -3.938  10.344  14.624  0.00  0.00    +0.000 C 
ATOM     26  N   UNL     1      -3.518  10.214  16.014  0.00  0.00    +0.000 NA
ATOM     27  C   UNL     1      -2.095   9.818  16.107  0.00  0.00    +0.000 C 
ATOM     28  C   UNL     1      -1.654   9.629  17.579  0.00  0.00    +0.000 C 
ATOM     29  N   UNL     1      -1.911  10.841  18.365  0.00  0.00    +0.000 N 
ATOM     30  C   UNL     1      -3.293  11.370  18.227  0.00  0.00    +0.000 C 
ATOM     31  C   UNL     1      -3.701  11.488  16.743  0.00  0.00    +0.000 C 
ENDBRANCH  19  29
ENDBRANCH   1  24
TORSDOF 3
ENDMDL
MODEL 8
REMARK VINA RESULT:      -8.3      2.383      9.057
REMARK  Name = 
REMARK  4 active torsions:
REMARK  status: ('A' for Active; 'I' for Inactive)
REMARK    1  A    between atoms: C_1  and  N_2
REMARK    2  A    between atoms: N_5  and  C_6
REMARK    3  A    between atoms: C_11  and  N_12
REMARK    4  A    between atoms: C_13  and  C_15
REMARK                            x       y       z     vdW  Elec       q    Type
REMARK                         _______ _______ _______ _____ _____    ______ ____
ROOT
ATOM      1  N   UNL     1       3.787   7.189  17.874  0.00  0.00    +0.000 N 
ATOM      2  C   UNL     1       2.453   7.573  17.884  0.00  0.00    +0.000 C 
ATOM      3  O   UNL     1       1.570   7.022  17.228  0.00  0.00    +0.000 OA
ATOM      4  H   UNL     1       4.436   7.738  18.402  0.00  0.00    +0.000 HD
ENDROOT
BRANCH   2   5
ATOM      5  C   UNL     1       2.043   8.840  18.594  0.00  0.00    +0.000 A 
ATOM      6  C   UNL     1       1.412   8.595  19.830  0.00  0.00    +0.000 A 
ATOM      7  C   UNL     1       0.499   9.497  20.328  0.00  0.00    +0.000 A 
ATOM      8  C   UNL     1       0.334  10.670  19.631  0.00  0.00    +0.000 A 
ATOM      9  C   UNL     1      -0.716  11.603  20.001  0.00  0.00    +0.000 A 
ATOM     10  O   UNL     1      -1.893  11.284  20.010  0.00  0.00    +0.000 OA
ATOM     11  N   UNL     1      -0.187  12.791  20.361  0.00  0.00    +0.000 N 
ATOM     12  C   UNL     1       1.122  13.134  20.049  0.00  0.00    +0.000 A 
ATOM     13  N   UNL     1       1.868  12.478  19.196  0.00  0.00    +0.000 NA
ATOM     14  C   UNL     1       1.394  11.155  18.876  0.00  0.00    +0.000 A 
ATOM     15  C   UNL     1       2.144  10.185  18.180  0.00  0.00    +0.000 A 
ATOM     16  C   UNL     1       1.460  14.323  20.923  0.00  0.00    +0.000 C 
ATOM     17  C   UNL     1       0.364  14.226  22.016  0.00  0.00    +0.000 C 
ATOM     18  C   UNL     1      -0.829  13.720  21.236  0.00  0.00    +0.000 C 
ENDBRANCH   2   5
BRANCH   1  24
ATOM     19  C   UNL     1       4.116   4.775  17.326  0.00  0.00    +0.000 A 
ATOM     20  C   UNL     1       4.749   3.805  16.465  0.00  0.00    +0.000 A 
ATOM     21  C   UNL     1       5.536   4.171  15.376  0.00  0.00    +0.000 A 
ATOM     22  C   UNL     1       5.742   5.497  15.119  0.00  0.00    +0.000 A 
ATOM     23  C   UNL     1       5.174   6.471  15.954  0.00  0.00    +0.000 A 
ATOM     24  C   UNL     1       4.364   6.150  17.064  0.00  0.00    +0.000 A 
BRANCH  19  29
ATOM     25  C   UNL     1       1.276   2.752  21.784  0.00  0.00    +0.000 C 
ATOM     26  N   UNL     1       1.917   2.861  20.480  0.00  0.00    +0.000 NA
ATOM     27  C   UNL     1       1.256   3.888  19.644  0.00  0.00    +0.000 C 
ATOM     28  C   UNL     1       1.899   3.975  18.238  0.00  0.00    +0.000 C 
ATOM     29  N   UNL     1       3.341   4.230  18.334  0.00  0.00    +0.000 N 
ATOM     30  C   UNL     1       4.057   3.309  19.254  0.00  0.00    +0.000 C 
ATOM     31  C   UNL     1       3.345   3.217  20.621  0.00  0.00    +0.000 C 
ENDBRANCH  19  29
ENDBRANCH   1  24
TORSDOF 3
ENDMDL
MODEL 9
REMARK VINA RESULT:      -8.2      2.364      7.956
REMARK  Name = 
REMARK  4 active torsions:
REMARK  status: ('A' for Active; 'I' for Inactive)
REMARK    1  A    between atoms: C_1  and  N_2
REMARK    2  A    between atoms: N_5  and  C_6
REMARK    3  A    between atoms: C_11  and  N_12
REMARK    4  A    between atoms: C_13  and  C_15
REMARK                            x       y       z     vdW  Elec       q    Type
REMARK                         _______ _______ _______ _____ _____    ______ ____
ROOT
ATOM      1  N   UNL     1       2.557   6.296  20.020  0.00  0.00    +0.000 N 
ATOM      2  C   UNL     1       2.040   6.975  18.926  0.00  0.00    +0.000 C 
ATOM      3  O   UNL     1       1.786   6.450  17.843  0.00  0.00    +0.000 OA
ATOM      4  H   UNL     1       2.779   6.827  20.838  0.00  0.00    +0.000 HD
ENDROOT
BRANCH   2   5
ATOM      5  C   UNL     1       1.926   8.480  18.963  0.00  0.00    +0.000 A 
ATOM      6  C   UNL     1       1.265   8.950  20.116  0.00  0.00    +0.000 A 
ATOM      7  C   UNL     1       0.579  10.143  20.077  0.00  0.00    +0.000 A 
ATOM      8  C   UNL     1       0.672  10.882  18.923  0.00  0.00    +0.000 A 
ATOM      9  C   UNL     1      -0.142  12.072  18.743  0.00  0.00    +0.000 A 
ATOM     10  O   UNL     1      -1.360  12.035  18.782  0.00  0.00    +0.000 OA
ATOM     11  N   UNL     1       0.639  13.161  18.591  0.00  0.00    +0.000 N 
ATOM     12  C   UNL     1       1.989  13.056  18.283  0.00  0.00    +0.000 A 
ATOM     13  N   UNL     1       2.565  11.951  17.880  0.00  0.00    +0.000 NA
ATOM     14  C   UNL     1       1.808  10.751  18.134  0.00  0.00    +0.000 A 
ATOM     15  C   UNL     1       2.319   9.443  18.010  0.00  0.00    +0.000 A 
ATOM     16  C   UNL     1       2.589  14.416  18.571  0.00  0.00    +0.000 C 
ATOM     17  C   UNL     1       1.506  15.044  19.487  0.00  0.00    +0.000 C 
ATOM     18  C   UNL     1       0.225  14.492  18.903  0.00  0.00    +0.000 C 
ENDBRANCH   2   5
BRANCH   1  24
ATOM     19  C   UNL     1       4.198   4.468  19.572  0.00  0.00    +0.000 A 
ATOM     20  C   UNL     1       4.484   3.056  19.640  0.00  0.00    +0.000 A 
ATOM     21  C   UNL     1       3.600   2.138  20.203  0.00  0.00    +0.000 A 
ATOM     22  C   UNL     1       2.402   2.581  20.690  0.00  0.00    +0.000 A 
ATOM     23  C   UNL     1       2.072   3.942  20.611  0.00  0.00    +0.000 A 
ATOM     24  C   UNL     1       2.937   4.909  20.056  0.00  0.00    +0.000 A 
BRANCH  19  29
ATOM     25  C   UNL     1       7.976   7.966  17.223  0.00  0.00    +0.000 C 
ATOM     26  N   UNL     1       7.221   6.769  17.570  0.00  0.00    +0.000 NA
ATOM     27  C   UNL     1       7.385   6.432  19.002  0.00  0.00    +0.000 C 
ATOM     28  C   UNL     1       6.628   5.133  19.369  0.00  0.00    +0.000 C 
ATOM     29  N   UNL     1       5.207   5.233  19.015  0.00  0.00    +0.000 N 
ATOM     30  C   UNL     1       4.962   5.685  17.621  0.00  0.00    +0.000 C 
ATOM     31  C   UNL     1       5.781   6.952  17.291  0.00  0.00    +0.000 C 
ENDBRANCH  19  29
ENDBRANCH   1  24
TORSDOF 3
ENDMDL
