MODEL 1
REMARK VINA RESULT:      -8.7      0.000      0.000
REMARK  Name = 
REMARK  4 active torsions:
REMARK  status: ('A' for Active; 'I' for Inactive)
REMARK    1  A    between atoms: C_1  and  C_2
REMARK    2  A    between atoms: C_6  and  C_7
REMARK    3  A    between atoms: C_11  and  N_12
REMARK    4  A    between atoms: C_19  and  C_20
REMARK                            x       y       z     vdW  Elec       q    Type
REMARK                         _______ _______ _______ _____ _____    ______ ____
ROOT
ATOM      1  N   UNL     1       2.544   6.578  17.630  0.00  0.00    +0.000 N 
ATOM      2  C   UNL     1       1.676   5.391  17.831  0.00  0.00    +0.000 C 
ATOM      3  C   UNL     1       2.605   4.434  18.514  0.00  0.00    +0.000 A 
ATOM      4  C   UNL     1       3.902   4.755  18.108  0.00  0.00    +0.000 A 
ATOM      5  C   UNL     1       5.030   4.166  18.647  0.00  0.00    +0.000 A 
ATOM      6  C   UNL     1       4.834   3.227  19.657  0.00  0.00    +0.000 A 
ATOM      7  C   UNL     1       3.533   2.912  20.099  0.00  0.00    +0.000 A 
ATOM      8  C   UNL     1       2.388   3.510  19.533  0.00  0.00    +0.000 A 
ATOM      9  C   UNL     1       3.844   6.057  17.398  0.00  0.00    +0.000 C 
ATOM     10  O   UNL     1       4.811   6.619  16.916  0.00  0.00    +0.000 OA
ENDROOT
BRANCH   1  15
ATOM     11  C   UNL     1       1.165   9.448  19.378  0.00  0.00    +0.000 A 
ATOM     12  C   UNL     1       0.792   8.823  20.572  0.00  0.00    +0.000 A 
ATOM     13  C   UNL     1       1.379   7.615  20.938  0.00  0.00    +0.000 A 
ATOM     14  C   UNL     1       2.240   6.974  20.053  0.00  0.00    +0.000 A 
ATOM     15  C   UNL     1       2.423   7.494  18.760  0.00  0.00    +0.000 A 
ATOM     16  C   UNL     1       2.026   8.808  18.487  0.00  0.00    +0.000 A 
BRANCH  11  22
ATOM     17  C   UNL     1      -1.411   9.932  17.492  0.00  0.00    +0.000 C 
ATOM     18  C   UNL     1      -1.015  10.750  18.708  0.00  0.00    +0.000 C 
ATOM     19  C   UNL     1      -1.063  12.221  18.435  0.00  0.00    +0.000 C 
ATOM     20  C   UNL     1       0.159  12.743  18.539  0.00  0.00    +0.000 C 
ATOM     21  N   UNL     1       1.120  11.824  18.848  0.00  0.00    +0.000 NA
ATOM     22  C   UNL     1       0.477  10.694  18.980  0.00  0.00    +0.000 C 
ENDBRANCH  11  22
ENDBRANCH   1  15
BRANCH   8  23
ATOM     23  C   UNL     1       1.034   3.210  20.124  0.00  0.00    +0.000 C 
ATOM     24  F   UNL     1       0.335   4.316  20.499  0.00  0.00    +0.000 F 
ATOM     25  F   UNL     1       0.229   2.544  19.256  0.00  0.00    +0.000 F 
ATOM     26  F   UNL     1       1.114   2.422  21.233  0.00  0.00    +0.000 F 
ENDBRANCH   8  23
TORSDOF 3
ENDMDL
MODEL 2
REMARK VINA RESULT:      -8.4      0.696      1.416
REMARK  Name = 
REMARK  4 active torsions:
REMARK  status: ('A' for Active; 'I' for Inactive)
REMARK    1  A    between atoms: C_1  and  C_2
REMARK    2  A    between atoms: C_6  and  C_7
REMARK    3  A    between atoms: C_11  and  N_12
REMARK    4  A    between atoms: C_19  and  C_20
REMARK                            x       y       z     vdW  Elec       q    Type
REMARK                         _______ _______ _______ _____ _____    ______ ____
ROOT
ATOM      1  N   UNL     1       2.550   6.572  17.635  0.00  0.00    +0.000 N 
ATOM      2  C   UNL     1       1.680   5.385  17.829  0.00  0.00    +0.000 C 
ATOM      3  C   UNL     1       2.605   4.426  18.514  0.00  0.00    +0.000 A 
ATOM      4  C   UNL     1       3.905   4.748  18.116  0.00  0.00    +0.000 A 
ATOM      5  C   UNL     1       5.030   4.157  18.660  0.00  0.00    +0.000 A 
ATOM      6  C   UNL     1       4.828   3.216  19.666  0.00  0.00    +0.000 A 
ATOM      7  C   UNL     1       3.526   2.900  20.100  0.00  0.00    +0.000 A 
ATOM      8  C   UNL     1       2.383   3.500  19.530  0.00  0.00    +0.000 A 
ATOM      9  C   UNL     1       3.850   6.052  17.409  0.00  0.00    +0.000 C 
ATOM     10  O   UNL     1       4.820   6.615  16.934  0.00  0.00    +0.000 OA
ENDROOT
BRANCH   1  15
ATOM     11  C   UNL     1       1.115   9.399  19.410  0.00  0.00    +0.000 A 
ATOM     12  C   UNL     1       0.787   8.764  20.612  0.00  0.00    +0.000 A 
ATOM     13  C   UNL     1       1.420   7.576  20.966  0.00  0.00    +0.000 A 
ATOM     14  C   UNL     1       2.283   6.962  20.064  0.00  0.00    +0.000 A 
ATOM     15  C   UNL     1       2.422   7.485  18.767  0.00  0.00    +0.000 A 
ATOM     16  C   UNL     1       1.978   8.785  18.502  0.00  0.00    +0.000 A 
BRANCH  11  22
ATOM     17  C   UNL     1       1.418  12.453  20.414  0.00  0.00    +0.000 C 
ATOM     18  C   UNL     1       1.026  11.994  19.021  0.00  0.00    +0.000 C 
ATOM     19  C   UNL     1      -0.175  12.725  18.507  0.00  0.00    +0.000 C 
ATOM     20  C   UNL     1      -1.183  11.872  18.326  0.00  0.00    +0.000 C 
ATOM     21  N   UNL     1      -0.875  10.584  18.659  0.00  0.00    +0.000 NA
ATOM     22  C   UNL     1       0.379  10.622  19.025  0.00  0.00    +0.000 C 
ENDBRANCH  11  22
ENDBRANCH   1  15
BRANCH   8  23
ATOM     23  C   UNL     1       1.026   3.198  20.113  0.00  0.00    +0.000 C 
ATOM     24  F   UNL     1       0.196   2.530  19.267  0.00  0.00    +0.000 F 
ATOM     25  F   UNL     1       1.105   2.432  21.232  0.00  0.00    +0.000 F 
ATOM     26  F   UNL     1       0.358   4.327  20.484  0.00  0.00    +0.000 F 
ENDBRANCH   8  23
TORSDOF 3
ENDMDL
MODEL 3
REMARK VINA RESULT:      -8.3      3.105      3.970
REMARK  Name = 
REMARK  4 active torsions:
REMARK  status: ('A' for Active; 'I' for Inactive)
REMARK    1  A    between atoms: C_1  and  C_2
REMARK    2  A    between atoms: C_6  and  C_7
REMARK    3  A    between atoms: C_11  and  N_12
REMARK    4  A    between atoms: C_19  and  C_20
REMARK                            x       y       z     vdW  Elec       q    Type
REMARK                         _______ _______ _______ _____ _____    ______ ____
ROOT
ATOM      1  N   UNL     1       3.288   5.807  20.242  0.00  0.00    +0.000 N 
ATOM      2  C   UNL     1       4.436   5.560  19.333  0.00  0.00    +0.000 C 
ATOM      3  C   UNL     1       3.993   4.336  18.593  0.00  0.00    +0.000 A 
ATOM      4  C   UNL     1       3.122   3.637  19.432  0.00  0.00    +0.000 A 
ATOM      5  C   UNL     1       2.410   2.524  19.024  0.00  0.00    +0.000 A 
ATOM      6  C   UNL     1       2.572   2.117  17.702  0.00  0.00    +0.000 A 
ATOM      7  C   UNL     1       3.424   2.828  16.834  0.00  0.00    +0.000 A 
ATOM      8  C   UNL     1       4.156   3.955  17.263  0.00  0.00    +0.000 A 
ATOM      9  C   UNL     1       2.792   4.521  20.577  0.00  0.00    +0.000 C 
ATOM     10  O   UNL     1       2.053   4.208  21.494  0.00  0.00    +0.000 OA
ENDROOT
BRANCH   1  15
ATOM     11  C   UNL     1       1.104   8.709  20.157  0.00  0.00    +0.000 A 
ATOM     12  C   UNL     1       1.578   9.310  18.987  0.00  0.00    +0.000 A 
ATOM     13  C   UNL     1       2.274   8.552  18.049  0.00  0.00    +0.000 A 
ATOM     14  C   UNL     1       2.604   7.233  18.340  0.00  0.00    +0.000 A 
ATOM     15  C   UNL     1       2.329   6.711  19.616  0.00  0.00    +0.000 A 
ATOM     16  C   UNL     1       1.435   7.387  20.454  0.00  0.00    +0.000 A 
BRANCH  11  22
ATOM     17  C   UNL     1       1.178  11.900  20.643  0.00  0.00    +0.000 C 
ATOM     18  C   UNL     1      -0.003  10.976  20.883  0.00  0.00    +0.000 C 
ATOM     19  C   UNL     1      -0.637  11.211  22.218  0.00  0.00    +0.000 C 
ATOM     20  C   UNL     1      -0.511  10.123  22.979  0.00  0.00    +0.000 C 
ATOM     21  N   UNL     1       0.158   9.103  22.366  0.00  0.00    +0.000 NA
ATOM     22  C   UNL     1       0.429   9.550  21.168  0.00  0.00    +0.000 C 
ENDBRANCH  11  22
ENDBRANCH   1  15
BRANCH   8  23
ATOM     23  C   UNL     1       4.965   4.733  16.257  0.00  0.00    +0.000 C 
ATOM     24  F   UNL     1       4.930   4.216  14.999  0.00  0.00    +0.000 F 
ATOM     25  F   UNL     1       4.541   6.018  16.139  0.00  0.00    +0.000 F 
ATOM     26  F   UNL     1       6.283   4.807  16.597  0.00  0.00    +0.000 F 
ENDBRANCH   8  23
TORSDOF 3
ENDMDL
MODEL 4
REMARK VINA RESULT:      -8.2      3.598      4.714
REMARK  Name = 
REMARK  4 active torsions:
REMARK  status: ('A' for Active; 'I' for Inactive)
REMARK    1  A    between atoms: C_1  and  C_2
REMARK    2  A    between atoms: C_6  and  C_7
REMARK    3  A    between atoms: C_11  and  N_12
REMARK    4  A    between atoms: C_19  and  C_20
REMARK                            x       y       z     vdW  Elec       q    Type
REMARK                         _______ _______ _______ _____ _____    ______ ____
ROOT
ATOM      1  N   UNL     1       3.809   4.930  19.315  0.00  0.00    +0.000 N 
ATOM      2  C   UNL     1       5.197   5.448  19.397  0.00  0.00    +0.000 C 
ATOM      3  C   UNL     1       5.732   5.135  18.034  0.00  0.00    +0.000 A 
ATOM      4  C   UNL     1       5.031   4.025  17.558  0.00  0.00    +0.000 A 
ATOM      5  C   UNL     1       5.165   3.540  16.271  0.00  0.00    +0.000 A 
ATOM      6  C   UNL     1       6.031   4.225  15.423  0.00  0.00    +0.000 A 
ATOM      7  C   UNL     1       6.726   5.364  15.877  0.00  0.00    +0.000 A 
ATOM      8  C   UNL     1       6.591   5.843  17.197  0.00  0.00    +0.000 A 
ATOM      9  C   UNL     1       3.884   3.791  18.471  0.00  0.00    +0.000 C 
ATOM     10  O   UNL     1       3.072   2.893  18.335  0.00  0.00    +0.000 OA
ENDROOT
BRANCH   1  15
ATOM     11  C   UNL     1       1.770   7.898  19.793  0.00  0.00    +0.000 A 
ATOM     12  C   UNL     1       2.280   8.688  18.757  0.00  0.00    +0.000 A 
ATOM     13  C   UNL     1       2.944   8.090  17.689  0.00  0.00    +0.000 A 
ATOM     14  C   UNL     1       3.206   6.724  17.722  0.00  0.00    +0.000 A 
ATOM     15  C   UNL     1       2.899   5.983  18.875  0.00  0.00    +0.000 A 
ATOM     16  C   UNL     1       2.034   6.529  19.830  0.00  0.00    +0.000 A 
BRANCH  11  22
ATOM     17  C   UNL     1      -0.549  10.140  19.924  0.00  0.00    +0.000 C 
ATOM     18  C   UNL     1      -0.314   9.023  20.925  0.00  0.00    +0.000 C 
ATOM     19  C   UNL     1      -0.336   9.521  22.336  0.00  0.00    +0.000 C 
ATOM     20  C   UNL     1       0.860   9.347  22.899  0.00  0.00    +0.000 C 
ATOM     21  N   UNL     1       1.780   8.785  22.061  0.00  0.00    +0.000 NA
ATOM     22  C   UNL     1       1.131   8.563  20.948  0.00  0.00    +0.000 C 
ENDBRANCH  11  22
ENDBRANCH   1  15
BRANCH   8  23
ATOM     23  C   UNL     1       7.277   7.128  17.587  0.00  0.00    +0.000 C 
ATOM     24  F   UNL     1       8.151   7.594  16.654  0.00  0.00    +0.000 F 
ATOM     25  F   UNL     1       6.395   8.138  17.800  0.00  0.00    +0.000 F 
ATOM     26  F   UNL     1       7.989   7.006  18.742  0.00  0.00    +0.000 F 
ENDBRANCH   8  23
TORSDOF 3
ENDMDL
MODEL 5
REMARK VINA RESULT:      -8.1      2.942      3.647
REMARK  Name = 
REMARK  4 active torsions:
REMARK  status: ('A' for Active; 'I' for Inactive)
REMARK    1  A    between atoms: C_1  and  C_2
REMARK    2  A    between atoms: C_6  and  C_7
REMARK    3  A    between atoms: C_11  and  N_12
REMARK    4  A    between atoms: C_19  and  C_20
REMARK                            x       y       z     vdW  Elec       q    Type
REMARK                         _______ _______ _______ _____ _____    ______ ____
ROOT
ATOM      1  N   UNL     1       3.303   5.917  20.063  0.00  0.00    +0.000 N 
ATOM      2  C   UNL     1       4.556   5.467  19.407  0.00  0.00    +0.000 C 
ATOM      3  C   UNL     1       4.135   4.174  18.777  0.00  0.00    +0.000 A 
ATOM      4  C   UNL     1       3.083   3.664  19.542  0.00  0.00    +0.000 A 
ATOM      5  C   UNL     1       2.354   2.549  19.175  0.00  0.00    +0.000 A 
ATOM      6  C   UNL     1       2.691   1.940  17.969  0.00  0.00    +0.000 A 
ATOM      7  C   UNL     1       3.730   2.458  17.171  0.00  0.00    +0.000 A 
ATOM      8  C   UNL     1       4.477   3.589  17.560  0.00  0.00    +0.000 A 
ATOM      9  C   UNL     1       2.650   4.729  20.481  0.00  0.00    +0.000 C 
ATOM     10  O   UNL     1       1.749   4.603  21.291  0.00  0.00    +0.000 OA
ENDROOT
BRANCH   1  15
ATOM     11  C   UNL     1       1.429   8.908  19.202  0.00  0.00    +0.000 A 
ATOM     12  C   UNL     1       2.132   9.289  18.054  0.00  0.00    +0.000 A 
ATOM     13  C   UNL     1       2.895   8.351  17.363  0.00  0.00    +0.000 A 
ATOM     14  C   UNL     1       3.055   7.073  17.889  0.00  0.00    +0.000 A 
ATOM     15  C   UNL     1       2.538   6.774  19.162  0.00  0.00    +0.000 A 
ATOM     16  C   UNL     1       1.589   7.629  19.734  0.00  0.00    +0.000 A 
BRANCH  11  22
ATOM     17  C   UNL     1      -1.142  10.679  18.380  0.00  0.00    +0.000 C 
ATOM     18  C   UNL     1      -0.806  10.164  19.768  0.00  0.00    +0.000 C 
ATOM     19  C   UNL     1      -0.927  11.233  20.808  0.00  0.00    +0.000 C 
ATOM     20  C   UNL     1       0.265  11.472  21.356  0.00  0.00    +0.000 C 
ATOM     21  N   UNL     1       1.268  10.708  20.833  0.00  0.00    +0.000 NA
ATOM     22  C   UNL     1       0.682   9.937  19.955  0.00  0.00    +0.000 C 
ENDBRANCH  11  22
ENDBRANCH   1  15
BRANCH   8  23
ATOM     23  C   UNL     1       5.502   4.156  16.611  0.00  0.00    +0.000 C 
ATOM     24  F   UNL     1       6.672   4.512  17.208  0.00  0.00    +0.000 F 
ATOM     25  F   UNL     1       5.840   3.277  15.634  0.00  0.00    +0.000 F 
ATOM     26  F   UNL     1       5.053   5.271  15.968  0.00  0.00    +0.000 F 
ENDBRANCH   8  23
TORSDOF 3
ENDMDL
MODEL 6
REMARK VINA RESULT:      -8.1      3.011      3.839
REMARK  Name = 
REMARK  4 active torsions:
REMARK  status: ('A' for Active; 'I' for Inactive)
REMARK    1  A    between atoms: C_1  and  C_2
REMARK    2  A    between atoms: C_6  and  C_7
REMARK    3  A    between atoms: C_11  and  N_12
REMARK    4  A    between atoms: C_19  and  C_20
REMARK                            x       y       z     vdW  Elec       q    Type
REMARK                         _______ _______ _______ _____ _____    ______ ____
ROOT
ATOM      1  N   UNL     1       3.312   5.891  20.133  0.00  0.00    +0.000 N 
ATOM      2  C   UNL     1       4.519   5.525  19.349  0.00  0.00    +0.000 C 
ATOM      3  C   UNL     1       4.087   4.255  18.682  0.00  0.00    +0.000 A 
ATOM      4  C   UNL     1       3.122   3.664  19.501  0.00  0.00    +0.000 A 
ATOM      5  C   UNL     1       2.400   2.545  19.131  0.00  0.00    +0.000 A 
ATOM      6  C   UNL     1       2.652   2.017  17.868  0.00  0.00    +0.000 A 
ATOM      7  C   UNL     1       3.602   2.617  17.017  0.00  0.00    +0.000 A 
ATOM      8  C   UNL     1       4.342   3.752  17.409  0.00  0.00    +0.000 A 
ATOM      9  C   UNL     1       2.737   4.658  20.534  0.00  0.00    +0.000 C 
ATOM     10  O   UNL     1       1.912   4.454  21.408  0.00  0.00    +0.000 OA
ENDROOT
BRANCH   1  15
ATOM     11  C   UNL     1       1.360   8.903  19.571  0.00  0.00    +0.000 A 
ATOM     12  C   UNL     1       1.917   9.305  18.353  0.00  0.00    +0.000 A 
ATOM     13  C   UNL     1       2.584   8.380  17.554  0.00  0.00    +0.000 A 
ATOM     14  C   UNL     1       2.802   7.092  18.031  0.00  0.00    +0.000 A 
ATOM     15  C   UNL     1       2.446   6.768  19.352  0.00  0.00    +0.000 A 
ATOM     16  C   UNL     1       1.579   7.613  20.054  0.00  0.00    +0.000 A 
BRANCH  11  22
ATOM     17  C   UNL     1      -0.553   8.584  22.153  0.00  0.00    +0.000 C 
ATOM     18  C   UNL     1       0.459   9.690  21.908  0.00  0.00    +0.000 C 
ATOM     19  C   UNL     1      -0.117  11.046  22.172  0.00  0.00    +0.000 C 
ATOM     20  C   UNL     1      -0.140  11.757  21.045  0.00  0.00    +0.000 C 
ATOM     21  N   UNL     1       0.343  11.080  19.963  0.00  0.00    +0.000 NA
ATOM     22  C   UNL     1       0.718   9.919  20.431  0.00  0.00    +0.000 C 
ENDBRANCH  11  22
ENDBRANCH   1  15
BRANCH   8  23
ATOM     23  C   UNL     1       5.263   4.409  16.412  0.00  0.00    +0.000 C 
ATOM     24  F   UNL     1       6.505   4.679  16.900  0.00  0.00    +0.000 F 
ATOM     25  F   UNL     1       5.460   3.642  15.310  0.00  0.00    +0.000 F 
ATOM     26  F   UNL     1       4.772   5.596  15.956  0.00  0.00    +0.000 F 
ENDBRANCH   8  23
TORSDOF 3
ENDMDL
MODEL 7
REMARK VINA RESULT:      -8.0      4.153      6.669
REMARK  Name = 
REMARK  4 active torsions:
REMARK  status: ('A' for Active; 'I' for Inactive)
REMARK    1  A    between atoms: C_1  and  C_2
REMARK    2  A    between atoms: C_6  and  C_7
REMARK    3  A    between atoms: C_11  and  N_12
REMARK    4  A    between atoms: C_19  and  C_20
REMARK                            x       y       z     vdW  Elec       q    Type
REMARK                         _______ _______ _______ _____ _____    ______ ____
ROOT
ATOM      1  N   UNL     1      -0.964  11.785  19.123  0.00  0.00    +0.000 N 
ATOM      2  C   UNL     1       0.375  11.309  18.693  0.00  0.00    +0.000 C 
ATOM      3  C   UNL     1       0.702  10.296  19.746  0.00  0.00    +0.000 A 
ATOM      4  C   UNL     1       0.020  10.668  20.906  0.00  0.00    +0.000 A 
ATOM      5  C   UNL     1      -0.021   9.885  22.044  0.00  0.00    +0.000 A 
ATOM      6  C   UNL     1       0.639   8.659  21.994  0.00  0.00    +0.000 A 
ATOM      7  C   UNL     1       1.308   8.254  20.821  0.00  0.00    +0.000 A 
ATOM      8  C   UNL     1       1.354   9.067  19.670  0.00  0.00    +0.000 A 
ATOM      9  C   UNL     1      -0.941  11.739  20.541  0.00  0.00    +0.000 C 
ATOM     10  O   UNL     1      -1.692  12.285  21.330  0.00  0.00    +0.000 OA
ENDROOT
BRANCH   1  15
ATOM     11  C   UNL     1      -4.258  11.290  17.673  0.00  0.00    +0.000 A 
ATOM     12  C   UNL     1      -3.881  10.744  16.442  0.00  0.00    +0.000 A 
ATOM     13  C   UNL     1      -2.624  10.161  16.297  0.00  0.00    +0.000 A 
ATOM     14  C   UNL     1      -1.706  10.239  17.339  0.00  0.00    +0.000 A 
ATOM     15  C   UNL     1      -2.013  10.997  18.482  0.00  0.00    +0.000 A 
ATOM     16  C   UNL     1      -3.340  11.372  18.719  0.00  0.00    +0.000 A 
BRANCH  11  22
ATOM     17  C   UNL     1      -7.000  10.360  19.102  0.00  0.00    +0.000 C 
ATOM     18  C   UNL     1      -6.482  11.782  18.981  0.00  0.00    +0.000 C 
ATOM     19  C   UNL     1      -7.541  12.727  18.508  0.00  0.00    +0.000 C 
ATOM     20  C   UNL     1      -7.203  13.233  17.322  0.00  0.00    +0.000 C 
ATOM     21  N   UNL     1      -6.013  12.762  16.847  0.00  0.00    +0.000 NA
ATOM     22  C   UNL     1      -5.570  11.963  17.782  0.00  0.00    +0.000 C 
ENDBRANCH  11  22
ENDBRANCH   1  15
BRANCH   8  23
ATOM     23  C   UNL     1       1.994   8.529  18.415  0.00  0.00    +0.000 C 
ATOM     24  F   UNL     1       2.691   7.376  18.599  0.00  0.00    +0.000 F 
ATOM     25  F   UNL     1       1.080   8.256  17.448  0.00  0.00    +0.000 F 
ATOM     26  F   UNL     1       2.869   9.413  17.858  0.00  0.00    +0.000 F 
ENDBRANCH   8  23
TORSDOF 3
ENDMDL
MODEL 8
REMARK VINA RESULT:      -7.9      3.217      7.265
REMARK  Name = 
REMARK  4 active torsions:
REMARK  status: ('A' for Active; 'I' for Inactive)
REMARK    1  A    between atoms: C_1  and  C_2
REMARK    2  A    between atoms: C_6  and  C_7
REMARK    3  A    between atoms: C_11  and  N_12
REMARK    4  A    between atoms: C_19  and  C_20
REMARK                            x       y       z     vdW  Elec       q    Type
REMARK                         _______ _______ _______ _____ _____    ______ ____
ROOT
ATOM      1  N   UNL     1       0.767   8.325  21.149  0.00  0.00    +0.000 N 
ATOM      2  C   UNL     1      -0.502   8.618  20.436  0.00  0.00    +0.000 C 
ATOM      3  C   UNL     1      -0.388  10.090  20.184  0.00  0.00    +0.000 A 
ATOM      4  C   UNL     1       0.423  10.622  21.189  0.00  0.00    +0.000 A 
ATOM      5  C   UNL     1       0.858  11.933  21.194  0.00  0.00    +0.000 A 
ATOM      6  C   UNL     1       0.473  12.734  20.121  0.00  0.00    +0.000 A 
ATOM      7  C   UNL     1      -0.322  12.206  19.084  0.00  0.00    +0.000 A 
ATOM      8  C   UNL     1      -0.771  10.869  19.095  0.00  0.00    +0.000 A 
ATOM      9  C   UNL     1       1.043   9.486  21.916  0.00  0.00    +0.000 C 
ATOM     10  O   UNL     1       1.809   9.610  22.855  0.00  0.00    +0.000 OA
ENDROOT
BRANCH   1  15
ATOM     11  C   UNL     1       2.651   5.932  19.168  0.00  0.00    +0.000 A 
ATOM     12  C   UNL     1       2.518   6.530  17.911  0.00  0.00    +0.000 A 
ATOM     13  C   UNL     1       2.203   7.883  17.814  0.00  0.00    +0.000 A 
ATOM     14  C   UNL     1       1.898   8.601  18.966  0.00  0.00    +0.000 A 
ATOM     15  C   UNL     1       1.803   7.933  20.199  0.00  0.00    +0.000 A 
ATOM     16  C   UNL     1       2.343   6.648  20.325  0.00  0.00    +0.000 A 
BRANCH  11  22
ATOM     17  C   UNL     1       0.784   3.486  20.145  0.00  0.00    +0.000 C 
ATOM     18  C   UNL     1       1.831   3.441  19.046  0.00  0.00    +0.000 C 
ATOM     19  C   UNL     1       2.732   2.254  19.177  0.00  0.00    +0.000 C 
ATOM     20  C   UNL     1       3.982   2.655  19.407  0.00  0.00    +0.000 C 
ATOM     21  N   UNL     1       4.116   4.012  19.475  0.00  0.00    +0.000 NA
ATOM     22  C   UNL     1       2.918   4.481  19.242  0.00  0.00    +0.000 C 
ENDBRANCH  11  22
ENDBRANCH   1  15
BRANCH   8  23
ATOM     23  C   UNL     1      -1.527  10.338  17.903  0.00  0.00    +0.000 C 
ATOM     24  F   UNL     1      -2.667   9.668  18.224  0.00  0.00    +0.000 F 
ATOM     25  F   UNL     1      -1.908  11.326  17.053  0.00  0.00    +0.000 F 
ATOM     26  F   UNL     1      -0.780   9.475  17.158  0.00  0.00    +0.000 F 
ENDBRANCH   8  23
TORSDOF 3
ENDMDL
MODEL 9
REMARK VINA RESULT:      -7.8      3.267      4.798
REMARK  Name = 
REMARK  4 active torsions:
REMARK  status: ('A' for Active; 'I' for Inactive)
REMARK    1  A    between atoms: C_1  and  C_2
REMARK    2  A    between atoms: C_6  and  C_7
REMARK    3  A    between atoms: C_11  and  N_12
REMARK    4  A    between atoms: C_19  and  C_20
REMARK                            x       y       z     vdW  Elec       q    Type
REMARK                         _______ _______ _______ _____ _____    ______ ____
ROOT
ATOM      1  N   UNL     1       4.114   3.229  18.680  0.00  0.00    +0.000 N 
ATOM      2  C   UNL     1       5.588   3.403  18.741  0.00  0.00    +0.000 C 
ATOM      3  C   UNL     1       5.805   4.568  17.825  0.00  0.00    +0.000 A 
ATOM      4  C   UNL     1       4.765   4.562  16.893  0.00  0.00    +0.000 A 
ATOM      5  C   UNL     1       4.567   5.577  15.976  0.00  0.00    +0.000 A 
ATOM      6  C   UNL     1       5.448   6.654  16.022  0.00  0.00    +0.000 A 
ATOM      7  C   UNL     1       6.486   6.690  16.974  0.00  0.00    +0.000 A 
ATOM      8  C   UNL     1       6.687   5.644  17.898  0.00  0.00    +0.000 A 
ATOM      9  C   UNL     1       3.749   3.584  17.356  0.00  0.00    +0.000 C 
ATOM     10  O   UNL     1       2.713   3.340  16.763  0.00  0.00    +0.000 OA
ENDROOT
BRANCH   1  15
ATOM     11  C   UNL     1       2.218   6.034  19.996  0.00  0.00    +0.000 A 
ATOM     12  C   UNL     1       1.217   5.329  20.672  0.00  0.00    +0.000 A 
ATOM     13  C   UNL     1       1.428   4.002  21.038  0.00  0.00    +0.000 A 
ATOM     14  C   UNL     1       2.581   3.349  20.618  0.00  0.00    +0.000 A 
ATOM     15  C   UNL     1       3.468   3.996  19.741  0.00  0.00    +0.000 A 
ATOM     16  C   UNL     1       3.375   5.382  19.572  0.00  0.00    +0.000 A 
BRANCH  11  22
ATOM     17  C   UNL     1       0.219   8.271  21.191  0.00  0.00    +0.000 C 
ATOM     18  C   UNL     1       1.564   8.520  20.531  0.00  0.00    +0.000 C 
ATOM     19  C   UNL     1       1.493   9.608  19.506  0.00  0.00    +0.000 C 
ATOM     20  C   UNL     1       1.764   9.113  18.298  0.00  0.00    +0.000 C 
ATOM     21  N   UNL     1       2.019   7.772  18.302  0.00  0.00    +0.000 NA
ATOM     22  C   UNL     1       1.942   7.419  19.559  0.00  0.00    +0.000 C 
ENDBRANCH  11  22
ENDBRANCH   1  15
BRANCH   8  23
ATOM     23  C   UNL     1       7.746   5.794  18.961  0.00  0.00    +0.000 C 
ATOM     24  F   UNL     1       7.265   5.754  20.232  0.00  0.00    +0.000 F 
ATOM     25  F   UNL     1       8.685   4.815  18.892  0.00  0.00    +0.000 F 
ATOM     26  F   UNL     1       8.427   6.969  18.852  0.00  0.00    +0.000 F 
ENDBRANCH   8  23
TORSDOF 3
ENDMDL
