MODEL 1
REMARK VINA RESULT:      -8.4      0.000      0.000
REMARK  Name = 
REMARK  6 active torsions:
REMARK  status: ('A' for Active; 'I' for Inactive)
REMARK    1  A    between atoms: C_1  and  C_2
REMARK    2  A    between atoms: C_2  and  N_3
REMARK    3  A    between atoms: C_2  and  C_19
REMARK    4  A    between atoms: C_10  and  C_11
REMARK    5  A    between atoms: C_23  and  S_24
REMARK    6  A    between atoms: S_24  and  N_25
REMARK                            x       y       z     vdW  Elec       q    Type
REMARK                         _______ _______ _______ _____ _____    ______ ____
ROOT
ATOM      1  N   UNL     1       1.062   6.580  20.815  0.00  0.00    +0.000 N 
ATOM      2  C   UNL     1       1.795   5.450  20.549  0.00  0.00    +0.000 A 
ATOM      3  C   UNL     1       1.129   4.136  20.827  0.00  0.00    +0.000 A 
ATOM      4  C   UNL     1       1.822   3.008  20.631  0.00  0.00    +0.000 A 
ATOM      5  C   UNL     1       3.127   3.096  20.111  0.00  0.00    +0.000 A 
ATOM      6  N   UNL     1       4.027   2.185  19.826  0.00  0.00    +0.000 NA
ATOM      7  N   UNL     1       5.123   2.834  19.307  0.00  0.00    +0.000 NA
ATOM      8  C   UNL     1       4.859   4.134  19.260  0.00  0.00    +0.000 A 
ATOM      9  N   UNL     1       3.621   4.355  19.826  0.00  0.00    +0.000 N 
ATOM     10  N   UNL     1       3.005   5.552  20.083  0.00  0.00    +0.000 NA
ATOM     11  H   UNL     1       0.276   6.669  20.177  0.00  0.00    +0.000 HD
ENDROOT
BRANCH   8  12
ATOM     12  C   UNL     1       5.734   5.166  18.715  0.00  0.00    +0.000 A 
ATOM     13  C   UNL     1       5.290   6.006  17.698  0.00  0.00    +0.000 A 
ATOM     14  C   UNL     1       6.149   6.991  17.221  0.00  0.00    +0.000 A 
ATOM     15  C   UNL     1       7.414   7.121  17.778  0.00  0.00    +0.000 A 
ATOM     16  C   UNL     1       7.769   6.256  18.799  0.00  0.00    +0.000 A 
ATOM     17  N   UNL     1       6.961   5.289  19.279  0.00  0.00    +0.000 NA
ENDBRANCH   8  12
BRANCH   1  19
ATOM     18  C   UNL     1       1.082   8.511  22.341  0.00  0.00    +0.000 C 
ATOM     19  C   UNL     1       1.670   7.888  21.073  0.00  0.00    +0.000 C 
BRANCH  19  20
ATOM     20  C   UNL     1       1.367   8.765  19.863  0.00  0.00    +0.000 A 
ATOM     21  C   UNL     1       2.070   8.605  18.660  0.00  0.00    +0.000 A 
ATOM     22  C   UNL     1       1.712   9.339  17.524  0.00  0.00    +0.000 A 
ATOM     23  C   UNL     1       0.637  10.228  17.571  0.00  0.00    +0.000 A 
ATOM     24  C   UNL     1      -0.053  10.408  18.771  0.00  0.00    +0.000 A 
ATOM     25  C   UNL     1       0.321   9.702  19.916  0.00  0.00    +0.000 A 
BRANCH  24  26
ATOM     26  S   UNL     1      -1.503  11.416  18.819  0.00  0.00    +0.000 S 
ATOM     27  O   UNL     1      -2.610  10.672  18.263  0.00  0.00    +0.000 OA
ATOM     28  O   UNL     1      -1.586  12.075  20.100  0.00  0.00    +0.000 OA
BRANCH  26  29
ATOM     29  N   UNL     1      -1.143  12.617  17.708  0.00  0.00    +0.000 NA
ATOM     30  H   UNL     1      -1.536  12.371  16.800  0.00  0.00    +0.000 HD
ATOM     31  H   UNL     1      -1.461  13.520  18.063  0.00  0.00    +0.000 HD
ENDBRANCH  26  29
ENDBRANCH  24  26
ENDBRANCH  19  20
ENDBRANCH   1  19
TORSDOF 5
ENDMDL
MODEL 2
REMARK VINA RESULT:      -8.1      4.747      7.798
REMARK  Name = 
REMARK  6 active torsions:
REMARK  status: ('A' for Active; 'I' for Inactive)
REMARK    1  A    between atoms: C_1  and  C_2
REMARK    2  A    between atoms: C_2  and  N_3
REMARK    3  A    between atoms: C_2  and  C_19
REMARK    4  A    between atoms: C_10  and  C_11
REMARK    5  A    between atoms: C_23  and  S_24
REMARK    6  A    between atoms: S_24  and  N_25
REMARK                            x       y       z     vdW  Elec       q    Type
REMARK                         _______ _______ _______ _____ _____    ______ ____
ROOT
ATOM      1  N   UNL     1       2.019   7.643  19.857  0.00  0.00    +0.000 N 
ATOM      2  C   UNL     1       1.311   8.584  20.561  0.00  0.00    +0.000 A 
ATOM      3  C   UNL     1       0.328   8.071  21.569  0.00  0.00    +0.000 A 
ATOM      4  C   UNL     1      -0.423   8.951  22.243  0.00  0.00    +0.000 A 
ATOM      5  C   UNL     1      -0.214  10.326  22.026  0.00  0.00    +0.000 A 
ATOM      6  N   UNL     1      -0.789  11.395  22.526  0.00  0.00    +0.000 NA
ATOM      7  N   UNL     1      -0.162  12.493  21.982  0.00  0.00    +0.000 NA
ATOM      8  C   UNL     1       0.805  12.070  21.178  0.00  0.00    +0.000 A 
ATOM      9  N   UNL     1       0.765  10.692  21.123  0.00  0.00    +0.000 N 
ATOM     10  N   UNL     1       1.506   9.851  20.335  0.00  0.00    +0.000 NA
ATOM     11  H   UNL     1       2.666   7.141  20.459  0.00  0.00    +0.000 HD
ENDROOT
BRANCH   8  12
ATOM     12  C   UNL     1       1.750  12.915  20.458  0.00  0.00    +0.000 A 
ATOM     13  C   UNL     1       1.610  13.127  19.089  0.00  0.00    +0.000 A 
ATOM     14  C   UNL     1       2.521  13.958  18.444  0.00  0.00    +0.000 A 
ATOM     15  C   UNL     1       3.532  14.563  19.179  0.00  0.00    +0.000 A 
ATOM     16  C   UNL     1       3.588  14.314  20.540  0.00  0.00    +0.000 A 
ATOM     17  N   UNL     1       2.723  13.511  21.192  0.00  0.00    +0.000 NA
ENDBRANCH   8  12
BRANCH   1  19
ATOM     18  C   UNL     1       1.567   8.368  17.548  0.00  0.00    +0.000 C 
ATOM     19  C   UNL     1       2.628   7.908  18.551  0.00  0.00    +0.000 C 
BRANCH  19  20
ATOM     20  C   UNL     1       3.264   6.603  18.085  0.00  0.00    +0.000 A 
ATOM     21  C   UNL     1       2.522   5.413  18.037  0.00  0.00    +0.000 A 
ATOM     22  C   UNL     1       3.082   4.246  17.506  0.00  0.00    +0.000 A 
ATOM     23  C   UNL     1       4.383   4.257  17.001  0.00  0.00    +0.000 A 
ATOM     24  C   UNL     1       5.135   5.432  17.066  0.00  0.00    +0.000 A 
ATOM     25  C   UNL     1       4.591   6.591  17.623  0.00  0.00    +0.000 A 
BRANCH  24  26
ATOM     26  S   UNL     1       6.727   5.510  16.304  0.00  0.00    +0.000 S 
ATOM     27  O   UNL     1       7.592   4.532  16.925  0.00  0.00    +0.000 OA
ATOM     28  O   UNL     1       6.569   5.597  14.873  0.00  0.00    +0.000 OA
BRANCH  26  29
ATOM     29  N   UNL     1       7.288   7.010  16.797  0.00  0.00    +0.000 NA
ATOM     30  H   UNL     1       7.834   7.432  16.046  0.00  0.00    +0.000 HD
ATOM     31  H   UNL     1       6.504   7.584  17.109  0.00  0.00    +0.000 HD
ENDBRANCH  26  29
ENDBRANCH  24  26
ENDBRANCH  19  20
ENDBRANCH   1  19
TORSDOF 5
ENDMDL
MODEL 3
REMARK VINA RESULT:      -8.0      1.271      1.543
REMARK  Name = 
REMARK  6 active torsions:
REMARK  status: ('A' for Active; 'I' for Inactive)
REMARK    1  A    between atoms: C_1  and  C_2
REMARK    2  A    between atoms: C_2  and  N_3
REMARK    3  A    between atoms: C_2  and  C_19
REMARK    4  A    between atoms: C_10  and  C_11
REMARK    5  A    between atoms: C_23  and  S_24
REMARK    6  A    between atoms: S_24  and  N_25
REMARK                            x       y       z     vdW  Elec       q    Type
REMARK                         _______ _______ _______ _____ _____    ______ ____
ROOT
ATOM      1  N   UNL     1       1.093   7.031  20.566  0.00  0.00    +0.000 N 
ATOM      2  C   UNL     1       1.819   5.882  20.379  0.00  0.00    +0.000 A 
ATOM      3  C   UNL     1       1.128   4.590  20.694  0.00  0.00    +0.000 A 
ATOM      4  C   UNL     1       1.814   3.447  20.575  0.00  0.00    +0.000 A 
ATOM      5  C   UNL     1       3.136   3.496  20.099  0.00  0.00    +0.000 A 
ATOM      6  N   UNL     1       4.034   2.562  19.889  0.00  0.00    +0.000 NA
ATOM      7  N   UNL     1       5.156   3.174  19.380  0.00  0.00    +0.000 NA
ATOM      8  C   UNL     1       4.911   4.473  19.263  0.00  0.00    +0.000 A 
ATOM      9  N   UNL     1       3.656   4.734  19.774  0.00  0.00    +0.000 N 
ATOM     10  N   UNL     1       3.047   5.949  19.953  0.00  0.00    +0.000 NA
ATOM     11  H   UNL     1       0.331   7.099  19.897  0.00  0.00    +0.000 HD
ENDROOT
BRANCH   8  12
ATOM     12  C   UNL     1       5.816   5.469  18.702  0.00  0.00    +0.000 A 
ATOM     13  C   UNL     1       7.093   5.641  19.228  0.00  0.00    +0.000 A 
ATOM     14  C   UNL     1       7.933   6.587  18.649  0.00  0.00    +0.000 A 
ATOM     15  C   UNL     1       7.485   7.321  17.559  0.00  0.00    +0.000 A 
ATOM     16  C   UNL     1       6.208   7.073  17.086  0.00  0.00    +0.000 A 
ATOM     17  N   UNL     1       5.369   6.167  17.628  0.00  0.00    +0.000 NA
ENDBRANCH   8  12
BRANCH   1  19
ATOM     18  C   UNL     1       1.620   8.737  22.261  0.00  0.00    +0.000 C 
ATOM     19  C   UNL     1       1.708   8.343  20.785  0.00  0.00    +0.000 C 
BRANCH  19  20
ATOM     20  C   UNL     1       0.940   9.342  19.925  0.00  0.00    +0.000 A 
ATOM     21  C   UNL     1       0.807   9.152  18.541  0.00  0.00    +0.000 A 
ATOM     22  C   UNL     1       0.011  10.014  17.779  0.00  0.00    +0.000 A 
ATOM     23  C   UNL     1      -0.674  11.065  18.390  0.00  0.00    +0.000 A 
ATOM     24  C   UNL     1      -0.527  11.272  19.763  0.00  0.00    +0.000 A 
ATOM     25  C   UNL     1       0.291  10.434  20.523  0.00  0.00    +0.000 A 
BRANCH  24  26
ATOM     26  S   UNL     1      -1.495  12.503  20.583  0.00  0.00    +0.000 S 
ATOM     27  O   UNL     1      -1.984  11.962  21.830  0.00  0.00    +0.000 OA
ATOM     28  O   UNL     1      -0.812  13.773  20.511  0.00  0.00    +0.000 OA
BRANCH  26  29
ATOM     29  N   UNL     1      -2.828  12.641  19.578  0.00  0.00    +0.000 NA
ATOM     30  H   UNL     1      -3.537  11.964  19.859  0.00  0.00    +0.000 HD
ATOM     31  H   UNL     1      -3.158  13.607  19.576  0.00  0.00    +0.000 HD
ENDBRANCH  26  29
ENDBRANCH  24  26
ENDBRANCH  19  20
ENDBRANCH   1  19
TORSDOF 5
ENDMDL
MODEL 4
REMARK VINA RESULT:      -7.9      4.701      7.782
REMARK  Name = 
REMARK  6 active torsions:
REMARK  status: ('A' for Active; 'I' for Inactive)
REMARK    1  A    between atoms: C_1  and  C_2
REMARK    2  A    between atoms: C_2  and  N_3
REMARK    3  A    between atoms: C_2  and  C_19
REMARK    4  A    between atoms: C_10  and  C_11
REMARK    5  A    between atoms: C_23  and  S_24
REMARK    6  A    between atoms: S_24  and  N_25
REMARK                            x       y       z     vdW  Elec       q    Type
REMARK                         _______ _______ _______ _____ _____    ______ ____
ROOT
ATOM      1  N   UNL     1       2.144   7.451  19.948  0.00  0.00    +0.000 N 
ATOM      2  C   UNL     1       1.417   8.411  20.607  0.00  0.00    +0.000 A 
ATOM      3  C   UNL     1       0.439   7.928  21.634  0.00  0.00    +0.000 A 
ATOM      4  C   UNL     1      -0.329   8.824  22.265  0.00  0.00    +0.000 A 
ATOM      5  C   UNL     1      -0.143  10.191  21.987  0.00  0.00    +0.000 A 
ATOM      6  N   UNL     1      -0.737  11.271  22.436  0.00  0.00    +0.000 NA
ATOM      7  N   UNL     1      -0.127  12.354  21.846  0.00  0.00    +0.000 NA
ATOM      8  C   UNL     1       0.850  11.912  21.065  0.00  0.00    +0.000 A 
ATOM      9  N   UNL     1       0.834  10.533  21.072  0.00  0.00    +0.000 N 
ATOM     10  N   UNL     1       1.592   9.669  20.324  0.00  0.00    +0.000 NA
ATOM     11  H   UNL     1       2.797   6.988  20.575  0.00  0.00    +0.000 HD
ENDROOT
BRANCH   8  12
ATOM     12  C   UNL     1       1.783  12.740  20.310  0.00  0.00    +0.000 A 
ATOM     13  C   UNL     1       1.710  12.804  18.921  0.00  0.00    +0.000 A 
ATOM     14  C   UNL     1       2.606  13.624  18.241  0.00  0.00    +0.000 A 
ATOM     15  C   UNL     1       3.536  14.362  18.960  0.00  0.00    +0.000 A 
ATOM     16  C   UNL     1       3.528  14.255  20.340  0.00  0.00    +0.000 A 
ATOM     17  N   UNL     1       2.676  13.467  21.027  0.00  0.00    +0.000 NA
ENDBRANCH   8  12
BRANCH   1  19
ATOM     18  C   UNL     1       1.735   8.271  17.664  0.00  0.00    +0.000 C 
ATOM     19  C   UNL     1       2.753   7.667  18.634  0.00  0.00    +0.000 C 
BRANCH  19  20
ATOM     20  C   UNL     1       3.219   6.305  18.131  0.00  0.00    +0.000 A 
ATOM     21  C   UNL     1       2.377   5.184  18.194  0.00  0.00    +0.000 A 
ATOM     22  C   UNL     1       2.773   3.966  17.632  0.00  0.00    +0.000 A 
ATOM     23  C   UNL     1       4.005   3.855  16.986  0.00  0.00    +0.000 A 
ATOM     24  C   UNL     1       4.856   4.961  16.938  0.00  0.00    +0.000 A 
ATOM     25  C   UNL     1       4.480   6.171  17.526  0.00  0.00    +0.000 A 
BRANCH  24  26
ATOM     26  S   UNL     1       6.354   4.888  16.003  0.00  0.00    +0.000 S 
ATOM     27  O   UNL     1       6.384   5.999  15.080  0.00  0.00    +0.000 OA
ATOM     28  O   UNL     1       7.455   4.594  16.888  0.00  0.00    +0.000 OA
BRANCH  26  29
ATOM     29  N   UNL     1       6.130   3.513  15.073  0.00  0.00    +0.000 NA
ATOM     30  H   UNL     1       5.237   3.573  14.585  0.00  0.00    +0.000 HD
ATOM     31  H   UNL     1       6.931   3.385  14.452  0.00  0.00    +0.000 HD
ENDBRANCH  26  29
ENDBRANCH  24  26
ENDBRANCH  19  20
ENDBRANCH   1  19
TORSDOF 5
ENDMDL
MODEL 5
REMARK VINA RESULT:      -7.9      4.288      7.663
REMARK  Name = 
REMARK  6 active torsions:
REMARK  status: ('A' for Active; 'I' for Inactive)
REMARK    1  A    between atoms: C_1  and  C_2
REMARK    2  A    between atoms: C_2  and  N_3
REMARK    3  A    between atoms: C_2  and  C_19
REMARK    4  A    between atoms: C_10  and  C_11
REMARK    5  A    between atoms: C_23  and  S_24
REMARK    6  A    between atoms: S_24  and  N_25
REMARK                            x       y       z     vdW  Elec       q    Type
REMARK                         _______ _______ _______ _____ _____    ______ ____
ROOT
ATOM      1  N   UNL     1       1.840   7.795  19.970  0.00  0.00    +0.000 N 
ATOM      2  C   UNL     1       1.159   8.753  20.680  0.00  0.00    +0.000 A 
ATOM      3  C   UNL     1       0.185   8.263  21.707  0.00  0.00    +0.000 A 
ATOM      4  C   UNL     1      -0.540   9.159  22.388  0.00  0.00    +0.000 A 
ATOM      5  C   UNL     1      -0.314  10.529  22.158  0.00  0.00    +0.000 A 
ATOM      6  N   UNL     1      -0.862  11.610  22.659  0.00  0.00    +0.000 NA
ATOM      7  N   UNL     1      -0.228  12.694  22.097  0.00  0.00    +0.000 NA
ATOM      8  C   UNL     1       0.719  12.251  21.281  0.00  0.00    +0.000 A 
ATOM      9  N   UNL     1       0.656  10.873  21.236  0.00  0.00    +0.000 N 
ATOM     10  N   UNL     1       1.370  10.014  20.441  0.00  0.00    +0.000 NA
ATOM     11  H   UNL     1       2.489   7.287  20.566  0.00  0.00    +0.000 HD
ENDROOT
BRANCH   8  12
ATOM     12  C   UNL     1       1.665  13.075  20.538  0.00  0.00    +0.000 A 
ATOM     13  C   UNL     1       1.455  13.357  19.191  0.00  0.00    +0.000 A 
ATOM     14  C   UNL     1       2.371  14.166  18.526  0.00  0.00    +0.000 A 
ATOM     15  C   UNL     1       3.457  14.681  19.222  0.00  0.00    +0.000 A 
ATOM     16  C   UNL     1       3.581  14.367  20.564  0.00  0.00    +0.000 A 
ATOM     17  N   UNL     1       2.713  13.583  21.235  0.00  0.00    +0.000 NA
ENDBRANCH   8  12
BRANCH   1  19
ATOM     18  C   UNL     1       1.390   8.636  17.701  0.00  0.00    +0.000 C 
ATOM     19  C   UNL     1       2.431   8.042  18.653  0.00  0.00    +0.000 C 
BRANCH  19  20
ATOM     20  C   UNL     1       2.920   6.696  18.127  0.00  0.00    +0.000 A 
ATOM     21  C   UNL     1       4.069   6.608  17.326  0.00  0.00    +0.000 A 
ATOM     22  C   UNL     1       4.571   5.361  16.938  0.00  0.00    +0.000 A 
ATOM     23  C   UNL     1       3.944   4.188  17.360  0.00  0.00    +0.000 A 
ATOM     24  C   UNL     1       2.788   4.269  18.139  0.00  0.00    +0.000 A 
ATOM     25  C   UNL     1       2.264   5.512  18.502  0.00  0.00    +0.000 A 
BRANCH  24  26
ATOM     26  S   UNL     1       2.061   2.803  18.804  0.00  0.00    +0.000 S 
ATOM     27  O   UNL     1       2.335   2.744  20.221  0.00  0.00    +0.000 OA
ATOM     28  O   UNL     1       0.728   2.647  18.272  0.00  0.00    +0.000 OA
BRANCH  26  29
ATOM     29  N   UNL     1       2.981   1.594  18.099  0.00  0.00    +0.000 NA
ATOM     30  H   UNL     1       3.951   1.900  18.030  0.00  0.00    +0.000 HD
ATOM     31  H   UNL     1       2.861   0.724  18.620  0.00  0.00    +0.000 HD
ENDBRANCH  26  29
ENDBRANCH  24  26
ENDBRANCH  19  20
ENDBRANCH   1  19
TORSDOF 5
ENDMDL
MODEL 6
REMARK VINA RESULT:      -7.8      4.627      7.851
REMARK  Name = 
REMARK  6 active torsions:
REMARK  status: ('A' for Active; 'I' for Inactive)
REMARK    1  A    between atoms: C_1  and  C_2
REMARK    2  A    between atoms: C_2  and  N_3
REMARK    3  A    between atoms: C_2  and  C_19
REMARK    4  A    between atoms: C_10  and  C_11
REMARK    5  A    between atoms: C_23  and  S_24
REMARK    6  A    between atoms: S_24  and  N_25
REMARK                            x       y       z     vdW  Elec       q    Type
REMARK                         _______ _______ _______ _____ _____    ______ ____
ROOT
ATOM      1  N   UNL     1       1.992   7.613  20.030  0.00  0.00    +0.000 N 
ATOM      2  C   UNL     1       1.305   8.602  20.688  0.00  0.00    +0.000 A 
ATOM      3  C   UNL     1       0.349   8.160  21.754  0.00  0.00    +0.000 A 
ATOM      4  C   UNL     1      -0.382   9.085  22.388  0.00  0.00    +0.000 A 
ATOM      5  C   UNL     1      -0.178  10.442  22.074  0.00  0.00    +0.000 A 
ATOM      6  N   UNL     1      -0.738  11.543  22.516  0.00  0.00    +0.000 NA
ATOM      7  N   UNL     1      -0.125  12.600  21.884  0.00  0.00    +0.000 NA
ATOM      8  C   UNL     1       0.820  12.122  21.084  0.00  0.00    +0.000 A 
ATOM      9  N   UNL     1       0.777  10.744  21.123  0.00  0.00    +0.000 N 
ATOM     10  N   UNL     1       1.495   9.849  20.372  0.00  0.00    +0.000 NA
ATOM     11  H   UNL     1       2.655   7.151  20.647  0.00  0.00    +0.000 HD
ENDROOT
BRANCH   8  12
ATOM     12  C   UNL     1       1.746  12.915  20.283  0.00  0.00    +0.000 A 
ATOM     13  C   UNL     1       2.697  13.726  20.895  0.00  0.00    +0.000 A 
ATOM     14  C   UNL     1       3.576  14.448  20.094  0.00  0.00    +0.000 A 
ATOM     15  C   UNL     1       3.490  14.332  18.712  0.00  0.00    +0.000 A 
ATOM     16  C   UNL     1       2.527  13.489  18.186  0.00  0.00    +0.000 A 
ATOM     17  N   UNL     1       1.660  12.780  18.936  0.00  0.00    +0.000 NA
ENDBRANCH   8  12
BRANCH   1  19
ATOM     18  C   UNL     1       1.520   8.358  17.732  0.00  0.00    +0.000 C 
ATOM     19  C   UNL     1       2.566   7.788  18.693  0.00  0.00    +0.000 C 
BRANCH  19  20
ATOM     20  C   UNL     1       3.022   6.412  18.221  0.00  0.00    +0.000 A 
ATOM     21  C   UNL     1       2.113   5.348  18.110  0.00  0.00    +0.000 A 
ATOM     22  C   UNL     1       2.518   4.121  17.574  0.00  0.00    +0.000 A 
ATOM     23  C   UNL     1       3.829   3.946  17.127  0.00  0.00    +0.000 A 
ATOM     24  C   UNL     1       4.743   4.993  17.256  0.00  0.00    +0.000 A 
ATOM     25  C   UNL     1       4.353   6.209  17.819  0.00  0.00    +0.000 A 
BRANCH  24  26
ATOM     26  S   UNL     1       6.364   4.845  16.568  0.00  0.00    +0.000 S 
ATOM     27  O   UNL     1       6.367   3.771  15.601  0.00  0.00    +0.000 OA
ATOM     28  O   UNL     1       6.874   6.159  16.258  0.00  0.00    +0.000 OA
BRANCH  26  29
ATOM     29  N   UNL     1       7.261   4.300  17.874  0.00  0.00    +0.000 NA
ATOM     30  H   UNL     1       7.585   5.097  18.420  0.00  0.00    +0.000 HD
ATOM     31  H   UNL     1       6.710   3.629  18.412  0.00  0.00    +0.000 HD
ENDBRANCH  26  29
ENDBRANCH  24  26
ENDBRANCH  19  20
ENDBRANCH   1  19
TORSDOF 5
ENDMDL
MODEL 7
REMARK VINA RESULT:      -7.8      2.417      3.630
REMARK  Name = 
REMARK  6 active torsions:
REMARK  status: ('A' for Active; 'I' for Inactive)
REMARK    1  A    between atoms: C_1  and  C_2
REMARK    2  A    between atoms: C_2  and  N_3
REMARK    3  A    between atoms: C_2  and  C_19
REMARK    4  A    between atoms: C_10  and  C_11
REMARK    5  A    between atoms: C_23  and  S_24
REMARK    6  A    between atoms: S_24  and  N_25
REMARK                            x       y       z     vdW  Elec       q    Type
REMARK                         _______ _______ _______ _____ _____    ______ ____
ROOT
ATOM      1  N   UNL     1       2.462   5.158  18.647  0.00  0.00    +0.000 N 
ATOM      2  C   UNL     1       3.495   4.817  17.810  0.00  0.00    +0.000 A 
ATOM      3  C   UNL     1       3.218   3.743  16.802  0.00  0.00    +0.000 A 
ATOM      4  C   UNL     1       4.210   3.341  15.999  0.00  0.00    +0.000 A 
ATOM      5  C   UNL     1       5.457   3.987  16.087  0.00  0.00    +0.000 A 
ATOM      6  N   UNL     1       6.590   3.809  15.449  0.00  0.00    +0.000 NA
ATOM      7  N   UNL     1       7.478   4.751  15.914  0.00  0.00    +0.000 NA
ATOM      8  C   UNL     1       6.860   5.506  16.813  0.00  0.00    +0.000 A 
ATOM      9  N   UNL     1       5.586   5.011  17.005  0.00  0.00    +0.000 N 
ATOM     10  N   UNL     1       4.646   5.414  17.918  0.00  0.00    +0.000 NA
ATOM     11  H   UNL     1       1.711   5.617  18.138  0.00  0.00    +0.000 HD
ENDROOT
BRANCH   8  12
ATOM     12  C   UNL     1       7.428   6.660  17.499  0.00  0.00    +0.000 A 
ATOM     13  C   UNL     1       8.123   6.502  18.695  0.00  0.00    +0.000 A 
ATOM     14  C   UNL     1       8.668   7.627  19.305  0.00  0.00    +0.000 A 
ATOM     15  C   UNL     1       8.518   8.870  18.703  0.00  0.00    +0.000 A 
ATOM     16  C   UNL     1       7.828   8.936  17.505  0.00  0.00    +0.000 A 
ATOM     17  N   UNL     1       7.286   7.865  16.892  0.00  0.00    +0.000 NA
ENDBRANCH   8  12
BRANCH   1  19
ATOM     18  C   UNL     1       1.918   5.017  21.043  0.00  0.00    +0.000 C 
ATOM     19  C   UNL     1       2.663   5.790  19.953  0.00  0.00    +0.000 C 
BRANCH  19  20
ATOM     20  C   UNL     1       2.119   7.211  19.847  0.00  0.00    +0.000 A 
ATOM     21  C   UNL     1       2.124   7.898  18.623  0.00  0.00    +0.000 A 
ATOM     22  C   UNL     1       1.525   9.157  18.512  0.00  0.00    +0.000 A 
ATOM     23  C   UNL     1       0.899   9.738  19.616  0.00  0.00    +0.000 A 
ATOM     24  C   UNL     1       0.909   9.070  20.842  0.00  0.00    +0.000 A 
ATOM     25  C   UNL     1       1.534   7.827  20.966  0.00  0.00    +0.000 A 
BRANCH  24  26
ATOM     26  S   UNL     1       0.001   9.716  22.213  0.00  0.00    +0.000 S 
ATOM     27  O   UNL     1       0.900   9.886  23.332  0.00  0.00    +0.000 OA
ATOM     28  O   UNL     1      -0.866  10.775  21.755  0.00  0.00    +0.000 OA
BRANCH  26  29
ATOM     29  N   UNL     1      -1.005   8.438  22.612  0.00  0.00    +0.000 NA
ATOM     30  H   UNL     1      -1.347   7.994  21.760  0.00  0.00    +0.000 HD
ATOM     31  H   UNL     1      -0.516   7.799  23.240  0.00  0.00    +0.000 HD
ENDBRANCH  26  29
ENDBRANCH  24  26
ENDBRANCH  19  20
ENDBRANCH   1  19
TORSDOF 5
ENDMDL
MODEL 8
REMARK VINA RESULT:      -7.8      1.332      1.446
REMARK  Name = 
REMARK  6 active torsions:
REMARK  status: ('A' for Active; 'I' for Inactive)
REMARK    1  A    between atoms: C_1  and  C_2
REMARK    2  A    between atoms: C_2  and  N_3
REMARK    3  A    between atoms: C_2  and  C_19
REMARK    4  A    between atoms: C_10  and  C_11
REMARK    5  A    between atoms: C_23  and  S_24
REMARK    6  A    between atoms: S_24  and  N_25
REMARK                            x       y       z     vdW  Elec       q    Type
REMARK                         _______ _______ _______ _____ _____    ______ ____
ROOT
ATOM      1  N   UNL     1       1.096   7.019  20.541  0.00  0.00    +0.000 N 
ATOM      2  C   UNL     1       1.784   5.845  20.361  0.00  0.00    +0.000 A 
ATOM      3  C   UNL     1       1.042   4.578  20.658  0.00  0.00    +0.000 A 
ATOM      4  C   UNL     1       1.688   3.411  20.547  0.00  0.00    +0.000 A 
ATOM      5  C   UNL     1       3.020   3.415  20.093  0.00  0.00    +0.000 A 
ATOM      6  N   UNL     1       3.888   2.450  19.895  0.00  0.00    +0.000 NA
ATOM      7  N   UNL     1       5.039   3.024  19.408  0.00  0.00    +0.000 NA
ATOM      8  C   UNL     1       4.842   4.331  19.292  0.00  0.00    +0.000 A 
ATOM      9  N   UNL     1       3.589   4.634  19.782  0.00  0.00    +0.000 N 
ATOM     10  N   UNL     1       3.021   5.870  19.957  0.00  0.00    +0.000 NA
ATOM     11  H   UNL     1       0.349   7.116  19.859  0.00  0.00    +0.000 HD
ENDROOT
BRANCH   8  12
ATOM     12  C   UNL     1       5.793   5.296  18.751  0.00  0.00    +0.000 A 
ATOM     13  C   UNL     1       5.441   6.114  17.681  0.00  0.00    +0.000 A 
ATOM     14  C   UNL     1       6.370   7.036  17.210  0.00  0.00    +0.000 A 
ATOM     15  C   UNL     1       7.612   7.126  17.824  0.00  0.00    +0.000 A 
ATOM     16  C   UNL     1       7.875   6.288  18.894  0.00  0.00    +0.000 A 
ATOM     17  N   UNL     1       6.997   5.382  19.370  0.00  0.00    +0.000 NA
ENDBRANCH   8  12
BRANCH   1  19
ATOM     18  C   UNL     1       1.718   8.663  22.264  0.00  0.00    +0.000 C 
ATOM     19  C   UNL     1       1.754   8.307  20.776  0.00  0.00    +0.000 C 
BRANCH  19  20
ATOM     20  C   UNL     1       0.991   9.349  19.965  0.00  0.00    +0.000 A 
ATOM     21  C   UNL     1       0.697   9.137  18.609  0.00  0.00    +0.000 A 
ATOM     22  C   UNL     1      -0.096  10.048  17.903  0.00  0.00    +0.000 A 
ATOM     23  C   UNL     1      -0.618  11.172  18.544  0.00  0.00    +0.000 A 
ATOM     24  C   UNL     1      -0.311  11.400  19.887  0.00  0.00    +0.000 A 
ATOM     25  C   UNL     1       0.506  10.511  20.588  0.00  0.00    +0.000 A 
BRANCH  24  26
ATOM     26  S   UNL     1      -1.075  12.734  20.758  0.00  0.00    +0.000 S 
ATOM     27  O   UNL     1      -1.114  13.895  19.897  0.00  0.00    +0.000 OA
ATOM     28  O   UNL     1      -2.246  12.247  21.446  0.00  0.00    +0.000 OA
BRANCH  26  29
ATOM     29  N   UNL     1       0.050  13.076  21.951  0.00  0.00    +0.000 NA
ATOM     30  H   UNL     1      -0.364  13.701  22.641  0.00  0.00    +0.000 HD
ATOM     31  H   UNL     1       0.405  12.204  22.347  0.00  0.00    +0.000 HD
ENDBRANCH  26  29
ENDBRANCH  24  26
ENDBRANCH  19  20
ENDBRANCH   1  19
TORSDOF 5
ENDMDL
MODEL 9
REMARK VINA RESULT:      -7.7      4.393      7.597
REMARK  Name = 
REMARK  6 active torsions:
REMARK  status: ('A' for Active; 'I' for Inactive)
REMARK    1  A    between atoms: C_1  and  C_2
REMARK    2  A    between atoms: C_2  and  N_3
REMARK    3  A    between atoms: C_2  and  C_19
REMARK    4  A    between atoms: C_10  and  C_11
REMARK    5  A    between atoms: C_23  and  S_24
REMARK    6  A    between atoms: S_24  and  N_25
REMARK                            x       y       z     vdW  Elec       q    Type
REMARK                         _______ _______ _______ _____ _____    ______ ____
ROOT
ATOM      1  N   UNL     1       1.734   7.874  20.127  0.00  0.00    +0.000 N 
ATOM      2  C   UNL     1       1.086   8.889  20.786  0.00  0.00    +0.000 A 
ATOM      3  C   UNL     1       0.068   8.484  21.808  0.00  0.00    +0.000 A 
ATOM      4  C   UNL     1      -0.627   9.438  22.439  0.00  0.00    +0.000 A 
ATOM      5  C   UNL     1      -0.330  10.786  22.164  0.00  0.00    +0.000 A 
ATOM      6  N   UNL     1      -0.837  11.910  22.613  0.00  0.00    +0.000 NA
ATOM      7  N   UNL     1      -0.139  12.941  22.027  0.00  0.00    +0.000 NA
ATOM      8  C   UNL     1       0.803  12.423  21.249  0.00  0.00    +0.000 A 
ATOM      9  N   UNL     1       0.674  11.049  21.253  0.00  0.00    +0.000 N 
ATOM     10  N   UNL     1       1.362  10.129  20.506  0.00  0.00    +0.000 NA
ATOM     11  H   UNL     1       2.346   7.358  20.755  0.00  0.00    +0.000 HD
ENDROOT
BRANCH   8  12
ATOM     12  C   UNL     1       1.802  13.174  20.499  0.00  0.00    +0.000 A 
ATOM     13  C   UNL     1       1.658  13.374  19.129  0.00  0.00    +0.000 A 
ATOM     14  C   UNL     1       2.624  14.114  18.455  0.00  0.00    +0.000 A 
ATOM     15  C   UNL     1       3.694  14.644  19.164  0.00  0.00    +0.000 A 
ATOM     16  C   UNL     1       3.752  14.414  20.528  0.00  0.00    +0.000 A 
ATOM     17  N   UNL     1       2.834  13.698  21.207  0.00  0.00    +0.000 NA
ENDBRANCH   8  12
BRANCH   1  19
ATOM     18  C   UNL     1       1.395   8.712  17.838  0.00  0.00    +0.000 C 
ATOM     19  C   UNL     1       2.364   8.042  18.815  0.00  0.00    +0.000 C 
BRANCH  19  20
ATOM     20  C   UNL     1       2.736   6.649  18.319  0.00  0.00    +0.000 A 
ATOM     21  C   UNL     1       3.844   6.453  17.480  0.00  0.00    +0.000 A 
ATOM     22  C   UNL     1       4.242   5.161  17.119  0.00  0.00    +0.000 A 
ATOM     23  C   UNL     1       3.550   4.050  17.603  0.00  0.00    +0.000 A 
ATOM     24  C   UNL     1       2.434   4.240  18.420  0.00  0.00    +0.000 A 
ATOM     25  C   UNL     1       2.013   5.527  18.758  0.00  0.00    +0.000 A 
BRANCH  24  26
ATOM     26  S   UNL     1       1.630   2.851  19.161  0.00  0.00    +0.000 S 
ATOM     27  O   UNL     1       0.688   2.295  18.216  0.00  0.00    +0.000 OA
ATOM     28  O   UNL     1       2.611   2.037  19.838  0.00  0.00    +0.000 OA
BRANCH  26  29
ATOM     29  N   UNL     1       0.715   3.567  20.367  0.00  0.00    +0.000 NA
ATOM     30  H   UNL     1      -0.271   3.539  20.109  0.00  0.00    +0.000 HD
ATOM     31  H   UNL     1       0.919   3.121  21.263  0.00  0.00    +0.000 HD
ENDBRANCH  26  29
ENDBRANCH  24  26
ENDBRANCH  19  20
ENDBRANCH   1  19
TORSDOF 5
ENDMDL
