MODEL 1
REMARK VINA RESULT:      -8.4      0.000      0.000
REMARK  Name = 
REMARK  4 active torsions:
REMARK  status: ('A' for Active; 'I' for Inactive)
REMARK    1  A    between atoms: N_1  and  C_2
REMARK    2  A    between atoms: C_14  and  C_16
REMARK    3  A    between atoms: C_16  and  C_17
REMARK    4  A    between atoms: C_23  and  O_24
REMARK                            x       y       z     vdW  Elec       q    Type
REMARK                         _______ _______ _______ _____ _____    ______ ____
ROOT
ATOM      1  C   UNL     1      -2.107  12.387  20.267  0.00  0.00    +0.000 A 
ATOM      2  N   UNL     1      -3.098  12.978  20.961  0.00  0.00    +0.000 NA
ATOM      3  C   UNL     1      -3.234  12.685  22.263  0.00  0.00    +0.000 A 
ATOM      4  N   UNL     1      -2.497  11.845  22.995  0.00  0.00    +0.000 NA
ATOM      5  C   UNL     1      -1.528  11.259  22.269  0.00  0.00    +0.000 A 
ATOM      6  S   UNL     1      -0.458  10.143  22.993  0.00  0.00    +0.000 S 
ATOM      7  C   UNL     1       0.372   9.895  21.532  0.00  0.00    +0.000 A 
ATOM      8  C   UNL     1      -0.147  10.661  20.496  0.00  0.00    +0.000 A 
ATOM      9  C   UNL     1      -1.268  11.462  20.924  0.00  0.00    +0.000 A 
ATOM     10  C   UNL     1       0.444  10.581  19.117  0.00  0.00    +0.000 C 
ATOM     11  C   UNL     1       1.844   9.958  19.170  0.00  0.00    +0.000 C 
ATOM     12  N   UNL     1       1.839   8.748  20.000  0.00  0.00    +0.000 N 
ATOM     13  C   UNL     1       1.798   7.520  19.357  0.00  0.00    +0.000 C 
ATOM     14  O   UNL     1       1.777   7.454  18.128  0.00  0.00    +0.000 OA
ATOM     15  C   UNL     1       1.555   8.970  21.429  0.00  0.00    +0.000 C 
ENDROOT
BRANCH   1  16
ATOM     16  N   UNL     1      -1.980  12.751  18.939  0.00  0.00    +0.000 N 
ATOM     17  H   UNL     1      -1.199  12.283  18.493  0.00  0.00    +0.000 HD
ATOM     18  H   UNL     1      -2.104  13.726  18.715  0.00  0.00    +0.000 HD
ENDBRANCH   1  16
BRANCH  13  19
ATOM     19  C   UNL     1       1.808   6.271  20.234  0.00  0.00    +0.000 C 
BRANCH  19  20
ATOM     20  C   UNL     1       2.418   4.989  19.619  0.00  0.00    +0.000 C 
ATOM     21  C   UNL     1       2.112   3.795  20.572  0.00  0.00    +0.000 C 
ATOM     22  C   UNL     1       2.673   2.478  20.009  0.00  0.00    +0.000 C 
ATOM     23  C   UNL     1       2.035   2.202  18.638  0.00  0.00    +0.000 C 
ATOM     24  C   UNL     1       2.346   3.355  17.672  0.00  0.00    +0.000 C 
ATOM     25  C   UNL     1       3.868   3.489  17.514  0.00  0.00    +0.000 C 
ATOM     26  C   UNL     1       4.518   3.758  18.883  0.00  0.00    +0.000 C 
ATOM     27  C   UNL     1       4.193   2.605  19.845  0.00  0.00    +0.000 C 
ATOM     28  C   UNL     1       3.958   5.072  19.459  0.00  0.00    +0.000 C 
ATOM     29  C   UNL     1       1.779   4.665  18.244  0.00  0.00    +0.000 C 
BRANCH  26  30
ATOM     30  O   UNL     1       5.926   3.878  18.743  0.00  0.00    +0.000 OA
ATOM     31  H   UNL     1       6.287   4.198  19.587  0.00  0.00    +0.000 HD
ENDBRANCH  26  30
ENDBRANCH  19  20
ENDBRANCH  13  19
TORSDOF 4
ENDMDL
MODEL 2
REMARK VINA RESULT:      -8.3      2.650      3.292
REMARK  Name = 
REMARK  4 active torsions:
REMARK  status: ('A' for Active; 'I' for Inactive)
REMARK    1  A    between atoms: N_1  and  C_2
REMARK    2  A    between atoms: C_14  and  C_16
REMARK    3  A    between atoms: C_16  and  C_17
REMARK    4  A    between atoms: C_23  and  O_24
REMARK                            x       y       z     vdW  Elec       q    Type
REMARK                         _______ _______ _______ _____ _____    ______ ____
ROOT
ATOM      1  C   UNL     1       1.118  14.218  20.956  0.00  0.00    +0.000 A 
ATOM      2  N   UNL     1       1.598  15.457  20.735  0.00  0.00    +0.000 NA
ATOM      3  C   UNL     1       2.323  15.676  19.628  0.00  0.00    +0.000 A 
ATOM      4  N   UNL     1       2.657  14.797  18.679  0.00  0.00    +0.000 NA
ATOM      5  C   UNL     1       2.177  13.567  18.939  0.00  0.00    +0.000 A 
ATOM      6  S   UNL     1       2.477  12.276  17.863  0.00  0.00    +0.000 S 
ATOM      7  C   UNL     1       1.612  11.183  18.834  0.00  0.00    +0.000 A 
ATOM      8  C   UNL     1       1.084  11.790  19.967  0.00  0.00    +0.000 A 
ATOM      9  C   UNL     1       1.417  13.192  20.034  0.00  0.00    +0.000 A 
ATOM     10  C   UNL     1       0.289  10.992  20.960  0.00  0.00    +0.000 C 
ATOM     11  C   UNL     1      -0.186   9.676  20.332  0.00  0.00    +0.000 C 
ATOM     12  N   UNL     1       0.916   9.014  19.626  0.00  0.00    +0.000 N 
ATOM     13  C   UNL     1       1.560   7.965  20.265  0.00  0.00    +0.000 C 
ATOM     14  O   UNL     1       1.205   7.599  21.386  0.00  0.00    +0.000 OA
ATOM     15  C   UNL     1       1.432   9.739  18.451  0.00  0.00    +0.000 C 
ENDROOT
BRANCH   1  16
ATOM     16  N   UNL     1       0.342  14.048  22.088  0.00  0.00    +0.000 N 
ATOM     17  H   UNL     1       0.411  13.107  22.456  0.00  0.00    +0.000 HD
ATOM     18  H   UNL     1      -0.579  14.459  22.081  0.00  0.00    +0.000 HD
ENDBRANCH   1  16
BRANCH  13  19
ATOM     19  C   UNL     1       2.696   7.279  19.511  0.00  0.00    +0.000 C 
BRANCH  19  20
ATOM     20  C   UNL     1       2.605   5.741  19.360  0.00  0.00    +0.000 C 
ATOM     21  C   UNL     1       1.717   5.187  20.514  0.00  0.00    +0.000 C 
ATOM     22  C   UNL     1       1.565   3.660  20.413  0.00  0.00    +0.000 C 
ATOM     23  C   UNL     1       0.916   3.305  19.066  0.00  0.00    +0.000 C 
ATOM     24  C   UNL     1       1.788   3.819  17.910  0.00  0.00    +0.000 C 
ATOM     25  C   UNL     1       3.179   3.172  17.998  0.00  0.00    +0.000 C 
ATOM     26  C   UNL     1       3.835   3.515  19.347  0.00  0.00    +0.000 C 
ATOM     27  C   UNL     1       2.951   3.007  20.496  0.00  0.00    +0.000 C 
ATOM     28  C   UNL     1       3.986   5.043  19.462  0.00  0.00    +0.000 C 
ATOM     29  C   UNL     1       1.931   5.346  18.021  0.00  0.00    +0.000 C 
BRANCH  26  30
ATOM     30  O   UNL     1       5.120   2.916  19.435  0.00  0.00    +0.000 OA
ATOM     31  H   UNL     1       5.323   2.774  20.374  0.00  0.00    +0.000 HD
ENDBRANCH  26  30
ENDBRANCH  19  20
ENDBRANCH  13  19
TORSDOF 4
ENDMDL
MODEL 3
REMARK VINA RESULT:      -8.1      2.774      3.666
REMARK  Name = 
REMARK  4 active torsions:
REMARK  status: ('A' for Active; 'I' for Inactive)
REMARK    1  A    between atoms: N_1  and  C_2
REMARK    2  A    between atoms: C_14  and  C_16
REMARK    3  A    between atoms: C_16  and  C_17
REMARK    4  A    between atoms: C_23  and  O_24
REMARK                            x       y       z     vdW  Elec       q    Type
REMARK                         _______ _______ _______ _____ _____    ______ ____
ROOT
ATOM      1  C   UNL     1       0.831  14.273  21.165  0.00  0.00    +0.000 A 
ATOM      2  N   UNL     1       1.272  15.533  20.988  0.00  0.00    +0.000 NA
ATOM      3  C   UNL     1       2.014  15.807  19.904  0.00  0.00    +0.000 A 
ATOM      4  N   UNL     1       2.397  14.966  18.940  0.00  0.00    +0.000 NA
ATOM      5  C   UNL     1       1.955  13.714  19.156  0.00  0.00    +0.000 A 
ATOM      6  S   UNL     1       2.322  12.463  18.053  0.00  0.00    +0.000 S 
ATOM      7  C   UNL     1       1.475  11.315  18.976  0.00  0.00    +0.000 A 
ATOM      8  C   UNL     1       0.902  11.873  20.112  0.00  0.00    +0.000 A 
ATOM      9  C   UNL     1       1.185  13.283  20.224  0.00  0.00    +0.000 A 
ATOM     10  C   UNL     1       0.113  11.022  21.066  0.00  0.00    +0.000 C 
ATOM     11  C   UNL     1      -0.303   9.708  20.393  0.00  0.00    +0.000 C 
ATOM     12  N   UNL     1       0.837   9.103  19.694  0.00  0.00    +0.000 N 
ATOM     13  C   UNL     1       1.503   8.060  20.320  0.00  0.00    +0.000 C 
ATOM     14  O   UNL     1       1.137   7.652  21.422  0.00  0.00    +0.000 OA
ATOM     15  C   UNL     1       1.352   9.877  18.551  0.00  0.00    +0.000 C 
ENDROOT
BRANCH   1  16
ATOM     16  N   UNL     1       0.037  14.046  22.275  0.00  0.00    +0.000 N 
ATOM     17  H   UNL     1      -0.862  14.509  22.197  0.00  0.00    +0.000 HD
ATOM     18  H   UNL     1       0.484  14.087  23.178  0.00  0.00    +0.000 HD
ENDBRANCH   1  16
BRANCH  13  19
ATOM     19  C   UNL     1       2.677   7.433  19.573  0.00  0.00    +0.000 C 
BRANCH  19  20
ATOM     20  C   UNL     1       2.637   5.899  19.370  0.00  0.00    +0.000 C 
ATOM     21  C   UNL     1       2.111   5.610  17.933  0.00  0.00    +0.000 C 
ATOM     22  C   UNL     1       2.065   4.098  17.652  0.00  0.00    +0.000 C 
ATOM     23  C   UNL     1       3.480   3.515  17.795  0.00  0.00    +0.000 C 
ATOM     24  C   UNL     1       4.010   3.765  19.215  0.00  0.00    +0.000 C 
ATOM     25  C   UNL     1       3.072   3.097  20.232  0.00  0.00    +0.000 C 
ATOM     26  C   UNL     1       1.650   3.669  20.092  0.00  0.00    +0.000 C 
ATOM     27  C   UNL     1       1.133   3.423  18.667  0.00  0.00    +0.000 C 
ATOM     28  C   UNL     1       1.685   5.184  20.364  0.00  0.00    +0.000 C 
ATOM     29  C   UNL     1       4.053   5.278  19.483  0.00  0.00    +0.000 C 
BRANCH  26  30
ATOM     30  O   UNL     1       0.778   3.052  21.028  0.00  0.00    +0.000 OA
ATOM     31  H   UNL     1      -0.092   3.476  20.954  0.00  0.00    +0.000 HD
ENDBRANCH  26  30
ENDBRANCH  19  20
ENDBRANCH  13  19
TORSDOF 4
ENDMDL
MODEL 4
REMARK VINA RESULT:      -7.9      1.086      1.293
REMARK  Name = 
REMARK  4 active torsions:
REMARK  status: ('A' for Active; 'I' for Inactive)
REMARK    1  A    between atoms: N_1  and  C_2
REMARK    2  A    between atoms: C_14  and  C_16
REMARK    3  A    between atoms: C_16  and  C_17
REMARK    4  A    between atoms: C_23  and  O_24
REMARK                            x       y       z     vdW  Elec       q    Type
REMARK                         _______ _______ _______ _____ _____    ______ ____
ROOT
ATOM      1  C   UNL     1      -2.200  11.956  18.488  0.00  0.00    +0.000 A 
ATOM      2  N   UNL     1      -3.256  12.621  18.992  0.00  0.00    +0.000 NA
ATOM      3  C   UNL     1      -3.406  12.673  20.324  0.00  0.00    +0.000 A 
ATOM      4  N   UNL     1      -2.624  12.126  21.259  0.00  0.00    +0.000 NA
ATOM      5  C   UNL     1      -1.589  11.455  20.721  0.00  0.00    +0.000 A 
ATOM      6  S   UNL     1      -0.451  10.670  21.723  0.00  0.00    +0.000 S 
ATOM      7  C   UNL     1       0.439  10.116  20.386  0.00  0.00    +0.000 A 
ATOM      8  C   UNL     1      -0.111  10.532  19.180  0.00  0.00    +0.000 A 
ATOM      9  C   UNL     1      -1.307  11.316  19.372  0.00  0.00    +0.000 A 
ATOM     10  C   UNL     1       0.524  10.140  17.876  0.00  0.00    +0.000 C 
ATOM     11  C   UNL     1       1.969   9.679  18.102  0.00  0.00    +0.000 C 
ATOM     12  N   UNL     1       2.040   8.737  19.225  0.00  0.00    +0.000 N 
ATOM     13  C   UNL     1       2.120   7.384  18.933  0.00  0.00    +0.000 C 
ATOM     14  O   UNL     1       2.140   6.992  17.766  0.00  0.00    +0.000 OA
ATOM     15  C   UNL     1       1.697   9.305  20.541  0.00  0.00    +0.000 C 
ENDROOT
BRANCH   1  16
ATOM     16  N   UNL     1      -2.065  11.964  17.111  0.00  0.00    +0.000 N 
ATOM     17  H   UNL     1      -1.318  11.353  16.801  0.00  0.00    +0.000 HD
ATOM     18  H   UNL     1      -2.133  12.857  16.647  0.00  0.00    +0.000 HD
ENDBRANCH   1  16
BRANCH  13  19
ATOM     19  C   UNL     1       2.207   6.418  20.112  0.00  0.00    +0.000 C 
BRANCH  19  20
ATOM     20  C   UNL     1       2.319   4.912  19.775  0.00  0.00    +0.000 C 
ATOM     21  C   UNL     1       1.530   4.110  20.852  0.00  0.00    +0.000 C 
ATOM     22  C   UNL     1       1.581   2.599  20.566  0.00  0.00    +0.000 C 
ATOM     23  C   UNL     1       0.964   2.325  19.185  0.00  0.00    +0.000 C 
ATOM     24  C   UNL     1       1.743   3.086  18.102  0.00  0.00    +0.000 C 
ATOM     25  C   UNL     1       3.209   2.625  18.112  0.00  0.00    +0.000 C 
ATOM     26  C   UNL     1       3.834   2.888  19.495  0.00  0.00    +0.000 C 
ATOM     27  C   UNL     1       3.042   2.132  20.572  0.00  0.00    +0.000 C 
ATOM     28  C   UNL     1       3.782   4.398  19.794  0.00  0.00    +0.000 C 
ATOM     29  C   UNL     1       1.684   4.594  18.397  0.00  0.00    +0.000 C 
BRANCH  26  30
ATOM     30  O   UNL     1       5.188   2.460  19.511  0.00  0.00    +0.000 OA
ATOM     31  H   UNL     1       5.753   3.246  19.427  0.00  0.00    +0.000 HD
ENDBRANCH  26  30
ENDBRANCH  19  20
ENDBRANCH  13  19
TORSDOF 4
ENDMDL
MODEL 5
REMARK VINA RESULT:      -7.8      4.719      9.340
REMARK  Name = 
REMARK  4 active torsions:
REMARK  status: ('A' for Active; 'I' for Inactive)
REMARK    1  A    between atoms: N_1  and  C_2
REMARK    2  A    between atoms: C_14  and  C_16
REMARK    3  A    between atoms: C_16  and  C_17
REMARK    4  A    between atoms: C_23  and  O_24
REMARK                            x       y       z     vdW  Elec       q    Type
REMARK                         _______ _______ _______ _____ _____    ______ ____
ROOT
ATOM      1  C   UNL     1       1.153   8.751  20.314  0.00  0.00    +0.000 A 
ATOM      2  N   UNL     1       1.890   8.174  19.346  0.00  0.00    +0.000 NA
ATOM      3  C   UNL     1       2.134   8.869  18.224  0.00  0.00    +0.000 A 
ATOM      4  N   UNL     1       1.721  10.102  17.919  0.00  0.00    +0.000 NA
ATOM      5  C   UNL     1       0.973  10.642  18.898  0.00  0.00    +0.000 A 
ATOM      6  S   UNL     1       0.333  12.216  18.732  0.00  0.00    +0.000 S 
ATOM      7  C   UNL     1      -0.412  12.142  20.256  0.00  0.00    +0.000 A 
ATOM      8  C   UNL     1      -0.171  10.936  20.901  0.00  0.00    +0.000 A 
ATOM      9  C   UNL     1       0.640  10.048  20.105  0.00  0.00    +0.000 A 
ATOM     10  C   UNL     1      -0.749  10.669  22.262  0.00  0.00    +0.000 C 
ATOM     11  C   UNL     1      -1.183  11.981  22.927  0.00  0.00    +0.000 C 
ATOM     12  N   UNL     1      -1.954  12.804  21.988  0.00  0.00    +0.000 N 
ATOM     13  C   UNL     1      -3.336  12.801  22.106  0.00  0.00    +0.000 C 
ATOM     14  O   UNL     1      -3.891  12.134  22.981  0.00  0.00    +0.000 OA
ATOM     15  C   UNL     1      -1.202  13.293  20.820  0.00  0.00    +0.000 C 
ENDROOT
BRANCH   1  16
ATOM     16  N   UNL     1       0.963   8.013  21.468  0.00  0.00    +0.000 N 
ATOM     17  H   UNL     1      -0.021   7.860  21.661  0.00  0.00    +0.000 HD
ATOM     18  H   UNL     1       1.544   8.239  22.260  0.00  0.00    +0.000 HD
ENDBRANCH   1  16
BRANCH  13  19
ATOM     19  C   UNL     1      -4.123  13.673  21.132  0.00  0.00    +0.000 C 
BRANCH  19  20
ATOM     20  C   UNL     1      -4.999  12.939  20.088  0.00  0.00    +0.000 C 
ATOM     21  C   UNL     1      -5.739  14.009  19.231  0.00  0.00    +0.000 C 
ATOM     22  C   UNL     1      -6.616  13.348  18.154  0.00  0.00    +0.000 C 
ATOM     23  C   UNL     1      -5.728  12.496  17.234  0.00  0.00    +0.000 C 
ATOM     24  C   UNL     1      -5.006  11.415  18.053  0.00  0.00    +0.000 C 
ATOM     25  C   UNL     1      -6.049  10.517  18.739  0.00  0.00    +0.000 C 
ATOM     26  C   UNL     1      -6.948  11.364  19.657  0.00  0.00    +0.000 C 
ATOM     27  C   UNL     1      -7.657  12.447  18.831  0.00  0.00    +0.000 C 
ATOM     28  C   UNL     1      -6.080  12.036  20.737  0.00  0.00    +0.000 C 
ATOM     29  C   UNL     1      -4.133  12.087  19.125  0.00  0.00    +0.000 C 
BRANCH  26  30
ATOM     30  O   UNL     1      -7.917  10.539  20.291  0.00  0.00    +0.000 OA
ATOM     31  H   UNL     1      -7.483   9.709  20.549  0.00  0.00    +0.000 HD
ENDBRANCH  26  30
ENDBRANCH  19  20
ENDBRANCH  13  19
TORSDOF 4
ENDMDL
MODEL 6
REMARK VINA RESULT:      -7.7      0.939      1.584
REMARK  Name = 
REMARK  4 active torsions:
REMARK  status: ('A' for Active; 'I' for Inactive)
REMARK    1  A    between atoms: N_1  and  C_2
REMARK    2  A    between atoms: C_14  and  C_16
REMARK    3  A    between atoms: C_16  and  C_17
REMARK    4  A    between atoms: C_23  and  O_24
REMARK                            x       y       z     vdW  Elec       q    Type
REMARK                         _______ _______ _______ _____ _____    ______ ____
ROOT
ATOM      1  C   UNL     1      -1.924  12.440  20.551  0.00  0.00    +0.000 A 
ATOM      2  N   UNL     1      -2.857  12.934  21.386  0.00  0.00    +0.000 NA
ATOM      3  C   UNL     1      -2.910  12.462  22.641  0.00  0.00    +0.000 A 
ATOM      4  N   UNL     1      -2.138  11.524  23.197  0.00  0.00    +0.000 NA
ATOM      5  C   UNL     1      -1.229  11.040  22.331  0.00  0.00    +0.000 A 
ATOM      6  S   UNL     1      -0.129   9.828  22.817  0.00  0.00    +0.000 S 
ATOM      7  C   UNL     1       0.598   9.783  21.283  0.00  0.00    +0.000 A 
ATOM      8  C   UNL     1       0.022  10.689  20.402  0.00  0.00    +0.000 A 
ATOM      9  C   UNL     1      -1.056  11.428  21.012  0.00  0.00    +0.000 A 
ATOM     10  C   UNL     1       0.518  10.800  18.988  0.00  0.00    +0.000 C 
ATOM     11  C   UNL     1       1.909  10.169  18.858  0.00  0.00    +0.000 C 
ATOM     12  N   UNL     1       1.942   8.854  19.509  0.00  0.00    +0.000 N 
ATOM     13  C   UNL     1       1.839   7.728  18.705  0.00  0.00    +0.000 C 
ATOM     14  O   UNL     1       1.735   7.836  17.483  0.00  0.00    +0.000 OA
ATOM     15  C   UNL     1       1.757   8.875  20.970  0.00  0.00    +0.000 C 
ENDROOT
BRANCH   1  16
ATOM     16  N   UNL     1      -1.880  12.986  19.281  0.00  0.00    +0.000 N 
ATOM     17  H   UNL     1      -2.781  12.939  18.818  0.00  0.00    +0.000 HD
ATOM     18  H   UNL     1      -1.074  12.771  18.714  0.00  0.00    +0.000 HD
ENDBRANCH   1  16
BRANCH  13  19
ATOM     19  C   UNL     1       1.889   6.369  19.397  0.00  0.00    +0.000 C 
BRANCH  19  20
ATOM     20  C   UNL     1       2.903   5.339  18.843  0.00  0.00    +0.000 C 
ATOM     21  C   UNL     1       2.201   4.515  17.724  0.00  0.00    +0.000 C 
ATOM     22  C   UNL     1       3.162   3.481  17.110  0.00  0.00    +0.000 C 
ATOM     23  C   UNL     1       4.373   4.213  16.510  0.00  0.00    +0.000 C 
ATOM     24  C   UNL     1       5.099   5.013  17.603  0.00  0.00    +0.000 C 
ATOM     25  C   UNL     1       5.570   4.054  18.706  0.00  0.00    +0.000 C 
ATOM     26  C   UNL     1       4.364   3.311  19.309  0.00  0.00    +0.000 C 
ATOM     27  C   UNL     1       3.641   2.522  18.207  0.00  0.00    +0.000 C 
ATOM     28  C   UNL     1       3.392   4.337  19.920  0.00  0.00    +0.000 C 
ATOM     29  C   UNL     1       4.130   6.043  18.207  0.00  0.00    +0.000 C 
BRANCH  26  30
ATOM     30  O   UNL     1       4.796   2.419  20.327  0.00  0.00    +0.000 OA
ATOM     31  H   UNL     1       4.048   1.846  20.563  0.00  0.00    +0.000 HD
ENDBRANCH  26  30
ENDBRANCH  19  20
ENDBRANCH  13  19
TORSDOF 4
ENDMDL
MODEL 7
REMARK VINA RESULT:      -7.6      5.503      7.777
REMARK  Name = 
REMARK  4 active torsions:
REMARK  status: ('A' for Active; 'I' for Inactive)
REMARK    1  A    between atoms: N_1  and  C_2
REMARK    2  A    between atoms: C_14  and  C_16
REMARK    3  A    between atoms: C_16  and  C_17
REMARK    4  A    between atoms: C_23  and  O_24
REMARK                            x       y       z     vdW  Elec       q    Type
REMARK                         _______ _______ _______ _____ _____    ______ ____
ROOT
ATOM      1  C   UNL     1      -7.492  12.204  22.983  0.00  0.00    +0.000 A 
ATOM      2  N   UNL     1      -7.724  13.002  24.042  0.00  0.00    +0.000 NA
ATOM      3  C   UNL     1      -7.365  14.293  23.965  0.00  0.00    +0.000 A 
ATOM      4  N   UNL     1      -6.776  14.919  22.943  0.00  0.00    +0.000 NA
ATOM      5  C   UNL     1      -6.542  14.091  21.909  0.00  0.00    +0.000 A 
ATOM      6  S   UNL     1      -5.795  14.669  20.487  0.00  0.00    +0.000 S 
ATOM      7  C   UNL     1      -5.861  13.138  19.754  0.00  0.00    +0.000 A 
ATOM      8  C   UNL     1      -6.458  12.188  20.574  0.00  0.00    +0.000 A 
ATOM      9  C   UNL     1      -6.856  12.743  21.845  0.00  0.00    +0.000 A 
ATOM     10  C   UNL     1      -6.606  10.766  20.113  0.00  0.00    +0.000 C 
ATOM     11  C   UNL     1      -6.450  10.679  18.590  0.00  0.00    +0.000 C 
ATOM     12  N   UNL     1      -5.275  11.438  18.148  0.00  0.00    +0.000 N 
ATOM     13  C   UNL     1      -4.114  10.733  17.865  0.00  0.00    +0.000 C 
ATOM     14  O   UNL     1      -4.081   9.507  17.974  0.00  0.00    +0.000 OA
ATOM     15  C   UNL     1      -5.355  12.894  18.358  0.00  0.00    +0.000 C 
ENDROOT
BRANCH   1  16
ATOM     16  N   UNL     1      -7.917  10.892  23.093  0.00  0.00    +0.000 N 
ATOM     17  H   UNL     1      -7.273  10.248  22.647  0.00  0.00    +0.000 HD
ATOM     18  H   UNL     1      -8.898  10.713  22.951  0.00  0.00    +0.000 HD
ENDBRANCH   1  16
BRANCH  13  19
ATOM     19  C   UNL     1      -2.905  11.536  17.393  0.00  0.00    +0.000 C 
BRANCH  19  20
ATOM     20  C   UNL     1      -1.697  11.612  18.357  0.00  0.00    +0.000 C 
ATOM     21  C   UNL     1      -0.811  12.822  17.938  0.00  0.00    +0.000 C 
ATOM     22  C   UNL     1       0.403  12.971  18.870  0.00  0.00    +0.000 C 
ATOM     23  C   UNL     1      -0.090  13.185  20.310  0.00  0.00    +0.000 C 
ATOM     24  C   UNL     1      -0.945  11.989  20.756  0.00  0.00    +0.000 C 
ATOM     25  C   UNL     1      -0.101  10.707  20.686  0.00  0.00    +0.000 C 
ATOM     26  C   UNL     1       0.404  10.488  19.248  0.00  0.00    +0.000 C 
ATOM     27  C   UNL     1       1.249  11.693  18.808  0.00  0.00    +0.000 C 
ATOM     28  C   UNL     1      -0.804  10.344  18.304  0.00  0.00    +0.000 C 
ATOM     29  C   UNL     1      -2.155  11.852  19.819  0.00  0.00    +0.000 C 
BRANCH  26  30
ATOM     30  O   UNL     1       1.188   9.306  19.178  0.00  0.00    +0.000 OA
ATOM     31  H   UNL     1       1.576   9.254  18.289  0.00  0.00    +0.000 HD
ENDBRANCH  26  30
ENDBRANCH  19  20
ENDBRANCH  13  19
TORSDOF 4
ENDMDL
MODEL 8
REMARK VINA RESULT:      -7.6      1.469      1.877
REMARK  Name = 
REMARK  4 active torsions:
REMARK  status: ('A' for Active; 'I' for Inactive)
REMARK    1  A    between atoms: N_1  and  C_2
REMARK    2  A    between atoms: C_14  and  C_16
REMARK    3  A    between atoms: C_16  and  C_17
REMARK    4  A    between atoms: C_23  and  O_24
REMARK                            x       y       z     vdW  Elec       q    Type
REMARK                         _______ _______ _______ _____ _____    ______ ____
ROOT
ATOM      1  C   UNL     1      -2.079  12.686  20.916  0.00  0.00    +0.000 A 
ATOM      2  N   UNL     1      -2.996  13.040  21.835  0.00  0.00    +0.000 NA
ATOM      3  C   UNL     1      -2.993  12.412  23.021  0.00  0.00    +0.000 A 
ATOM      4  N   UNL     1      -2.176  11.437  23.429  0.00  0.00    +0.000 NA
ATOM      5  C   UNL     1      -1.284  11.096  22.482  0.00  0.00    +0.000 A 
ATOM      6  S   UNL     1      -0.134   9.869  22.777  0.00  0.00    +0.000 S 
ATOM      7  C   UNL     1       0.541  10.041  21.228  0.00  0.00    +0.000 A 
ATOM      8  C   UNL     1      -0.090  11.032  20.487  0.00  0.00    +0.000 A 
ATOM      9  C   UNL     1      -1.167  11.652  21.219  0.00  0.00    +0.000 A 
ATOM     10  C   UNL     1       0.354  11.336  19.084  0.00  0.00    +0.000 C 
ATOM     11  C   UNL     1       1.757  10.771  18.833  0.00  0.00    +0.000 C 
ATOM     12  N   UNL     1       1.849   9.387  19.310  0.00  0.00    +0.000 N 
ATOM     13  C   UNL     1       1.751   8.369  18.374  0.00  0.00    +0.000 C 
ATOM     14  O   UNL     1       1.603   8.626  17.179  0.00  0.00    +0.000 OA
ATOM     15  C   UNL     1       1.714   9.218  20.768  0.00  0.00    +0.000 C 
ENDROOT
BRANCH   1  16
ATOM     16  N   UNL     1      -2.094  13.389  19.725  0.00  0.00    +0.000 N 
ATOM     17  H   UNL     1      -3.029  13.466  19.343  0.00  0.00    +0.000 HD
ATOM     18  H   UNL     1      -1.357  13.194  19.065  0.00  0.00    +0.000 HD
ENDBRANCH   1  16
BRANCH  13  19
ATOM     19  C   UNL     1       1.863   6.935  18.886  0.00  0.00    +0.000 C 
BRANCH  19  20
ATOM     20  C   UNL     1       3.077   6.110  18.395  0.00  0.00    +0.000 C 
ATOM     21  C   UNL     1       3.881   5.634  19.641  0.00  0.00    +0.000 C 
ATOM     22  C   UNL     1       5.096   4.785  19.226  0.00  0.00    +0.000 C 
ATOM     23  C   UNL     1       4.609   3.556  18.442  0.00  0.00    +0.000 C 
ATOM     24  C   UNL     1       3.835   4.003  17.192  0.00  0.00    +0.000 C 
ATOM     25  C   UNL     1       4.756   4.851  16.301  0.00  0.00    +0.000 C 
ATOM     26  C   UNL     1       5.255   6.081  17.081  0.00  0.00    +0.000 C 
ATOM     27  C   UNL     1       6.018   5.625  18.333  0.00  0.00    +0.000 C 
ATOM     28  C   UNL     1       4.046   6.935  17.507  0.00  0.00    +0.000 C 
ATOM     29  C   UNL     1       2.624   4.847  17.619  0.00  0.00    +0.000 C 
BRANCH  26  30
ATOM     30  O   UNL     1       6.109   6.867  16.263  0.00  0.00    +0.000 OA
ATOM     31  H   UNL     1       6.849   7.178  16.811  0.00  0.00    +0.000 HD
ENDBRANCH  26  30
ENDBRANCH  19  20
ENDBRANCH  13  19
TORSDOF 4
ENDMDL
MODEL 9
REMARK VINA RESULT:      -7.6      1.450      2.012
REMARK  Name = 
REMARK  4 active torsions:
REMARK  status: ('A' for Active; 'I' for Inactive)
REMARK    1  A    between atoms: N_1  and  C_2
REMARK    2  A    between atoms: C_14  and  C_16
REMARK    3  A    between atoms: C_16  and  C_17
REMARK    4  A    between atoms: C_23  and  O_24
REMARK                            x       y       z     vdW  Elec       q    Type
REMARK                         _______ _______ _______ _____ _____    ______ ____
ROOT
ATOM      1  C   UNL     1      -2.530  11.907  18.757  0.00  0.00    +0.000 A 
ATOM      2  N   UNL     1      -3.551  12.563  19.340  0.00  0.00    +0.000 NA
ATOM      3  C   UNL     1      -3.547  12.700  20.675  0.00  0.00    +0.000 A 
ATOM      4  N   UNL     1      -2.636  12.250  21.542  0.00  0.00    +0.000 NA
ATOM      5  C   UNL     1      -1.640  11.586  20.929  0.00  0.00    +0.000 A 
ATOM      6  S   UNL     1      -0.357  10.918  21.836  0.00  0.00    +0.000 S 
ATOM      7  C   UNL     1       0.398  10.311  20.441  0.00  0.00    +0.000 A 
ATOM      8  C   UNL     1      -0.308  10.619  19.285  0.00  0.00    +0.000 A 
ATOM      9  C   UNL     1      -1.510  11.366  19.567  0.00  0.00    +0.000 A 
ATOM     10  C   UNL     1       0.189  10.165  17.942  0.00  0.00    +0.000 C 
ATOM     11  C   UNL     1       1.671   9.780  18.023  0.00  0.00    +0.000 C 
ATOM     12  N   UNL     1       1.918   8.920  19.187  0.00  0.00    +0.000 N 
ATOM     13  C   UNL     1       2.028   7.554  18.974  0.00  0.00    +0.000 C 
ATOM     14  O   UNL     1       1.931   7.085  17.840  0.00  0.00    +0.000 OA
ATOM     15  C   UNL     1       1.702   9.562  20.495  0.00  0.00    +0.000 C 
ENDROOT
BRANCH   1  16
ATOM     16  N   UNL     1      -2.555  11.827  17.376  0.00  0.00    +0.000 N 
ATOM     17  H   UNL     1      -3.460  11.528  17.032  0.00  0.00    +0.000 HD
ATOM     18  H   UNL     1      -1.749  11.425  16.923  0.00  0.00    +0.000 HD
ENDBRANCH   1  16
BRANCH  13  19
ATOM     19  C   UNL     1       2.297   6.676  20.193  0.00  0.00    +0.000 C 
BRANCH  19  20
ATOM     20  C   UNL     1       2.499   5.164  19.934  0.00  0.00    +0.000 C 
ATOM     21  C   UNL     1       1.531   4.730  18.794  0.00  0.00    +0.000 C 
ATOM     22  C   UNL     1       1.693   3.235  18.468  0.00  0.00    +0.000 C 
ATOM     23  C   UNL     1       3.140   2.969  18.026  0.00  0.00    +0.000 C 
ATOM     24  C   UNL     1       4.114   3.365  19.147  0.00  0.00    +0.000 C 
ATOM     25  C   UNL     1       3.800   2.543  20.406  0.00  0.00    +0.000 C 
ATOM     26  C   UNL     1       2.349   2.797  20.852  0.00  0.00    +0.000 C 
ATOM     27  C   UNL     1       1.384   2.407  19.722  0.00  0.00    +0.000 C 
ATOM     28  C   UNL     1       2.173   4.293  21.175  0.00  0.00    +0.000 C 
ATOM     29  C   UNL     1       3.944   4.860  19.462  0.00  0.00    +0.000 C 
BRANCH  26  30
ATOM     30  O   UNL     1       2.052   2.036  22.015  0.00  0.00    +0.000 OA
ATOM     31  H   UNL     1       1.109   2.148  22.216  0.00  0.00    +0.000 HD
ENDBRANCH  26  30
ENDBRANCH  19  20
ENDBRANCH  13  19
TORSDOF 4
ENDMDL
