MODEL 1
REMARK VINA RESULT:      -7.6      0.000      0.000
REMARK  Name = 
REMARK  4 active torsions:
REMARK  status: ('A' for Active; 'I' for Inactive)
REMARK    1  A    between atoms: C_1  and  N_2
REMARK    2  A    between atoms: C_4  and  C_5
REMARK    3  A    between atoms: C_9  and  N_10
REMARK    4  A    between atoms: C_17  and  C_18
REMARK                            x       y       z     vdW  Elec       q    Type
REMARK                         _______ _______ _______ _____ _____    ______ ____
ROOT
ATOM      1  N   UNL     1       2.699   3.165  17.530  0.00  0.00    +0.000 N 
ATOM      2  C   UNL     1       2.192   4.516  17.174  0.00  0.00    +0.000 C 
ATOM      3  C   UNL     1       1.919   5.133  18.514  0.00  0.00    +0.000 A 
ATOM      4  C   UNL     1       1.701   4.087  19.417  0.00  0.00    +0.000 A 
ATOM      5  C   UNL     1       1.601   4.275  20.783  0.00  0.00    +0.000 A 
ATOM      6  C   UNL     1       1.760   5.574  21.258  0.00  0.00    +0.000 A 
ATOM      7  C   UNL     1       1.997   6.639  20.368  0.00  0.00    +0.000 A 
ATOM      8  C   UNL     1       2.070   6.441  18.972  0.00  0.00    +0.000 A 
ATOM      9  C   UNL     1       2.051   2.817  18.742  0.00  0.00    +0.000 C 
ATOM     10  O   UNL     1       1.948   1.719  19.257  0.00  0.00    +0.000 OA
ENDROOT
BRANCH   1  15
ATOM     11  C   UNL     1       5.904   4.293  16.384  0.00  0.00    +0.000 A 
ATOM     12  C   UNL     1       6.278   4.948  17.556  0.00  0.00    +0.000 A 
ATOM     13  C   UNL     1       5.742   4.539  18.767  0.00  0.00    +0.000 A 
ATOM     14  C   UNL     1       4.771   3.548  18.781  0.00  0.00    +0.000 A 
ATOM     15  C   UNL     1       4.155   3.175  17.571  0.00  0.00    +0.000 A 
ATOM     16  C   UNL     1       4.831   3.400  16.369  0.00  0.00    +0.000 A 
BRANCH  11  20
ATOM     17  C   UNL     1       7.076   4.441  12.617  0.00  0.00    +0.000 C 
ATOM     18  N   UNL     1       6.714   4.156  13.966  0.00  0.00    +0.000 N 
ATOM     19  N   UNL     1       7.508   5.330  14.730  0.00  0.00    +0.000 NA
ATOM     20  C   UNL     1       6.603   4.603  15.198  0.00  0.00    +0.000 C 
ENDBRANCH  11  20
ENDBRANCH   1  15
BRANCH   8  21
ATOM     21  C   UNL     1       2.419   7.604  18.076  0.00  0.00    +0.000 C 
ATOM     22  F   UNL     1       3.534   7.384  17.327  0.00  0.00    +0.000 F 
ATOM     23  F   UNL     1       1.429   7.893  17.188  0.00  0.00    +0.000 F 
ATOM     24  F   UNL     1       2.653   8.757  18.758  0.00  0.00    +0.000 F 
ENDBRANCH   8  21
TORSDOF 3
ENDMDL
MODEL 2
REMARK VINA RESULT:      -7.6      3.403      6.430
REMARK  Name = 
REMARK  4 active torsions:
REMARK  status: ('A' for Active; 'I' for Inactive)
REMARK    1  A    between atoms: C_1  and  N_2
REMARK    2  A    between atoms: C_4  and  C_5
REMARK    3  A    between atoms: C_9  and  N_10
REMARK    4  A    between atoms: C_17  and  C_18
REMARK                            x       y       z     vdW  Elec       q    Type
REMARK                         _______ _______ _______ _____ _____    ______ ____
ROOT
ATOM      1  N   UNL     1       3.144   5.659  20.364  0.00  0.00    +0.000 N 
ATOM      2  C   UNL     1       4.283   5.497  19.423  0.00  0.00    +0.000 C 
ATOM      3  C   UNL     1       3.922   4.247  18.676  0.00  0.00    +0.000 A 
ATOM      4  C   UNL     1       3.069   3.504  19.497  0.00  0.00    +0.000 A 
ATOM      5  C   UNL     1       2.390   2.380  19.062  0.00  0.00    +0.000 A 
ATOM      6  C   UNL     1       2.559   2.012  17.730  0.00  0.00    +0.000 A 
ATOM      7  C   UNL     1       3.401   2.757  16.882  0.00  0.00    +0.000 A 
ATOM      8  C   UNL     1       4.111   3.886  17.342  0.00  0.00    +0.000 A 
ATOM      9  C   UNL     1       2.693   4.347  20.654  0.00  0.00    +0.000 C 
ATOM     10  O   UNL     1       1.975   3.977  21.564  0.00  0.00    +0.000 OA
ENDROOT
BRANCH   1  15
ATOM     11  C   UNL     1       1.356   8.766  20.254  0.00  0.00    +0.000 A 
ATOM     12  C   UNL     1       1.853   9.199  19.026  0.00  0.00    +0.000 A 
ATOM     13  C   UNL     1       2.283   8.266  18.096  0.00  0.00    +0.000 A 
ATOM     14  C   UNL     1       2.302   6.922  18.440  0.00  0.00    +0.000 A 
ATOM     15  C   UNL     1       2.151   6.558  19.791  0.00  0.00    +0.000 A 
ATOM     16  C   UNL     1       1.503   7.438  20.662  0.00  0.00    +0.000 A 
BRANCH  11  20
ATOM     17  C   UNL     1      -0.909  10.502  22.982  0.00  0.00    +0.000 C 
ATOM     18  N   UNL     1      -0.297   9.827  21.885  0.00  0.00    +0.000 N 
ATOM     19  N   UNL     1       0.805  10.919  21.455  0.00  0.00    +0.000 NA
ATOM     20  C   UNL     1       0.753   9.719  21.101  0.00  0.00    +0.000 C 
ENDBRANCH  11  20
ENDBRANCH   1  15
BRANCH   8  21
ATOM     21  C   UNL     1       4.923   4.700  16.364  0.00  0.00    +0.000 C 
ATOM     22  F   UNL     1       4.478   5.980  16.237  0.00  0.00    +0.000 F 
ATOM     23  F   UNL     1       6.231   4.798  16.730  0.00  0.00    +0.000 F 
ATOM     24  F   UNL     1       4.928   4.182  15.107  0.00  0.00    +0.000 F 
ENDBRANCH   8  21
TORSDOF 3
ENDMDL
MODEL 3
REMARK VINA RESULT:      -7.5      2.975      3.784
REMARK  Name = 
REMARK  4 active torsions:
REMARK  status: ('A' for Active; 'I' for Inactive)
REMARK    1  A    between atoms: C_1  and  N_2
REMARK    2  A    between atoms: C_4  and  C_5
REMARK    3  A    between atoms: C_9  and  N_10
REMARK    4  A    between atoms: C_17  and  C_18
REMARK                            x       y       z     vdW  Elec       q    Type
REMARK                         _______ _______ _______ _____ _____    ______ ____
ROOT
ATOM      1  N   UNL     1       4.067   6.111  19.035  0.00  0.00    +0.000 N 
ATOM      2  C   UNL     1       3.462   5.557  20.274  0.00  0.00    +0.000 C 
ATOM      3  C   UNL     1       2.396   4.643  19.744  0.00  0.00    +0.000 A 
ATOM      4  C   UNL     1       2.049   5.104  18.470  0.00  0.00    +0.000 A 
ATOM      5  C   UNL     1       1.229   4.399  17.608  0.00  0.00    +0.000 A 
ATOM      6  C   UNL     1       0.767   3.159  18.043  0.00  0.00    +0.000 A 
ATOM      7  C   UNL     1       1.119   2.669  19.316  0.00  0.00    +0.000 A 
ATOM      8  C   UNL     1       1.933   3.409  20.200  0.00  0.00    +0.000 A 
ATOM      9  C   UNL     1       3.021   6.149  18.078  0.00  0.00    +0.000 C 
ATOM     10  O   UNL     1       2.977   6.763  17.029  0.00  0.00    +0.000 OA
ENDROOT
BRANCH   1  15
ATOM     11  C   UNL     1       6.643   5.146  16.734  0.00  0.00    +0.000 A 
ATOM     12  C   UNL     1       7.718   5.638  17.473  0.00  0.00    +0.000 A 
ATOM     13  C   UNL     1       7.604   5.750  18.851  0.00  0.00    +0.000 A 
ATOM     14  C   UNL     1       6.391   5.461  19.459  0.00  0.00    +0.000 A 
ATOM     15  C   UNL     1       5.239   5.330  18.661  0.00  0.00    +0.000 A 
ATOM     16  C   UNL     1       5.382   4.991  17.314  0.00  0.00    +0.000 A 
BRANCH  11  20
ATOM     17  C   UNL     1       6.285   3.710  13.074  0.00  0.00    +0.000 C 
ATOM     18  N   UNL     1       6.452   4.001  14.460  0.00  0.00    +0.000 N 
ATOM     19  N   UNL     1       7.547   5.179  14.376  0.00  0.00    +0.000 NA
ATOM     20  C   UNL     1       6.849   4.867  15.367  0.00  0.00    +0.000 C 
ENDBRANCH  11  20
ENDBRANCH   1  15
BRANCH   8  21
ATOM     21  C   UNL     1       2.354   2.792  21.512  0.00  0.00    +0.000 C 
ATOM     22  F   UNL     1       1.500   1.824  21.943  0.00  0.00    +0.000 F 
ATOM     23  F   UNL     1       3.578   2.201  21.440  0.00  0.00    +0.000 F 
ATOM     24  F   UNL     1       2.437   3.692  22.528  0.00  0.00    +0.000 F 
ENDBRANCH   8  21
TORSDOF 3
ENDMDL
MODEL 4
REMARK VINA RESULT:      -7.5      3.163      5.808
REMARK  Name = 
REMARK  4 active torsions:
REMARK  status: ('A' for Active; 'I' for Inactive)
REMARK    1  A    between atoms: C_1  and  N_2
REMARK    2  A    between atoms: C_4  and  C_5
REMARK    3  A    between atoms: C_9  and  N_10
REMARK    4  A    between atoms: C_17  and  C_18
REMARK                            x       y       z     vdW  Elec       q    Type
REMARK                         _______ _______ _______ _____ _____    ______ ____
ROOT
ATOM      1  N   UNL     1       4.065   3.124  18.610  0.00  0.00    +0.000 N 
ATOM      2  C   UNL     1       5.531   3.360  18.634  0.00  0.00    +0.000 C 
ATOM      3  C   UNL     1       5.679   4.615  17.824  0.00  0.00    +0.000 A 
ATOM      4  C   UNL     1       4.573   4.691  16.971  0.00  0.00    +0.000 A 
ATOM      5  C   UNL     1       4.282   5.808  16.210  0.00  0.00    +0.000 A 
ATOM      6  C   UNL     1       5.128   6.905  16.342  0.00  0.00    +0.000 A 
ATOM      7  C   UNL     1       6.238   6.855  17.208  0.00  0.00    +0.000 A 
ATOM      8  C   UNL     1       6.543   5.700  17.960  0.00  0.00    +0.000 A 
ATOM      9  C   UNL     1       3.609   3.642  17.372  0.00  0.00    +0.000 C 
ATOM     10  O   UNL     1       2.552   3.435  16.807  0.00  0.00    +0.000 OA
ENDROOT
BRANCH   1  15
ATOM     11  C   UNL     1       2.078   5.595  20.287  0.00  0.00    +0.000 A 
ATOM     12  C   UNL     1       1.038   4.745  20.661  0.00  0.00    +0.000 A 
ATOM     13  C   UNL     1       1.288   3.391  20.823  0.00  0.00    +0.000 A 
ATOM     14  C   UNL     1       2.545   2.890  20.519  0.00  0.00    +0.000 A 
ATOM     15  C   UNL     1       3.449   3.696  19.801  0.00  0.00    +0.000 A 
ATOM     16  C   UNL     1       3.300   5.084  19.843  0.00  0.00    +0.000 A 
BRANCH  11  20
ATOM     17  C   UNL     1       1.114   9.244  21.444  0.00  0.00    +0.000 C 
ATOM     18  N   UNL     1       1.231   7.875  21.064  0.00  0.00    +0.000 N 
ATOM     19  N   UNL     1       1.966   8.034  19.640  0.00  0.00    +0.000 NA
ATOM     20  C   UNL     1       1.843   6.985  20.312  0.00  0.00    +0.000 C 
ENDBRANCH  11  20
ENDBRANCH   1  15
BRANCH   8  21
ATOM     21  C   UNL     1       7.689   5.738  18.942  0.00  0.00    +0.000 C 
ATOM     22  F   UNL     1       7.286   5.620  20.237  0.00  0.00    +0.000 F 
ATOM     23  F   UNL     1       8.580   4.728  18.740  0.00  0.00    +0.000 F 
ATOM     24  F   UNL     1       8.412   6.888  18.882  0.00  0.00    +0.000 F 
ENDBRANCH   8  21
TORSDOF 3
ENDMDL
MODEL 5
REMARK VINA RESULT:      -7.5      1.652      2.196
REMARK  Name = 
REMARK  4 active torsions:
REMARK  status: ('A' for Active; 'I' for Inactive)
REMARK    1  A    between atoms: C_1  and  N_2
REMARK    2  A    between atoms: C_4  and  C_5
REMARK    3  A    between atoms: C_9  and  N_10
REMARK    4  A    between atoms: C_17  and  C_18
REMARK                            x       y       z     vdW  Elec       q    Type
REMARK                         _______ _______ _______ _____ _____    ______ ____
ROOT
ATOM      1  N   UNL     1       2.815   3.892  17.264  0.00  0.00    +0.000 N 
ATOM      2  C   UNL     1       1.862   4.828  17.915  0.00  0.00    +0.000 C 
ATOM      3  C   UNL     1       1.857   4.359  19.341  0.00  0.00    +0.000 A 
ATOM      4  C   UNL     1       2.236   3.013  19.336  0.00  0.00    +0.000 A 
ATOM      5  C   UNL     1       2.518   2.303  20.489  0.00  0.00    +0.000 A 
ATOM      6  C   UNL     1       2.443   2.994  21.695  0.00  0.00    +0.000 A 
ATOM      7  C   UNL     1       2.080   4.355  21.720  0.00  0.00    +0.000 A 
ATOM      8  C   UNL     1       1.767   5.064  20.540  0.00  0.00    +0.000 A 
ATOM      9  C   UNL     1       2.703   2.670  17.975  0.00  0.00    +0.000 C 
ATOM     10  O   UNL     1       3.080   1.563  17.640  0.00  0.00    +0.000 OA
ENDROOT
BRANCH   1  15
ATOM     11  C   UNL     1       5.675   5.178  15.524  0.00  0.00    +0.000 A 
ATOM     12  C   UNL     1       5.552   6.498  15.955  0.00  0.00    +0.000 A 
ATOM     13  C   UNL     1       4.914   6.766  17.157  0.00  0.00    +0.000 A 
ATOM     14  C   UNL     1       4.326   5.725  17.862  0.00  0.00    +0.000 A 
ATOM     15  C   UNL     1       4.146   4.482  17.226  0.00  0.00    +0.000 A 
ATOM     16  C   UNL     1       4.968   4.148  16.147  0.00  0.00    +0.000 A 
BRANCH  11  20
ATOM     17  C   UNL     1       7.030   3.829  12.069  0.00  0.00    +0.000 C 
ATOM     18  N   UNL     1       6.540   4.087  13.383  0.00  0.00    +0.000 N 
ATOM     19  N   UNL     1       7.572   5.227  13.857  0.00  0.00    +0.000 NA
ATOM     20  C   UNL     1       6.487   4.920  14.400  0.00  0.00    +0.000 C 
ENDBRANCH  11  20
ENDBRANCH   1  15
BRANCH   8  21
ATOM     21  C   UNL     1       1.477   6.543  20.619  0.00  0.00    +0.000 C 
ATOM     22  F   UNL     1       0.161   6.817  20.834  0.00  0.00    +0.000 F 
ATOM     23  F   UNL     1       2.151   7.151  21.634  0.00  0.00    +0.000 F 
ATOM     24  F   UNL     1       1.817   7.220  19.490  0.00  0.00    +0.000 F 
ENDBRANCH   8  21
TORSDOF 3
ENDMDL
MODEL 6
REMARK VINA RESULT:      -7.5      2.952      6.153
REMARK  Name = 
REMARK  4 active torsions:
REMARK  status: ('A' for Active; 'I' for Inactive)
REMARK    1  A    between atoms: C_1  and  N_2
REMARK    2  A    between atoms: C_4  and  C_5
REMARK    3  A    between atoms: C_9  and  N_10
REMARK    4  A    between atoms: C_17  and  C_18
REMARK                            x       y       z     vdW  Elec       q    Type
REMARK                         _______ _______ _______ _____ _____    ______ ____
ROOT
ATOM      1  N   UNL     1       3.953   4.605  19.184  0.00  0.00    +0.000 N 
ATOM      2  C   UNL     1       5.273   5.278  19.298  0.00  0.00    +0.000 C 
ATOM      3  C   UNL     1       5.890   5.030  17.952  0.00  0.00    +0.000 A 
ATOM      4  C   UNL     1       5.290   3.883  17.425  0.00  0.00    +0.000 A 
ATOM      5  C   UNL     1       5.480   3.461  16.121  0.00  0.00    +0.000 A 
ATOM      6  C   UNL     1       6.286   4.253  15.309  0.00  0.00    +0.000 A 
ATOM      7  C   UNL     1       6.886   5.422  15.816  0.00  0.00    +0.000 A 
ATOM      8  C   UNL     1       6.709   5.829  17.156  0.00  0.00    +0.000 A 
ATOM      9  C   UNL     1       4.148   3.519  18.293  0.00  0.00    +0.000 C 
ATOM     10  O   UNL     1       3.435   2.550  18.114  0.00  0.00    +0.000 OA
ENDROOT
BRANCH   1  15
ATOM     11  C   UNL     1       2.074   7.621  19.670  0.00  0.00    +0.000 A 
ATOM     12  C   UNL     1       2.562   8.302  18.556  0.00  0.00    +0.000 A 
ATOM     13  C   UNL     1       3.023   7.582  17.465  0.00  0.00    +0.000 A 
ATOM     14  C   UNL     1       3.081   6.197  17.538  0.00  0.00    +0.000 A 
ATOM     15  C   UNL     1       2.935   5.571  18.790  0.00  0.00    +0.000 A 
ATOM     16  C   UNL     1       2.259   6.244  19.810  0.00  0.00    +0.000 A 
BRANCH  11  20
ATOM     17  C   UNL     1      -0.305  10.110  21.602  0.00  0.00    +0.000 C 
ATOM     18  N   UNL     1       0.637   9.407  20.796  0.00  0.00    +0.000 N 
ATOM     19  N   UNL     1       1.386   8.535  21.923  0.00  0.00    +0.000 NA
ATOM     20  C   UNL     1       1.440   8.372  20.683  0.00  0.00    +0.000 C 
ENDBRANCH  11  20
ENDBRANCH   1  15
BRANCH   8  21
ATOM     21  C   UNL     1       7.299   7.140  17.616  0.00  0.00    +0.000 C 
ATOM     22  F   UNL     1       8.157   7.686  16.711  0.00  0.00    +0.000 F 
ATOM     23  F   UNL     1       6.348   8.088  17.841  0.00  0.00    +0.000 F 
ATOM     24  F   UNL     1       8.001   7.037  18.776  0.00  0.00    +0.000 F 
ENDBRANCH   8  21
TORSDOF 3
ENDMDL
MODEL 7
REMARK VINA RESULT:      -7.5      3.134      5.588
REMARK  Name = 
REMARK  4 active torsions:
REMARK  status: ('A' for Active; 'I' for Inactive)
REMARK    1  A    between atoms: C_1  and  N_2
REMARK    2  A    between atoms: C_4  and  C_5
REMARK    3  A    between atoms: C_9  and  N_10
REMARK    4  A    between atoms: C_17  and  C_18
REMARK                            x       y       z     vdW  Elec       q    Type
REMARK                         _______ _______ _______ _____ _____    ______ ____
ROOT
ATOM      1  N   UNL     1       4.217   3.141  18.916  0.00  0.00    +0.000 N 
ATOM      2  C   UNL     1       5.678   3.401  18.986  0.00  0.00    +0.000 C 
ATOM      3  C   UNL     1       5.868   4.509  17.991  0.00  0.00    +0.000 A 
ATOM      4  C   UNL     1       4.814   4.428  17.075  0.00  0.00    +0.000 A 
ATOM      5  C   UNL     1       4.563   5.401  16.125  0.00  0.00    +0.000 A 
ATOM      6  C   UNL     1       5.394   6.518  16.124  0.00  0.00    +0.000 A 
ATOM      7  C   UNL     1       6.450   6.627  17.051  0.00  0.00    +0.000 A 
ATOM      8  C   UNL     1       6.716   5.615  17.998  0.00  0.00    +0.000 A 
ATOM      9  C   UNL     1       3.834   3.444  17.584  0.00  0.00    +0.000 C 
ATOM     10  O   UNL     1       2.813   3.131  17.001  0.00  0.00    +0.000 OA
ENDROOT
BRANCH   1  15
ATOM     11  C   UNL     1       2.158   5.849  20.053  0.00  0.00    +0.000 A 
ATOM     12  C   UNL     1       1.080   5.072  20.473  0.00  0.00    +0.000 A 
ATOM     13  C   UNL     1       1.295   3.757  20.855  0.00  0.00    +0.000 A 
ATOM     14  C   UNL     1       2.562   3.208  20.722  0.00  0.00    +0.000 A 
ATOM     15  C   UNL     1       3.528   3.891  19.958  0.00  0.00    +0.000 A 
ATOM     16  C   UNL     1       3.400   5.270  19.781  0.00  0.00    +0.000 A 
BRANCH  11  20
ATOM     17  C   UNL     1       1.689   9.397  18.386  0.00  0.00    +0.000 C 
ATOM     18  N   UNL     1       2.080   8.126  18.899  0.00  0.00    +0.000 N 
ATOM     19  N   UNL     1       1.649   8.293  20.441  0.00  0.00    +0.000 NA
ATOM     20  C   UNL     1       1.945   7.229  19.851  0.00  0.00    +0.000 C 
ENDBRANCH  11  20
ENDBRANCH   1  15
BRANCH   8  21
ATOM     21  C   UNL     1       7.801   5.829  19.025  0.00  0.00    +0.000 C 
ATOM     22  F   UNL     1       8.432   7.028  18.892  0.00  0.00    +0.000 F 
ATOM     23  F   UNL     1       7.322   5.804  20.300  0.00  0.00    +0.000 F 
ATOM     24  F   UNL     1       8.780   4.887  18.978  0.00  0.00    +0.000 F 
ENDBRANCH   8  21
TORSDOF 3
ENDMDL
MODEL 8
REMARK VINA RESULT:      -7.4      2.971      6.213
REMARK  Name = 
REMARK  4 active torsions:
REMARK  status: ('A' for Active; 'I' for Inactive)
REMARK    1  A    between atoms: C_1  and  N_2
REMARK    2  A    between atoms: C_4  and  C_5
REMARK    3  A    between atoms: C_9  and  N_10
REMARK    4  A    between atoms: C_17  and  C_18
REMARK                            x       y       z     vdW  Elec       q    Type
REMARK                         _______ _______ _______ _____ _____    ______ ____
ROOT
ATOM      1  N   UNL     1       3.451   4.624  19.574  0.00  0.00    +0.000 N 
ATOM      2  C   UNL     1       4.824   5.192  19.536  0.00  0.00    +0.000 C 
ATOM      3  C   UNL     1       5.277   4.876  18.141  0.00  0.00    +0.000 A 
ATOM      4  C   UNL     1       4.539   3.771  17.705  0.00  0.00    +0.000 A 
ATOM      5  C   UNL     1       4.560   3.315  16.399  0.00  0.00    +0.000 A 
ATOM      6  C   UNL     1       5.336   4.029  15.490  0.00  0.00    +0.000 A 
ATOM      7  C   UNL     1       6.073   5.155  15.905  0.00  0.00    +0.000 A 
ATOM      8  C   UNL     1       6.067   5.596  17.246  0.00  0.00    +0.000 A 
ATOM      9  C   UNL     1       3.469   3.512  18.694  0.00  0.00    +0.000 C 
ATOM     10  O   UNL     1       2.669   2.600  18.612  0.00  0.00    +0.000 OA
ENDROOT
BRANCH   1  15
ATOM     11  C   UNL     1       1.823   7.754  20.218  0.00  0.00    +0.000 A 
ATOM     12  C   UNL     1       2.272   8.413  19.074  0.00  0.00    +0.000 A 
ATOM     13  C   UNL     1       2.601   7.675  17.947  0.00  0.00    +0.000 A 
ATOM     14  C   UNL     1       2.569   6.290  18.008  0.00  0.00    +0.000 A 
ATOM     15  C   UNL     1       2.475   5.660  19.263  0.00  0.00    +0.000 A 
ATOM     16  C   UNL     1       1.924   6.366  20.335  0.00  0.00    +0.000 A 
BRANCH  11  20
ATOM     17  C   UNL     1      -0.580   9.466  22.841  0.00  0.00    +0.000 C 
ATOM     18  N   UNL     1       0.163   8.969  21.730  0.00  0.00    +0.000 N 
ATOM     19  N   UNL     1       1.663   9.278  22.226  0.00  0.00    +0.000 NA
ATOM     20  C   UNL     1       1.320   8.535  21.279  0.00  0.00    +0.000 C 
ENDBRANCH  11  20
ENDBRANCH   1  15
BRANCH   8  21
ATOM     21  C   UNL     1       6.801   6.863  17.612  0.00  0.00    +0.000 C 
ATOM     22  F   UNL     1       7.489   6.762  18.782  0.00  0.00    +0.000 F 
ATOM     23  F   UNL     1       7.719   7.223  16.673  0.00  0.00    +0.000 F 
ATOM     24  F   UNL     1       5.980   7.937  17.758  0.00  0.00    +0.000 F 
ENDBRANCH   8  21
TORSDOF 3
ENDMDL
MODEL 9
REMARK VINA RESULT:      -7.4      3.045      4.288
REMARK  Name = 
REMARK  4 active torsions:
REMARK  status: ('A' for Active; 'I' for Inactive)
REMARK    1  A    between atoms: C_1  and  N_2
REMARK    2  A    between atoms: C_4  and  C_5
REMARK    3  A    between atoms: C_9  and  N_10
REMARK    4  A    between atoms: C_17  and  C_18
REMARK                            x       y       z     vdW  Elec       q    Type
REMARK                         _______ _______ _______ _____ _____    ______ ____
ROOT
ATOM      1  N   UNL     1       6.084   5.336  15.579  0.00  0.00    +0.000 N 
ATOM      2  C   UNL     1       4.956   6.255  15.883  0.00  0.00    +0.000 C 
ATOM      3  C   UNL     1       4.117   5.451  16.831  0.00  0.00    +0.000 A 
ATOM      4  C   UNL     1       4.392   4.101  16.587  0.00  0.00    +0.000 A 
ATOM      5  C   UNL     1       3.937   3.078  17.399  0.00  0.00    +0.000 A 
ATOM      6  C   UNL     1       3.200   3.439  18.523  0.00  0.00    +0.000 A 
ATOM      7  C   UNL     1       2.926   4.794  18.796  0.00  0.00    +0.000 A 
ATOM      8  C   UNL     1       3.371   5.829  17.947  0.00  0.00    +0.000 A 
ATOM      9  C   UNL     1       5.549   4.026  15.668  0.00  0.00    +0.000 C 
ATOM     10  O   UNL     1       6.019   2.987  15.245  0.00  0.00    +0.000 OA
ENDROOT
BRANCH   1  15
ATOM     11  C   UNL     1       7.846   7.407  17.919  0.00  0.00    +0.000 A 
ATOM     12  C   UNL     1       7.739   6.549  19.012  0.00  0.00    +0.000 A 
ATOM     13  C   UNL     1       7.596   5.186  18.800  0.00  0.00    +0.000 A 
ATOM     14  C   UNL     1       7.467   4.710  17.503  0.00  0.00    +0.000 A 
ATOM     15  C   UNL     1       7.209   5.621  16.461  0.00  0.00    +0.000 A 
ATOM     16  C   UNL     1       7.575   6.959  16.624  0.00  0.00    +0.000 A 
BRANCH  11  20
ATOM     17  C   UNL     1       9.590  10.690  19.248  0.00  0.00    +0.000 C 
ATOM     18  N   UNL     1       8.906   9.464  18.997  0.00  0.00    +0.000 N 
ATOM     19  N   UNL     1       7.898   9.931  17.832  0.00  0.00    +0.000 NA
ATOM     20  C   UNL     1       8.177   8.756  18.162  0.00  0.00    +0.000 C 
ENDBRANCH  11  20
ENDBRANCH   1  15
BRANCH   8  21
ATOM     21  C   UNL     1       3.129   7.266  18.341  0.00  0.00    +0.000 C 
ATOM     22  F   UNL     1       4.200   8.071  18.104  0.00  0.00    +0.000 F 
ATOM     23  F   UNL     1       2.089   7.823  17.661  0.00  0.00    +0.000 F 
ATOM     24  F   UNL     1       2.834   7.420  19.659  0.00  0.00    +0.000 F 
ENDBRANCH   8  21
TORSDOF 3
ENDMDL
