MODEL 1
REMARK VINA RESULT:      -8.6      0.000      0.000
REMARK  Name = 
REMARK  5 active torsions:
REMARK  status: ('A' for Active; 'I' for Inactive)
REMARK    1  A    between atoms: C_2  and  C_3
REMARK    2  A    between atoms: C_3  and  C_4
REMARK    3  A    between atoms: C_4  and  C_5
REMARK    4  A    between atoms: N_11  and  C_12
REMARK    5  A    between atoms: C_14  and  C_15
REMARK                            x       y       z     vdW  Elec       q    Type
REMARK                         _______ _______ _______ _____ _____    ______ ____
ROOT
ATOM      1  C   UNL     1       5.884   6.825  16.906  0.00  0.00    +0.000 A 
ATOM      2  C   UNL     1       5.040   6.254  17.826  0.00  0.00    +0.000 A 
ATOM      3  C   UNL     1       4.552   5.060  17.226  0.00  0.00    +0.000 A 
ATOM      4  N   UNL     1       5.072   4.906  15.998  0.00  0.00    +0.000 NA
ATOM      5  N   UNL     1       5.839   5.991  15.820  0.00  0.00    +0.000 N 
ATOM      6  H   UNL     1       6.305   6.094  14.926  0.00  0.00    +0.000 HD
ENDROOT
BRANCH   3   7
ATOM      7  C   UNL     1       3.644   4.078  17.807  0.00  0.00    +0.000 A 
ATOM      8  C   UNL     1       3.942   2.706  17.734  0.00  0.00    +0.000 A 
ATOM      9  C   UNL     1       3.087   1.758  18.304  0.00  0.00    +0.000 A 
ATOM     10  C   UNL     1       1.920   2.170  18.946  0.00  0.00    +0.000 A 
ATOM     11  C   UNL     1       1.620   3.525  19.017  0.00  0.00    +0.000 A 
ATOM     12  F   UNL     1       0.496   3.916  19.633  0.00  0.00    +0.000 F 
ATOM     13  C   UNL     1       2.469   4.474  18.456  0.00  0.00    +0.000 A 
ATOM     14  F   UNL     1       2.135   5.772  18.539  0.00  0.00    +0.000 F 
ENDBRANCH   3   7
BRANCH   1  17
ATOM     15  O   UNL     1       8.181   7.188  18.536  0.00  0.00    +0.000 OA
ATOM     16  C   UNL     1       7.775   8.132  17.876  0.00  0.00    +0.000 C 
ATOM     17  N   UNL     1       6.642   7.986  16.998  0.00  0.00    +0.000 N 
ATOM     18  H   UNL     1       6.373   8.755  16.401  0.00  0.00    +0.000 HD
BRANCH  16  19
ATOM     19  C   UNL     1       8.467   9.470  17.886  0.00  0.00    +0.000 C 
BRANCH  19  20
ATOM     20  C   UNL     1       9.093   9.816  19.226  0.00  0.00    +0.000 C 
BRANCH  20  21
ATOM     21  C   UNL     1      10.048  10.965  19.086  0.00  0.00    +0.000 A 
ATOM     22  C   UNL     1      10.594  11.584  20.204  0.00  0.00    +0.000 A 
ATOM     23  C   UNL     1      11.490  12.630  20.014  0.00  0.00    +0.000 A 
ATOM     24  C   UNL     1      11.816  13.022  18.721  0.00  0.00    +0.000 A 
ATOM     25  C   UNL     1      11.232  12.345  17.664  0.00  0.00    +0.000 A 
ATOM     26  N   UNL     1      10.360  11.323  17.818  0.00  0.00    +0.000 NA
ENDBRANCH  20  21
ENDBRANCH  19  20
ENDBRANCH  16  19
ENDBRANCH   1  17
TORSDOF 5
ENDMDL
MODEL 2
REMARK VINA RESULT:      -8.5      1.334      1.401
REMARK  Name = 
REMARK  5 active torsions:
REMARK  status: ('A' for Active; 'I' for Inactive)
REMARK    1  A    between atoms: C_2  and  C_3
REMARK    2  A    between atoms: C_3  and  C_4
REMARK    3  A    between atoms: C_4  and  C_5
REMARK    4  A    between atoms: N_11  and  C_12
REMARK    5  A    between atoms: C_14  and  C_15
REMARK                            x       y       z     vdW  Elec       q    Type
REMARK                         _______ _______ _______ _____ _____    ______ ____
ROOT
ATOM      1  C   UNL     1       6.231   6.842  16.919  0.00  0.00    +0.000 A 
ATOM      2  C   UNL     1       5.412   6.236  17.839  0.00  0.00    +0.000 A 
ATOM      3  C   UNL     1       5.008   5.003  17.257  0.00  0.00    +0.000 A 
ATOM      4  N   UNL     1       5.552   4.860  16.037  0.00  0.00    +0.000 NA
ATOM      5  N   UNL     1       6.252   5.987  15.848  0.00  0.00    +0.000 N 
ATOM      6  H   UNL     1       6.723   6.103  14.958  0.00  0.00    +0.000 HD
ENDROOT
BRANCH   3   7
ATOM      7  C   UNL     1       4.155   3.976  17.845  0.00  0.00    +0.000 A 
ATOM      8  C   UNL     1       3.098   3.421  17.104  0.00  0.00    +0.000 A 
ATOM      9  C   UNL     1       2.287   2.424  17.653  0.00  0.00    +0.000 A 
ATOM     10  C   UNL     1       2.518   1.976  18.952  0.00  0.00    +0.000 A 
ATOM     11  C   UNL     1       3.560   2.525  19.690  0.00  0.00    +0.000 A 
ATOM     12  F   UNL     1       3.777   2.092  20.939  0.00  0.00    +0.000 F 
ATOM     13  C   UNL     1       4.374   3.514  19.148  0.00  0.00    +0.000 A 
ATOM     14  F   UNL     1       5.363   4.024  19.900  0.00  0.00    +0.000 F 
ENDBRANCH   3   7
BRANCH   1  17
ATOM     15  O   UNL     1       8.377   7.426  18.685  0.00  0.00    +0.000 OA
ATOM     16  C   UNL     1       7.969   8.309  17.945  0.00  0.00    +0.000 C 
ATOM     17  N   UNL     1       6.914   8.049  16.998  0.00  0.00    +0.000 N 
ATOM     18  H   UNL     1       6.648   8.769  16.341  0.00  0.00    +0.000 HD
BRANCH  16  19
ATOM     19  C   UNL     1       8.582   9.684  17.928  0.00  0.00    +0.000 C 
BRANCH  19  20
ATOM     20  C   UNL     1       9.245  10.067  19.240  0.00  0.00    +0.000 C 
BRANCH  20  21
ATOM     21  C   UNL     1      10.251  11.160  19.029  0.00  0.00    +0.000 A 
ATOM     22  C   UNL     1      10.927  11.728  20.102  0.00  0.00    +0.000 A 
ATOM     23  C   UNL     1      11.864  12.724  19.846  0.00  0.00    +0.000 A 
ATOM     24  C   UNL     1      12.098  13.118  18.535  0.00  0.00    +0.000 A 
ATOM     25  C   UNL     1      11.385  12.494  17.526  0.00  0.00    +0.000 A 
ATOM     26  N   UNL     1      10.472  11.521  17.744  0.00  0.00    +0.000 NA
ENDBRANCH  20  21
ENDBRANCH  19  20
ENDBRANCH  16  19
ENDBRANCH   1  17
TORSDOF 5
ENDMDL
MODEL 3
REMARK VINA RESULT:      -8.4      1.530      1.901
REMARK  Name = 
REMARK  5 active torsions:
REMARK  status: ('A' for Active; 'I' for Inactive)
REMARK    1  A    between atoms: C_2  and  C_3
REMARK    2  A    between atoms: C_3  and  C_4
REMARK    3  A    between atoms: C_4  and  C_5
REMARK    4  A    between atoms: N_11  and  C_12
REMARK    5  A    between atoms: C_14  and  C_15
REMARK                            x       y       z     vdW  Elec       q    Type
REMARK                         _______ _______ _______ _____ _____    ______ ____
ROOT
ATOM      1  C   UNL     1       5.610   6.291  17.743  0.00  0.00    +0.000 A 
ATOM      2  C   UNL     1       4.439   6.167  18.449  0.00  0.00    +0.000 A 
ATOM      3  C   UNL     1       4.157   4.774  18.503  0.00  0.00    +0.000 A 
ATOM      4  N   UNL     1       5.109   4.077  17.861  0.00  0.00    +0.000 NA
ATOM      5  N   UNL     1       5.947   5.011  17.390  0.00  0.00    +0.000 N 
ATOM      6  H   UNL     1       6.734   4.696  16.833  0.00  0.00    +0.000 HD
ENDROOT
BRANCH   3   7
ATOM      7  C   UNL     1       3.037   4.116  19.167  0.00  0.00    +0.000 A 
ATOM      8  C   UNL     1       2.864   4.238  20.556  0.00  0.00    +0.000 A 
ATOM      9  C   UNL     1       1.783   3.626  21.198  0.00  0.00    +0.000 A 
ATOM     10  C   UNL     1       0.867   2.879  20.459  0.00  0.00    +0.000 A 
ATOM     11  C   UNL     1       1.037   2.753  19.086  0.00  0.00    +0.000 A 
ATOM     12  F   UNL     1       0.155   2.032  18.380  0.00  0.00    +0.000 F 
ATOM     13  C   UNL     1       2.107   3.363  18.440  0.00  0.00    +0.000 A 
ATOM     14  F   UNL     1       2.239   3.206  17.113  0.00  0.00    +0.000 F 
ENDBRANCH   3   7
BRANCH   1  17
ATOM     15  O   UNL     1       8.222   6.908  18.672  0.00  0.00    +0.000 OA
ATOM     16  C   UNL     1       7.646   7.718  17.962  0.00  0.00    +0.000 C 
ATOM     17  N   UNL     1       6.339   7.431  17.427  0.00  0.00    +0.000 N 
ATOM     18  H   UNL     1       5.915   8.078  16.777  0.00  0.00    +0.000 HD
BRANCH  16  19
ATOM     19  C   UNL     1       8.286   9.017  17.550  0.00  0.00    +0.000 C 
BRANCH  19  20
ATOM     20  C   UNL     1       8.800   9.836  18.721  0.00  0.00    +0.000 C 
BRANCH  20  21
ATOM     21  C   UNL     1       9.431  11.111  18.242  0.00  0.00    +0.000 A 
ATOM     22  C   UNL     1      10.777  11.158  17.900  0.00  0.00    +0.000 A 
ATOM     23  C   UNL     1      11.304  12.362  17.442  0.00  0.00    +0.000 A 
ATOM     24  C   UNL     1      10.476  13.472  17.338  0.00  0.00    +0.000 A 
ATOM     25  C   UNL     1       9.145  13.334  17.693  0.00  0.00    +0.000 A 
ATOM     26  N   UNL     1       8.605  12.178  18.138  0.00  0.00    +0.000 NA
ENDBRANCH  20  21
ENDBRANCH  19  20
ENDBRANCH  16  19
ENDBRANCH   1  17
TORSDOF 5
ENDMDL
MODEL 4
REMARK VINA RESULT:      -8.2      1.190      1.376
REMARK  Name = 
REMARK  5 active torsions:
REMARK  status: ('A' for Active; 'I' for Inactive)
REMARK    1  A    between atoms: C_2  and  C_3
REMARK    2  A    between atoms: C_3  and  C_4
REMARK    3  A    between atoms: C_4  and  C_5
REMARK    4  A    between atoms: N_11  and  C_12
REMARK    5  A    between atoms: C_14  and  C_15
REMARK                            x       y       z     vdW  Elec       q    Type
REMARK                         _______ _______ _______ _____ _____    ______ ____
ROOT
ATOM      1  C   UNL     1       6.209   6.464  17.621  0.00  0.00    +0.000 A 
ATOM      2  C   UNL     1       4.871   6.160  17.653  0.00  0.00    +0.000 A 
ATOM      3  C   UNL     1       4.782   4.814  18.104  0.00  0.00    +0.000 A 
ATOM      4  N   UNL     1       6.007   4.316  18.336  0.00  0.00    +0.000 NA
ATOM      5  N   UNL     1       6.842   5.312  18.009  0.00  0.00    +0.000 N 
ATOM      6  H   UNL     1       7.837   5.132  18.078  0.00  0.00    +0.000 HD
ENDROOT
BRANCH   3   7
ATOM      7  C   UNL     1       3.575   4.030  18.336  0.00  0.00    +0.000 A 
ATOM      8  C   UNL     1       3.340   2.854  17.603  0.00  0.00    +0.000 A 
ATOM      9  C   UNL     1       2.195   2.085  17.831  0.00  0.00    +0.000 A 
ATOM     10  C   UNL     1       1.266   2.488  18.789  0.00  0.00    +0.000 A 
ATOM     11  C   UNL     1       1.492   3.652  19.513  0.00  0.00    +0.000 A 
ATOM     12  F   UNL     1       0.595   4.037  20.432  0.00  0.00    +0.000 F 
ATOM     13  C   UNL     1       2.632   4.419  19.295  0.00  0.00    +0.000 A 
ATOM     14  F   UNL     1       2.805   5.543  20.010  0.00  0.00    +0.000 F 
ENDBRANCH   3   7
BRANCH   1  17
ATOM     15  O   UNL     1       8.526   7.532  18.867  0.00  0.00    +0.000 OA
ATOM     16  C   UNL     1       7.991   8.174  17.976  0.00  0.00    +0.000 C 
ATOM     17  N   UNL     1       6.841   7.654  17.281  0.00  0.00    +0.000 N 
ATOM     18  H   UNL     1       6.464   8.163  16.494  0.00  0.00    +0.000 HD
BRANCH  16  19
ATOM     19  C   UNL     1       8.534   9.498  17.508  0.00  0.00    +0.000 C 
BRANCH  19  20
ATOM     20  C   UNL     1       8.697  10.514  18.626  0.00  0.00    +0.000 C 
BRANCH  20  21
ATOM     21  C   UNL     1       9.823  11.460  18.325  0.00  0.00    +0.000 A 
ATOM     22  C   UNL     1       9.611  12.609  17.574  0.00  0.00    +0.000 A 
ATOM     23  C   UNL     1      10.686  13.461  17.344  0.00  0.00    +0.000 A 
ATOM     24  C   UNL     1      11.932  13.143  17.870  0.00  0.00    +0.000 A 
ATOM     25  C   UNL     1      12.052  11.982  18.614  0.00  0.00    +0.000 A 
ATOM     26  N   UNL     1      11.025  11.137  18.856  0.00  0.00    +0.000 NA
ENDBRANCH  20  21
ENDBRANCH  19  20
ENDBRANCH  16  19
ENDBRANCH   1  17
TORSDOF 5
ENDMDL
MODEL 5
REMARK VINA RESULT:      -8.2      5.287      7.316
REMARK  Name = 
REMARK  5 active torsions:
REMARK  status: ('A' for Active; 'I' for Inactive)
REMARK    1  A    between atoms: C_2  and  C_3
REMARK    2  A    between atoms: C_3  and  C_4
REMARK    3  A    between atoms: C_4  and  C_5
REMARK    4  A    between atoms: N_11  and  C_12
REMARK    5  A    between atoms: C_14  and  C_15
REMARK                            x       y       z     vdW  Elec       q    Type
REMARK                         _______ _______ _______ _____ _____    ______ ____
ROOT
ATOM      1  C   UNL     1       6.442   4.260  17.028  0.00  0.00    +0.000 A 
ATOM      2  C   UNL     1       5.077   4.118  17.074  0.00  0.00    +0.000 A 
ATOM      3  C   UNL     1       4.728   4.111  18.452  0.00  0.00    +0.000 A 
ATOM      4  N   UNL     1       5.825   4.241  19.216  0.00  0.00    +0.000 NA
ATOM      5  N   UNL     1       6.838   4.296  18.339  0.00  0.00    +0.000 N 
ATOM      6  H   UNL     1       7.778   4.360  18.712  0.00  0.00    +0.000 HD
ENDROOT
BRANCH   3   7
ATOM      7  C   UNL     1       3.394   4.013  19.033  0.00  0.00    +0.000 A 
ATOM      8  C   UNL     1       3.009   4.870  20.079  0.00  0.00    +0.000 A 
ATOM      9  C   UNL     1       1.726   4.795  20.629  0.00  0.00    +0.000 A 
ATOM     10  C   UNL     1       0.816   3.857  20.147  0.00  0.00    +0.000 A 
ATOM     11  C   UNL     1       1.193   3.004  19.117  0.00  0.00    +0.000 A 
ATOM     12  F   UNL     1       0.315   2.102  18.657  0.00  0.00    +0.000 F 
ATOM     13  C   UNL     1       2.466   3.076  18.560  0.00  0.00    +0.000 A 
ATOM     14  F   UNL     1       2.792   2.227  17.573  0.00  0.00    +0.000 F 
ENDBRANCH   3   7
BRANCH   1  17
ATOM     15  O   UNL     1       5.941   5.751  14.663  0.00  0.00    +0.000 OA
ATOM     16  C   UNL     1       6.965   5.089  14.733  0.00  0.00    +0.000 C 
ATOM     17  N   UNL     1       7.288   4.353  15.929  0.00  0.00    +0.000 N 
ATOM     18  H   UNL     1       8.177   3.878  15.996  0.00  0.00    +0.000 HD
BRANCH  16  19
ATOM     19  C   UNL     1       7.974   5.058  13.616  0.00  0.00    +0.000 C 
BRANCH  19  20
ATOM     20  C   UNL     1       7.346   5.100  12.233  0.00  0.00    +0.000 C 
BRANCH  20  21
ATOM     21  C   UNL     1       6.832   3.746  11.841  0.00  0.00    +0.000 A 
ATOM     22  C   UNL     1       7.701   2.739  11.439  0.00  0.00    +0.000 A 
ATOM     23  C   UNL     1       7.171   1.497  11.107  0.00  0.00    +0.000 A 
ATOM     24  C   UNL     1       5.799   1.298  11.188  0.00  0.00    +0.000 A 
ATOM     25  C   UNL     1       5.007   2.354  11.606  0.00  0.00    +0.000 A 
ATOM     26  N   UNL     1       5.494   3.570  11.938  0.00  0.00    +0.000 NA
ENDBRANCH  20  21
ENDBRANCH  19  20
ENDBRANCH  16  19
ENDBRANCH   1  17
TORSDOF 5
ENDMDL
MODEL 6
REMARK VINA RESULT:      -8.2      0.759      1.069
REMARK  Name = 
REMARK  5 active torsions:
REMARK  status: ('A' for Active; 'I' for Inactive)
REMARK    1  A    between atoms: C_2  and  C_3
REMARK    2  A    between atoms: C_3  and  C_4
REMARK    3  A    between atoms: C_4  and  C_5
REMARK    4  A    between atoms: N_11  and  C_12
REMARK    5  A    between atoms: C_14  and  C_15
REMARK                            x       y       z     vdW  Elec       q    Type
REMARK                         _______ _______ _______ _____ _____    ______ ____
ROOT
ATOM      1  C   UNL     1       5.826   6.745  16.872  0.00  0.00    +0.000 A 
ATOM      2  C   UNL     1       4.936   6.132  17.718  0.00  0.00    +0.000 A 
ATOM      3  C   UNL     1       4.607   4.888  17.111  0.00  0.00    +0.000 A 
ATOM      4  N   UNL     1       5.262   4.746  15.948  0.00  0.00    +0.000 NA
ATOM      5  N   UNL     1       5.959   5.884  15.815  0.00  0.00    +0.000 N 
ATOM      6  H   UNL     1       6.507   6.002  14.970  0.00  0.00    +0.000 HD
ENDROOT
BRANCH   3   7
ATOM      7  C   UNL     1       3.721   3.851  17.627  0.00  0.00    +0.000 A 
ATOM      8  C   UNL     1       4.215   2.563  17.895  0.00  0.00    +0.000 A 
ATOM      9  C   UNL     1       3.378   1.568  18.407  0.00  0.00    +0.000 A 
ATOM     10  C   UNL     1       2.034   1.846  18.649  0.00  0.00    +0.000 A 
ATOM     11  C   UNL     1       1.540   3.117  18.383  0.00  0.00    +0.000 A 
ATOM     12  F   UNL     1       0.246   3.380  18.616  0.00  0.00    +0.000 F 
ATOM     13  C   UNL     1       2.369   4.114  17.878  0.00  0.00    +0.000 A 
ATOM     14  F   UNL     1       1.847   5.325  17.625  0.00  0.00    +0.000 F 
ENDBRANCH   3   7
BRANCH   1  17
ATOM     15  O   UNL     1       8.188   7.213  18.377  0.00  0.00    +0.000 OA
ATOM     16  C   UNL     1       7.652   8.158  17.817  0.00  0.00    +0.000 C 
ATOM     17  N   UNL     1       6.479   7.965  17.003  0.00  0.00    +0.000 N 
ATOM     18  H   UNL     1       6.100   8.744  16.484  0.00  0.00    +0.000 HD
BRANCH  16  19
ATOM     19  C   UNL     1       8.218   9.552  17.885  0.00  0.00    +0.000 C 
BRANCH  19  20
ATOM     20  C   UNL     1       9.121   9.780  19.085  0.00  0.00    +0.000 C 
BRANCH  20  21
ATOM     21  C   UNL     1       9.906  11.049  18.926  0.00  0.00    +0.000 A 
ATOM     22  C   UNL     1      10.646  11.295  17.776  0.00  0.00    +0.000 A 
ATOM     23  C   UNL     1      11.337  12.498  17.675  0.00  0.00    +0.000 A 
ATOM     24  C   UNL     1      11.265  13.414  18.716  0.00  0.00    +0.000 A 
ATOM     25  C   UNL     1      10.498  13.092  19.822  0.00  0.00    +0.000 A 
ATOM     26  N   UNL     1       9.813  11.933  19.947  0.00  0.00    +0.000 NA
ENDBRANCH  20  21
ENDBRANCH  19  20
ENDBRANCH  16  19
ENDBRANCH   1  17
TORSDOF 5
ENDMDL
MODEL 7
REMARK VINA RESULT:      -8.2      1.413      1.879
REMARK  Name = 
REMARK  5 active torsions:
REMARK  status: ('A' for Active; 'I' for Inactive)
REMARK    1  A    between atoms: C_2  and  C_3
REMARK    2  A    between atoms: C_3  and  C_4
REMARK    3  A    between atoms: C_4  and  C_5
REMARK    4  A    between atoms: N_11  and  C_12
REMARK    5  A    between atoms: C_14  and  C_15
REMARK                            x       y       z     vdW  Elec       q    Type
REMARK                         _______ _______ _______ _____ _____    ______ ____
ROOT
ATOM      1  C   UNL     1       5.890   6.898  16.804  0.00  0.00    +0.000 A 
ATOM      2  C   UNL     1       4.919   6.411  17.644  0.00  0.00    +0.000 A 
ATOM      3  C   UNL     1       4.473   5.191  17.065  0.00  0.00    +0.000 A 
ATOM      4  N   UNL     1       5.136   4.942  15.925  0.00  0.00    +0.000 NA
ATOM      5  N   UNL     1       5.954   5.994  15.777  0.00  0.00    +0.000 N 
ATOM      6  H   UNL     1       6.531   6.025  14.944  0.00  0.00    +0.000 HD
ENDROOT
BRANCH   3   7
ATOM      7  C   UNL     1       3.468   4.272  17.588  0.00  0.00    +0.000 A 
ATOM      8  C   UNL     1       2.144   4.702  17.781  0.00  0.00    +0.000 A 
ATOM      9  C   UNL     1       1.170   3.823  18.264  0.00  0.00    +0.000 A 
ATOM     10  C   UNL     1       1.511   2.507  18.569  0.00  0.00    +0.000 A 
ATOM     11  C   UNL     1       2.820   2.078  18.384  0.00  0.00    +0.000 A 
ATOM     12  F   UNL     1       3.143   0.812  18.680  0.00  0.00    +0.000 F 
ATOM     13  C   UNL     1       3.793   2.946  17.898  0.00  0.00    +0.000 A 
ATOM     14  F   UNL     1       5.048   2.493  17.745  0.00  0.00    +0.000 F 
ENDBRANCH   3   7
BRANCH   1  17
ATOM     15  O   UNL     1       8.160   7.211  18.482  0.00  0.00    +0.000 OA
ATOM     16  C   UNL     1       7.785   8.166  17.819  0.00  0.00    +0.000 C 
ATOM     17  N   UNL     1       6.668   8.045  16.917  0.00  0.00    +0.000 N 
ATOM     18  H   UNL     1       6.425   8.821  16.318  0.00  0.00    +0.000 HD
BRANCH  16  19
ATOM     19  C   UNL     1       8.501   9.490  17.849  0.00  0.00    +0.000 C 
BRANCH  19  20
ATOM     20  C   UNL     1       9.024   9.863  19.226  0.00  0.00    +0.000 C 
BRANCH  20  21
ATOM     21  C   UNL     1      10.053  10.950  19.127  0.00  0.00    +0.000 A 
ATOM     22  C   UNL     1      10.506  11.398  17.892  0.00  0.00    +0.000 A 
ATOM     23  C   UNL     1      11.445  12.423  17.860  0.00  0.00    +0.000 A 
ATOM     24  C   UNL     1      11.898  12.969  19.055  0.00  0.00    +0.000 A 
ATOM     25  C   UNL     1      11.388  12.469  20.240  0.00  0.00    +0.000 A 
ATOM     26  N   UNL     1      10.473  11.476  20.302  0.00  0.00    +0.000 NA
ENDBRANCH  20  21
ENDBRANCH  19  20
ENDBRANCH  16  19
ENDBRANCH   1  17
TORSDOF 5
ENDMDL
MODEL 8
REMARK VINA RESULT:      -8.0      1.704      1.933
REMARK  Name = 
REMARK  5 active torsions:
REMARK  status: ('A' for Active; 'I' for Inactive)
REMARK    1  A    between atoms: C_2  and  C_3
REMARK    2  A    between atoms: C_3  and  C_4
REMARK    3  A    between atoms: C_4  and  C_5
REMARK    4  A    between atoms: N_11  and  C_12
REMARK    5  A    between atoms: C_14  and  C_15
REMARK                            x       y       z     vdW  Elec       q    Type
REMARK                         _______ _______ _______ _____ _____    ______ ____
ROOT
ATOM      1  C   UNL     1       6.652   6.637  17.131  0.00  0.00    +0.000 A 
ATOM      2  C   UNL     1       5.464   6.234  17.691  0.00  0.00    +0.000 A 
ATOM      3  C   UNL     1       5.390   4.828  17.488  0.00  0.00    +0.000 A 
ATOM      4  N   UNL     1       6.478   4.390  16.834  0.00  0.00    +0.000 NA
ATOM      5  N   UNL     1       7.200   5.496  16.606  0.00  0.00    +0.000 N 
ATOM      6  H   UNL     1       8.062   5.394  16.083  0.00  0.00    +0.000 HD
ENDROOT
BRANCH   3   7
ATOM      7  C   UNL     1       4.335   3.919  17.922  0.00  0.00    +0.000 A 
ATOM      8  C   UNL     1       3.350   3.490  17.017  0.00  0.00    +0.000 A 
ATOM      9  C   UNL     1       2.346   2.605  17.420  0.00  0.00    +0.000 A 
ATOM     10  C   UNL     1       2.310   2.145  18.735  0.00  0.00    +0.000 A 
ATOM     11  C   UNL     1       3.279   2.570  19.635  0.00  0.00    +0.000 A 
ATOM     12  F   UNL     1       3.240   2.127  20.899  0.00  0.00    +0.000 F 
ATOM     13  C   UNL     1       4.285   3.447  19.240  0.00  0.00    +0.000 A 
ATOM     14  F   UNL     1       5.195   3.840  20.145  0.00  0.00    +0.000 F 
ENDBRANCH   3   7
BRANCH   1  17
ATOM     15  O   UNL     1       8.613   7.653  18.915  0.00  0.00    +0.000 OA
ATOM     16  C   UNL     1       8.184   8.385  18.037  0.00  0.00    +0.000 C 
ATOM     17  N   UNL     1       7.223   7.903  17.078  0.00  0.00    +0.000 N 
ATOM     18  H   UNL     1       6.942   8.498  16.312  0.00  0.00    +0.000 HD
BRANCH  16  19
ATOM     19  C   UNL     1       8.678   9.797  17.861  0.00  0.00    +0.000 C 
BRANCH  19  20
ATOM     20  C   UNL     1       9.236  10.405  19.137  0.00  0.00    +0.000 C 
BRANCH  20  21
ATOM     21  C   UNL     1       9.561  11.856  18.936  0.00  0.00    +0.000 A 
ATOM     22  C   UNL     1      10.072  12.315  17.729  0.00  0.00    +0.000 A 
ATOM     23  C   UNL     1      10.335  13.674  17.592  0.00  0.00    +0.000 A 
ATOM     24  C   UNL     1      10.077  14.529  18.656  0.00  0.00    +0.000 A 
ATOM     25  C   UNL     1       9.559  13.988  19.821  0.00  0.00    +0.000 A 
ATOM     26  N   UNL     1       9.291  12.673  19.982  0.00  0.00    +0.000 NA
ENDBRANCH  20  21
ENDBRANCH  19  20
ENDBRANCH  16  19
ENDBRANCH   1  17
TORSDOF 5
ENDMDL
MODEL 9
REMARK VINA RESULT:      -8.0      1.629      1.997
REMARK  Name = 
REMARK  5 active torsions:
REMARK  status: ('A' for Active; 'I' for Inactive)
REMARK    1  A    between atoms: C_2  and  C_3
REMARK    2  A    between atoms: C_3  and  C_4
REMARK    3  A    between atoms: C_4  and  C_5
REMARK    4  A    between atoms: N_11  and  C_12
REMARK    5  A    between atoms: C_14  and  C_15
REMARK                            x       y       z     vdW  Elec       q    Type
REMARK                         _______ _______ _______ _____ _____    ______ ____
ROOT
ATOM      1  C   UNL     1       5.896   5.778  18.047  0.00  0.00    +0.000 A 
ATOM      2  C   UNL     1       4.576   5.718  18.421  0.00  0.00    +0.000 A 
ATOM      3  C   UNL     1       4.360   4.396  18.898  0.00  0.00    +0.000 A 
ATOM      4  N   UNL     1       5.493   3.678  18.820  0.00  0.00    +0.000 NA
ATOM      5  N   UNL     1       6.385   4.519  18.278  0.00  0.00    +0.000 N 
ATOM      6  H   UNL     1       7.316   4.161  18.096  0.00  0.00    +0.000 HD
ENDROOT
BRANCH   3   7
ATOM      7  C   UNL     1       3.128   3.833  19.439  0.00  0.00    +0.000 A 
ATOM      8  C   UNL     1       2.789   4.033  20.788  0.00  0.00    +0.000 A 
ATOM      9  C   UNL     1       1.601   3.513  21.310  0.00  0.00    +0.000 A 
ATOM     10  C   UNL     1       0.743   2.780  20.492  0.00  0.00    +0.000 A 
ATOM     11  C   UNL     1       1.076   2.577  19.159  0.00  0.00    +0.000 A 
ATOM     12  F   UNL     1       0.249   1.871  18.376  0.00  0.00    +0.000 F 
ATOM     13  C   UNL     1       2.254   3.096  18.631  0.00  0.00    +0.000 A 
ATOM     14  F   UNL     1       2.542   2.867  17.339  0.00  0.00    +0.000 F 
ENDBRANCH   3   7
BRANCH   1  17
ATOM     15  O   UNL     1       8.347   6.759  19.093  0.00  0.00    +0.000 OA
ATOM     16  C   UNL     1       7.845   7.332  18.138  0.00  0.00    +0.000 C 
ATOM     17  N   UNL     1       6.628   6.845  17.541  0.00  0.00    +0.000 N 
ATOM     18  H   UNL     1       6.274   7.285  16.703  0.00  0.00    +0.000 HD
BRANCH  16  19
ATOM     19  C   UNL     1       8.498   8.525  17.490  0.00  0.00    +0.000 C 
BRANCH  19  20
ATOM     20  C   UNL     1       7.895   9.851  17.920  0.00  0.00    +0.000 C 
BRANCH  20  21
ATOM     21  C   UNL     1       8.956  10.772  18.446  0.00  0.00    +0.000 A 
ATOM     22  C   UNL     1       9.654  10.471  19.609  0.00  0.00    +0.000 A 
ATOM     23  C   UNL     1      10.641  11.351  20.039  0.00  0.00    +0.000 A 
ATOM     24  C   UNL     1      10.904  12.496  19.297  0.00  0.00    +0.000 A 
ATOM     25  C   UNL     1      10.167  12.714  18.146  0.00  0.00    +0.000 A 
ATOM     26  N   UNL     1       9.204  11.876  17.702  0.00  0.00    +0.000 NA
ENDBRANCH  20  21
ENDBRANCH  19  20
ENDBRANCH  16  19
ENDBRANCH   1  17
TORSDOF 5
ENDMDL
