MODEL 1
REMARK VINA RESULT:      -8.8      0.000      0.000
REMARK  Name = 
REMARK  5 active torsions:
REMARK  status: ('A' for Active; 'I' for Inactive)
REMARK    1  A    between atoms: C_1  and  C_2
REMARK    2  A    between atoms: C_5  and  S_6
REMARK    3  A    between atoms: S_6  and  C_9
REMARK    4  A    between atoms: C_12  and  C_13
REMARK    5  A    between atoms: C_13  and  N_14
REMARK                            x       y       z     vdW  Elec       q    Type
REMARK                         _______ _______ _______ _____ _____    ______ ____
ROOT
ATOM      1  C   UNL     1       1.416   9.262  19.475  0.00  0.00    +0.000 A 
ATOM      2  C   UNL     1       1.238   8.481  20.619  0.00  0.00    +0.000 A 
ATOM      3  C   UNL     1       1.709   7.165  20.633  0.00  0.00    +0.000 A 
ATOM      4  C   UNL     1       2.351   6.624  19.508  0.00  0.00    +0.000 A 
ATOM      5  C   UNL     1       2.492   7.414  18.357  0.00  0.00    +0.000 A 
ATOM      6  C   UNL     1       2.032   8.733  18.339  0.00  0.00    +0.000 A 
ENDROOT
BRANCH   1   7
ATOM      7  S   UNL     1       0.835  10.943  19.473  0.00  0.00    +0.000 S 
ATOM      8  O   UNL     1       1.669  11.663  18.526  0.00  0.00    +0.000 OA
ATOM      9  O   UNL     1       0.736  11.382  20.852  0.00  0.00    +0.000 OA
BRANCH   7  14
ATOM     10  C   UNL     1      -4.812  11.046  17.230  0.00  0.00    +0.000 C 
ATOM     11  C   UNL     1      -3.422  10.988  17.794  0.00  0.00    +0.000 A 
ATOM     12  C   UNL     1      -2.470  10.102  17.271  0.00  0.00    +0.000 A 
ATOM     13  C   UNL     1      -1.172  10.069  17.788  0.00  0.00    +0.000 A 
ATOM     14  C   UNL     1      -0.828  10.927  18.836  0.00  0.00    +0.000 A 
ATOM     15  C   UNL     1      -1.765  11.814  19.369  0.00  0.00    +0.000 A 
ATOM     16  C   UNL     1      -3.061  11.838  18.848  0.00  0.00    +0.000 A 
ENDBRANCH   7  14
ENDBRANCH   1   7
BRANCH   4  17
ATOM     17  C   UNL     1       2.860   5.201  19.523  0.00  0.00    +0.000 C 
BRANCH  17  18
ATOM     18  N   UNL     1       3.873   4.957  18.526  0.00  0.00    +0.000 N 
ATOM     19  N   UNL     1       3.585   4.595  17.220  0.00  0.00    +0.000 NA
ATOM     20  C   UNL     1       4.754   4.534  16.660  0.00  0.00    +0.000 A 
ATOM     21  C   UNL     1       5.068   4.189  15.256  0.00  0.00    +0.000 A 
ATOM     22  C   UNL     1       6.358   4.207  14.878  0.00  0.00    +0.000 A 
ATOM     23  C   UNL     1       7.414   4.563  15.811  0.00  0.00    +0.000 A 
ATOM     24  C   UNL     1       7.110   4.860  17.083  0.00  0.00    +0.000 A 
ATOM     25  N   UNL     1       5.800   4.832  17.475  0.00  0.00    +0.000 N 
ATOM     26  C   UNL     1       5.256   5.107  18.708  0.00  0.00    +0.000 A 
ATOM     27  O   UNL     1       5.836   5.433  19.733  0.00  0.00    +0.000 OA
ENDBRANCH  17  18
ENDBRANCH   4  17
TORSDOF 4
ENDMDL
MODEL 2
REMARK VINA RESULT:      -8.6      1.091      1.513
REMARK  Name = 
REMARK  5 active torsions:
REMARK  status: ('A' for Active; 'I' for Inactive)
REMARK    1  A    between atoms: C_1  and  C_2
REMARK    2  A    between atoms: C_5  and  S_6
REMARK    3  A    between atoms: S_6  and  C_9
REMARK    4  A    between atoms: C_12  and  C_13
REMARK    5  A    between atoms: C_13  and  N_14
REMARK                            x       y       z     vdW  Elec       q    Type
REMARK                         _______ _______ _______ _____ _____    ______ ____
ROOT
ATOM      1  C   UNL     1       1.143   9.579  19.670  0.00  0.00    +0.000 A 
ATOM      2  C   UNL     1       0.937   8.854  20.846  0.00  0.00    +0.000 A 
ATOM      3  C   UNL     1       1.424   7.548  20.943  0.00  0.00    +0.000 A 
ATOM      4  C   UNL     1       2.110   6.959  19.868  0.00  0.00    +0.000 A 
ATOM      5  C   UNL     1       2.280   7.692  18.683  0.00  0.00    +0.000 A 
ATOM      6  C   UNL     1       1.804   9.002  18.583  0.00  0.00    +0.000 A 
ENDROOT
BRANCH   1   7
ATOM      7  S   UNL     1       0.541  11.248  19.563  0.00  0.00    +0.000 S 
ATOM      8  O   UNL     1       1.340  11.908  18.544  0.00  0.00    +0.000 OA
ATOM      9  O   UNL     1       0.473  11.785  20.909  0.00  0.00    +0.000 OA
BRANCH   7  14
ATOM     10  C   UNL     1      -5.168  11.132  17.482  0.00  0.00    +0.000 C 
ATOM     11  C   UNL     1      -3.761  11.128  18.007  0.00  0.00    +0.000 A 
ATOM     12  C   UNL     1      -2.800  10.252  17.484  0.00  0.00    +0.000 A 
ATOM     13  C   UNL     1      -1.488  10.269  17.964  0.00  0.00    +0.000 A 
ATOM     14  C   UNL     1      -1.138  11.169  18.975  0.00  0.00    +0.000 A 
ATOM     15  C   UNL     1      -2.084  12.047  19.507  0.00  0.00    +0.000 A 
ATOM     16  C   UNL     1      -3.394  12.021  19.023  0.00  0.00    +0.000 A 
ENDBRANCH   7  14
ENDBRANCH   1   7
BRANCH   4  17
ATOM     17  C   UNL     1       2.636   5.546  19.973  0.00  0.00    +0.000 C 
BRANCH  17  18
ATOM     18  N   UNL     1       3.684   5.267  19.024  0.00  0.00    +0.000 N 
ATOM     19  N   UNL     1       5.023   5.531  19.266  0.00  0.00    +0.000 NA
ATOM     20  C   UNL     1       5.616   5.083  18.202  0.00  0.00    +0.000 A 
ATOM     21  C   UNL     1       7.064   5.098  17.899  0.00  0.00    +0.000 A 
ATOM     22  C   UNL     1       7.468   4.559  16.736  0.00  0.00    +0.000 A 
ATOM     23  C   UNL     1       6.520   3.970  15.806  0.00  0.00    +0.000 A 
ATOM     24  C   UNL     1       5.209   3.979  16.093  0.00  0.00    +0.000 A 
ATOM     25  N   UNL     1       4.792   4.536  17.270  0.00  0.00    +0.000 N 
ATOM     26  C   UNL     1       3.518   4.647  17.776  0.00  0.00    +0.000 A 
ATOM     27  O   UNL     1       2.471   4.272  17.270  0.00  0.00    +0.000 OA
ENDBRANCH  17  18
ENDBRANCH   4  17
TORSDOF 4
ENDMDL
MODEL 3
REMARK VINA RESULT:      -8.5      1.112      2.025
REMARK  Name = 
REMARK  5 active torsions:
REMARK  status: ('A' for Active; 'I' for Inactive)
REMARK    1  A    between atoms: C_1  and  C_2
REMARK    2  A    between atoms: C_5  and  S_6
REMARK    3  A    between atoms: S_6  and  C_9
REMARK    4  A    between atoms: C_12  and  C_13
REMARK    5  A    between atoms: C_13  and  N_14
REMARK                            x       y       z     vdW  Elec       q    Type
REMARK                         _______ _______ _______ _____ _____    ______ ____
ROOT
ATOM      1  C   UNL     1       1.149   9.662  19.659  0.00  0.00    +0.000 A 
ATOM      2  C   UNL     1       1.789   9.077  18.564  0.00  0.00    +0.000 A 
ATOM      3  C   UNL     1       2.237   7.756  18.656  0.00  0.00    +0.000 A 
ATOM      4  C   UNL     1       2.056   7.020  19.838  0.00  0.00    +0.000 A 
ATOM      5  C   UNL     1       1.440   7.637  20.938  0.00  0.00    +0.000 A 
ATOM      6  C   UNL     1       0.981   8.953  20.850  0.00  0.00    +0.000 A 
ENDROOT
BRANCH   1   7
ATOM      7  S   UNL     1       0.561  11.336  19.527  0.00  0.00    +0.000 S 
ATOM      8  O   UNL     1       1.365  11.972  18.497  0.00  0.00    +0.000 OA
ATOM      9  O   UNL     1       0.500  11.894  20.865  0.00  0.00    +0.000 OA
BRANCH   7  14
ATOM     10  C   UNL     1      -5.192  10.931  17.612  0.00  0.00    +0.000 C 
ATOM     11  C   UNL     1      -3.769  11.063  18.072  0.00  0.00    +0.000 A 
ATOM     12  C   UNL     1      -3.406  12.029  19.021  0.00  0.00    +0.000 A 
ATOM     13  C   UNL     1      -2.083  12.131  19.459  0.00  0.00    +0.000 A 
ATOM     14  C   UNL     1      -1.119  11.262  18.942  0.00  0.00    +0.000 A 
ATOM     15  C   UNL     1      -1.464  10.295  17.995  0.00  0.00    +0.000 A 
ATOM     16  C   UNL     1      -2.788  10.202  17.561  0.00  0.00    +0.000 A 
ENDBRANCH   7  14
ENDBRANCH   1   7
BRANCH   4  17
ATOM     17  C   UNL     1       2.541   5.592  19.937  0.00  0.00    +0.000 C 
BRANCH  17  18
ATOM     18  N   UNL     1       3.619   5.302  19.025  0.00  0.00    +0.000 N 
ATOM     19  N   UNL     1       4.950   5.559  19.311  0.00  0.00    +0.000 NA
ATOM     20  C   UNL     1       5.576   5.103  18.269  0.00  0.00    +0.000 A 
ATOM     21  C   UNL     1       7.033   5.108  18.014  0.00  0.00    +0.000 A 
ATOM     22  C   UNL     1       7.472   4.560  16.869  0.00  0.00    +0.000 A 
ATOM     23  C   UNL     1       6.552   3.971  15.911  0.00  0.00    +0.000 A 
ATOM     24  C   UNL     1       5.233   3.989  16.154  0.00  0.00    +0.000 A 
ATOM     25  N   UNL     1       4.780   4.555  17.313  0.00  0.00    +0.000 N 
ATOM     26  C   UNL     1       3.491   4.676  17.776  0.00  0.00    +0.000 A 
ATOM     27  O   UNL     1       2.458   4.305  17.237  0.00  0.00    +0.000 OA
ENDBRANCH  17  18
ENDBRANCH   4  17
TORSDOF 4
ENDMDL
MODEL 4
REMARK VINA RESULT:      -8.2      3.103      8.755
REMARK  Name = 
REMARK  5 active torsions:
REMARK  status: ('A' for Active; 'I' for Inactive)
REMARK    1  A    between atoms: C_1  and  C_2
REMARK    2  A    between atoms: C_5  and  S_6
REMARK    3  A    between atoms: S_6  and  C_9
REMARK    4  A    between atoms: C_12  and  C_13
REMARK    5  A    between atoms: C_13  and  N_14
REMARK                            x       y       z     vdW  Elec       q    Type
REMARK                         _______ _______ _______ _____ _____    ______ ____
ROOT
ATOM      1  C   UNL     1       2.459   6.355  19.233  0.00  0.00    +0.000 A 
ATOM      2  C   UNL     1       1.894   6.754  20.447  0.00  0.00    +0.000 A 
ATOM      3  C   UNL     1       1.387   8.050  20.576  0.00  0.00    +0.000 A 
ATOM      4  C   UNL     1       1.448   8.951  19.502  0.00  0.00    +0.000 A 
ATOM      5  C   UNL     1       2.048   8.542  18.300  0.00  0.00    +0.000 A 
ATOM      6  C   UNL     1       2.548   7.245  18.161  0.00  0.00    +0.000 A 
ENDROOT
BRANCH   1   7
ATOM      7  S   UNL     1       3.080   4.697  19.069  0.00  0.00    +0.000 S 
ATOM      8  O   UNL     1       1.976   3.892  18.575  0.00  0.00    +0.000 OA
ATOM      9  O   UNL     1       3.751   4.347  20.308  0.00  0.00    +0.000 OA
BRANCH   7  14
ATOM     10  C   UNL     1       7.283   4.897  14.684  0.00  0.00    +0.000 C 
ATOM     11  C   UNL     1       6.267   4.831  15.788  0.00  0.00    +0.000 A 
ATOM     12  C   UNL     1       6.493   5.474  17.013  0.00  0.00    +0.000 A 
ATOM     13  C   UNL     1       5.533   5.424  18.028  0.00  0.00    +0.000 A 
ATOM     14  C   UNL     1       4.342   4.726  17.813  0.00  0.00    +0.000 A 
ATOM     15  C   UNL     1       4.103   4.079  16.599  0.00  0.00    +0.000 A 
ATOM     16  C   UNL     1       5.068   4.131  15.591  0.00  0.00    +0.000 A 
ENDBRANCH   7  14
ENDBRANCH   1   7
BRANCH   4  17
ATOM     17  C   UNL     1       0.901  10.353  19.642  0.00  0.00    +0.000 C 
BRANCH  17  18
ATOM     18  N   UNL     1      -0.332  10.548  18.920  0.00  0.00    +0.000 N 
ATOM     19  N   UNL     1      -0.610   9.938  17.707  0.00  0.00    +0.000 NA
ATOM     20  C   UNL     1      -1.820  10.329  17.443  0.00  0.00    +0.000 A 
ATOM     21  C   UNL     1      -2.643   9.990  16.263  0.00  0.00    +0.000 A 
ATOM     22  C   UNL     1      -3.888  10.493  16.199  0.00  0.00    +0.000 A 
ATOM     23  C   UNL     1      -4.417  11.335  17.258  0.00  0.00    +0.000 A 
ATOM     24  C   UNL     1      -3.650  11.643  18.314  0.00  0.00    +0.000 A 
ATOM     25  N   UNL     1      -2.379  11.143  18.378  0.00  0.00    +0.000 N 
ATOM     26  C   UNL     1      -1.427  11.310  19.356  0.00  0.00    +0.000 A 
ATOM     27  O   UNL     1      -1.512  11.958  20.388  0.00  0.00    +0.000 OA
ENDBRANCH  17  18
ENDBRANCH   4  17
TORSDOF 4
ENDMDL
MODEL 5
REMARK VINA RESULT:      -8.1      3.352      9.015
REMARK  Name = 
REMARK  5 active torsions:
REMARK  status: ('A' for Active; 'I' for Inactive)
REMARK    1  A    between atoms: C_1  and  C_2
REMARK    2  A    between atoms: C_5  and  S_6
REMARK    3  A    between atoms: S_6  and  C_9
REMARK    4  A    between atoms: C_12  and  C_13
REMARK    5  A    between atoms: C_13  and  N_14
REMARK                            x       y       z     vdW  Elec       q    Type
REMARK                         _______ _______ _______ _____ _____    ______ ____
ROOT
ATOM      1  C   UNL     1       2.216   7.154  18.997  0.00  0.00    +0.000 A 
ATOM      2  C   UNL     1       2.242   7.878  17.803  0.00  0.00    +0.000 A 
ATOM      3  C   UNL     1       1.798   9.203  17.793  0.00  0.00    +0.000 A 
ATOM      4  C   UNL     1       1.322   9.806  18.968  0.00  0.00    +0.000 A 
ATOM      5  C   UNL     1       1.275   9.052  20.151  0.00  0.00    +0.000 A 
ATOM      6  C   UNL     1       1.726   7.730  20.170  0.00  0.00    +0.000 A 
ENDROOT
BRANCH   1   7
ATOM      7  S   UNL     1       2.805   5.475  19.006  0.00  0.00    +0.000 S 
ATOM      8  O   UNL     1       1.665   4.641  18.664  0.00  0.00    +0.000 OA
ATOM      9  O   UNL     1       3.529   5.263  20.244  0.00  0.00    +0.000 OA
BRANCH   7  14
ATOM     10  C   UNL     1       7.021   4.957  14.660  0.00  0.00    +0.000 C 
ATOM     11  C   UNL     1       5.954   5.083  15.710  0.00  0.00    +0.000 A 
ATOM     12  C   UNL     1       5.033   4.050  15.927  0.00  0.00    +0.000 A 
ATOM     13  C   UNL     1       4.057   4.167  16.920  0.00  0.00    +0.000 A 
ATOM     14  C   UNL     1       4.003   5.327  17.698  0.00  0.00    +0.000 A 
ATOM     15  C   UNL     1       4.913   6.366  17.492  0.00  0.00    +0.000 A 
ATOM     16  C   UNL     1       5.884   6.242  16.496  0.00  0.00    +0.000 A 
ENDBRANCH   7  14
ENDBRANCH   1   7
BRANCH   4  17
ATOM     17  C   UNL     1       0.842  11.239  18.958  0.00  0.00    +0.000 C 
BRANCH  17  18
ATOM     18  N   UNL     1      -0.590  11.349  18.836  0.00  0.00    +0.000 N 
ATOM     19  N   UNL     1      -1.342  10.583  17.959  0.00  0.00    +0.000 NA
ATOM     20  C   UNL     1      -2.562  10.951  18.208  0.00  0.00    +0.000 A 
ATOM     21  C   UNL     1      -3.802  10.464  17.566  0.00  0.00    +0.000 A 
ATOM     22  C   UNL     1      -4.972  10.969  17.995  0.00  0.00    +0.000 A 
ATOM     23  C   UNL     1      -5.024  11.955  19.060  0.00  0.00    +0.000 A 
ATOM     24  C   UNL     1      -3.887  12.394  19.621  0.00  0.00    +0.000 A 
ATOM     25  N   UNL     1      -2.694  11.891  19.181  0.00  0.00    +0.000 N 
ATOM     26  C   UNL     1      -1.419  12.178  19.608  0.00  0.00    +0.000 A 
ATOM     27  O   UNL     1      -1.074  12.962  20.480  0.00  0.00    +0.000 OA
ENDBRANCH  17  18
ENDBRANCH   4  17
TORSDOF 4
ENDMDL
MODEL 6
REMARK VINA RESULT:      -8.1      3.117      8.740
REMARK  Name = 
REMARK  5 active torsions:
REMARK  status: ('A' for Active; 'I' for Inactive)
REMARK    1  A    between atoms: C_1  and  C_2
REMARK    2  A    between atoms: C_5  and  S_6
REMARK    3  A    between atoms: S_6  and  C_9
REMARK    4  A    between atoms: C_12  and  C_13
REMARK    5  A    between atoms: C_13  and  N_14
REMARK                            x       y       z     vdW  Elec       q    Type
REMARK                         _______ _______ _______ _____ _____    ______ ____
ROOT
ATOM      1  C   UNL     1       2.528   6.622  19.249  0.00  0.00    +0.000 A 
ATOM      2  C   UNL     1       2.566   7.470  18.140  0.00  0.00    +0.000 A 
ATOM      3  C   UNL     1       2.000   8.744  18.228  0.00  0.00    +0.000 A 
ATOM      4  C   UNL     1       1.390   9.174  19.418  0.00  0.00    +0.000 A 
ATOM      5  C   UNL     1       1.334   8.297  20.512  0.00  0.00    +0.000 A 
ATOM      6  C   UNL     1       1.907   7.025  20.433  0.00  0.00    +0.000 A 
ENDROOT
BRANCH   1   7
ATOM      7  S   UNL     1       3.272   5.011  19.135  0.00  0.00    +0.000 S 
ATOM      8  O   UNL     1       2.191   4.081  18.855  0.00  0.00    +0.000 OA
ATOM      9  O   UNL     1       4.120   4.828  20.298  0.00  0.00    +0.000 OA
BRANCH   7  14
ATOM     10  C   UNL     1       7.110   5.009  14.424  0.00  0.00    +0.000 C 
ATOM     11  C   UNL     1       6.136   5.017  15.567  0.00  0.00    +0.000 A 
ATOM     12  C   UNL     1       5.075   4.102  15.615  0.00  0.00    +0.000 A 
ATOM     13  C   UNL     1       4.185   4.103  16.691  0.00  0.00    +0.000 A 
ATOM     14  C   UNL     1       4.359   5.028  17.726  0.00  0.00    +0.000 A 
ATOM     15  C   UNL     1       5.410   5.946  17.692  0.00  0.00    +0.000 A 
ATOM     16  C   UNL     1       6.293   5.940  16.610  0.00  0.00    +0.000 A 
ENDBRANCH   7  14
ENDBRANCH   1   7
BRANCH   4  17
ATOM     17  C   UNL     1       0.777  10.552  19.514  0.00  0.00    +0.000 C 
BRANCH  17  18
ATOM     18  N   UNL     1      -0.455  10.671  18.775  0.00  0.00    +0.000 N 
ATOM     19  N   UNL     1      -0.681  10.038  17.563  0.00  0.00    +0.000 NA
ATOM     20  C   UNL     1      -1.907  10.357  17.280  0.00  0.00    +0.000 A 
ATOM     21  C   UNL     1      -2.693   9.964  16.091  0.00  0.00    +0.000 A 
ATOM     22  C   UNL     1      -3.964  10.393  16.007  0.00  0.00    +0.000 A 
ATOM     23  C   UNL     1      -4.555  11.211  17.052  0.00  0.00    +0.000 A 
ATOM     24  C   UNL     1      -3.822  11.568  18.117  0.00  0.00    +0.000 A 
ATOM     25  N   UNL     1      -2.525  11.143  18.201  0.00  0.00    +0.000 N 
ATOM     26  C   UNL     1      -1.597  11.371  19.190  0.00  0.00    +0.000 A 
ATOM     27  O   UNL     1      -1.734  12.020  20.217  0.00  0.00    +0.000 OA
ENDBRANCH  17  18
ENDBRANCH   4  17
TORSDOF 4
ENDMDL
MODEL 7
REMARK VINA RESULT:      -7.9      3.450      9.088
REMARK  Name = 
REMARK  5 active torsions:
REMARK  status: ('A' for Active; 'I' for Inactive)
REMARK    1  A    between atoms: C_1  and  C_2
REMARK    2  A    between atoms: C_5  and  S_6
REMARK    3  A    between atoms: S_6  and  C_9
REMARK    4  A    between atoms: C_12  and  C_13
REMARK    5  A    between atoms: C_13  and  N_14
REMARK                            x       y       z     vdW  Elec       q    Type
REMARK                         _______ _______ _______ _____ _____    ______ ____
ROOT
ATOM      1  C   UNL     1       2.210   7.076  19.039  0.00  0.00    +0.000 A 
ATOM      2  C   UNL     1       1.722   7.673  20.204  0.00  0.00    +0.000 A 
ATOM      3  C   UNL     1       1.298   9.004  20.169  0.00  0.00    +0.000 A 
ATOM      4  C   UNL     1       1.365   9.744  18.977  0.00  0.00    +0.000 A 
ATOM      5  C   UNL     1       1.887   9.136  17.825  0.00  0.00    +0.000 A 
ATOM      6  C   UNL     1       2.304   7.803  17.851  0.00  0.00    +0.000 A 
ENDROOT
BRANCH   1   7
ATOM      7  S   UNL     1       2.726   5.375  19.086  0.00  0.00    +0.000 S 
ATOM      8  O   UNL     1       1.591   4.590  18.630  0.00  0.00    +0.000 OA
ATOM      9  O   UNL     1       3.321   5.126  20.386  0.00  0.00    +0.000 OA
BRANCH   7  14
ATOM     10  C   UNL     1       7.084   4.761  14.896  0.00  0.00    +0.000 C 
ATOM     11  C   UNL     1       6.031   4.911  15.956  0.00  0.00    +0.000 A 
ATOM     12  C   UNL     1       6.037   6.009  16.826  0.00  0.00    +0.000 A 
ATOM     13  C   UNL     1       5.042   6.151  17.796  0.00  0.00    +0.000 A 
ATOM     14  C   UNL     1       4.036   5.186  17.896  0.00  0.00    +0.000 A 
ATOM     15  C   UNL     1       4.018   4.084  17.038  0.00  0.00    +0.000 A 
ATOM     16  C   UNL     1       5.018   3.949  16.073  0.00  0.00    +0.000 A 
ENDBRANCH   7  14
ENDBRANCH   1   7
BRANCH   4  17
ATOM     17  C   UNL     1       0.906  11.184  18.939  0.00  0.00    +0.000 C 
BRANCH  17  18
ATOM     18  N   UNL     1      -0.529  11.316  18.982  0.00  0.00    +0.000 N 
ATOM     19  N   UNL     1      -1.193  12.123  19.892  0.00  0.00    +0.000 NA
ATOM     20  C   UNL     1      -2.440  11.999  19.551  0.00  0.00    +0.000 A 
ATOM     21  C   UNL     1      -3.617  12.638  20.177  0.00  0.00    +0.000 A 
ATOM     22  C   UNL     1      -4.825  12.385  19.647  0.00  0.00    +0.000 A 
ATOM     23  C   UNL     1      -4.977  11.520  18.490  0.00  0.00    +0.000 A 
ATOM     24  C   UNL     1      -3.898  10.939  17.944  0.00  0.00    +0.000 A 
ATOM     25  N   UNL     1      -2.667  11.184  18.487  0.00  0.00    +0.000 N 
ATOM     26  C   UNL     1      -1.435  10.716  18.095  0.00  0.00    +0.000 A 
ATOM     27  O   UNL     1      -1.175   9.962  17.169  0.00  0.00    +0.000 OA
ENDBRANCH  17  18
ENDBRANCH   4  17
TORSDOF 4
ENDMDL
MODEL 8
REMARK VINA RESULT:      -7.9      3.469      9.214
REMARK  Name = 
REMARK  5 active torsions:
REMARK  status: ('A' for Active; 'I' for Inactive)
REMARK    1  A    between atoms: C_1  and  C_2
REMARK    2  A    between atoms: C_5  and  S_6
REMARK    3  A    between atoms: S_6  and  C_9
REMARK    4  A    between atoms: C_12  and  C_13
REMARK    5  A    between atoms: C_13  and  N_14
REMARK                            x       y       z     vdW  Elec       q    Type
REMARK                         _______ _______ _______ _____ _____    ______ ____
ROOT
ATOM      1  C   UNL     1       1.995   6.903  19.417  0.00  0.00    +0.000 A 
ATOM      2  C   UNL     1       2.197   7.535  18.188  0.00  0.00    +0.000 A 
ATOM      3  C   UNL     1       1.877   8.888  18.049  0.00  0.00    +0.000 A 
ATOM      4  C   UNL     1       1.348   9.612  19.130  0.00  0.00    +0.000 A 
ATOM      5  C   UNL     1       1.122   8.952  20.348  0.00  0.00    +0.000 A 
ATOM      6  C   UNL     1       1.449   7.602  20.496  0.00  0.00    +0.000 A 
ENDROOT
BRANCH   1   7
ATOM      7  S   UNL     1       2.427   5.187  19.592  0.00  0.00    +0.000 S 
ATOM      8  O   UNL     1       1.336   4.428  19.005  0.00  0.00    +0.000 OA
ATOM      9  O   UNL     1       2.823   4.965  20.970  0.00  0.00    +0.000 OA
BRANCH   7  14
ATOM     10  C   UNL     1       7.347   4.353  16.123  0.00  0.00    +0.000 C 
ATOM     11  C   UNL     1       6.144   4.536  17.003  0.00  0.00    +0.000 A 
ATOM     12  C   UNL     1       6.273   5.044  18.302  0.00  0.00    +0.000 A 
ATOM     13  C   UNL     1       5.147   5.230  19.107  0.00  0.00    +0.000 A 
ATOM     14  C   UNL     1       3.883   4.905  18.606  0.00  0.00    +0.000 A 
ATOM     15  C   UNL     1       3.737   4.396  17.314  0.00  0.00    +0.000 A 
ATOM     16  C   UNL     1       4.869   4.210  16.518  0.00  0.00    +0.000 A 
ENDBRANCH   7  14
ENDBRANCH   1   7
BRANCH   4  17
ATOM     17  C   UNL     1       1.000  11.075  18.980  0.00  0.00    +0.000 C 
BRANCH  17  18
ATOM     18  N   UNL     1      -0.413  11.331  19.104  0.00  0.00    +0.000 N 
ATOM     19  N   UNL     1      -0.957  12.144  20.086  0.00  0.00    +0.000 NA
ATOM     20  C   UNL     1      -2.224  12.148  19.806  0.00  0.00    +0.000 A 
ATOM     21  C   UNL     1      -3.307  12.855  20.524  0.00  0.00    +0.000 A 
ATOM     22  C   UNL     1      -4.558  12.738  20.047  0.00  0.00    +0.000 A 
ATOM     23  C   UNL     1      -4.843  11.953  18.858  0.00  0.00    +0.000 A 
ATOM     24  C   UNL     1      -3.849  11.308  18.229  0.00  0.00    +0.000 A 
ATOM     25  N   UNL     1      -2.576  11.415  18.717  0.00  0.00    +0.000 N 
ATOM     26  C   UNL     1      -1.412  10.862  18.238  0.00  0.00    +0.000 A 
ATOM     27  O   UNL     1      -1.266  10.138  17.264  0.00  0.00    +0.000 OA
ENDBRANCH  17  18
ENDBRANCH   4  17
TORSDOF 4
ENDMDL
MODEL 9
REMARK VINA RESULT:      -7.9      2.373      3.546
REMARK  Name = 
REMARK  5 active torsions:
REMARK  status: ('A' for Active; 'I' for Inactive)
REMARK    1  A    between atoms: C_1  and  C_2
REMARK    2  A    between atoms: C_5  and  S_6
REMARK    3  A    between atoms: S_6  and  C_9
REMARK    4  A    between atoms: C_12  and  C_13
REMARK    5  A    between atoms: C_13  and  N_14
REMARK                            x       y       z     vdW  Elec       q    Type
REMARK                         _______ _______ _______ _____ _____    ______ ____
ROOT
ATOM      1  C   UNL     1       1.090   9.119  19.506  0.00  0.00    +0.000 A 
ATOM      2  C   UNL     1       1.829   8.653  18.417  0.00  0.00    +0.000 A 
ATOM      3  C   UNL     1       2.518   7.441  18.520  0.00  0.00    +0.000 A 
ATOM      4  C   UNL     1       2.478   6.696  19.710  0.00  0.00    +0.000 A 
ATOM      5  C   UNL     1       1.755   7.196  20.805  0.00  0.00    +0.000 A 
ATOM      6  C   UNL     1       1.057   8.402  20.704  0.00  0.00    +0.000 A 
ENDROOT
BRANCH   1   7
ATOM      7  S   UNL     1       0.198  10.650  19.358  0.00  0.00    +0.000 S 
ATOM      8  O   UNL     1      -0.653  10.743  20.533  0.00  0.00    +0.000 OA
ATOM      9  O   UNL     1      -0.375  10.705  18.026  0.00  0.00    +0.000 OA
BRANCH   7  14
ATOM     10  C   UNL     1       4.167  15.248  19.539  0.00  0.00    +0.000 C 
ATOM     11  C   UNL     1       3.205  14.094  19.517  0.00  0.00    +0.000 A 
ATOM     12  C   UNL     1       2.496  13.727  20.669  0.00  0.00    +0.000 A 
ATOM     13  C   UNL     1       1.588  12.666  20.635  0.00  0.00    +0.000 A 
ATOM     14  C   UNL     1       1.391  11.968  19.440  0.00  0.00    +0.000 A 
ATOM     15  C   UNL     1       2.090  12.321  18.284  0.00  0.00    +0.000 A 
ATOM     16  C   UNL     1       2.998  13.382  18.328  0.00  0.00    +0.000 A 
ENDBRANCH   7  14
ENDBRANCH   1   7
BRANCH   4  17
ATOM     17  C   UNL     1       3.223   5.386  19.823  0.00  0.00    +0.000 C 
BRANCH  17  18
ATOM     18  N   UNL     1       4.104   5.145  18.708  0.00  0.00    +0.000 N 
ATOM     19  N   UNL     1       3.654   4.836  17.434  0.00  0.00    +0.000 NA
ATOM     20  C   UNL     1       4.748   4.757  16.738  0.00  0.00    +0.000 A 
ATOM     21  C   UNL     1       4.884   4.450  15.299  0.00  0.00    +0.000 A 
ATOM     22  C   UNL     1       6.121   4.441  14.773  0.00  0.00    +0.000 A 
ATOM     23  C   UNL     1       7.290   4.731  15.585  0.00  0.00    +0.000 A 
ATOM     24  C   UNL     1       7.146   4.995  16.892  0.00  0.00    +0.000 A 
ATOM     25  N   UNL     1       5.891   4.995  17.435  0.00  0.00    +0.000 N 
ATOM     26  C   UNL     1       5.503   5.245  18.730  0.00  0.00    +0.000 A 
ATOM     27  O   UNL     1       6.210   5.517  19.689  0.00  0.00    +0.000 OA
ENDBRANCH  17  18
ENDBRANCH   4  17
TORSDOF 4
ENDMDL
