MODEL 1
REMARK VINA RESULT:      -9.1      0.000      0.000
REMARK  Name = 
REMARK  3 active torsions:
REMARK  status: ('A' for Active; 'I' for Inactive)
REMARK    1  A    between atoms: C_7  and  C_8
REMARK    2  A    between atoms: C_11  and  C_12
REMARK    3  A    between atoms: C_21  and  C_22
REMARK                            x       y       z     vdW  Elec       q    Type
REMARK                         _______ _______ _______ _____ _____    ______ ____
ROOT
ATOM      1  O   UNL     1       1.255   7.964  21.207  0.00  0.00    +0.000 OA
ATOM      2  C   UNL     1       1.854   7.713  20.167  0.00  0.00    +0.000 A 
ATOM      3  N   UNL     1       2.689   6.617  20.114  0.00  0.00    +0.000 N 
ATOM      4  C   UNL     1       3.437   6.251  19.026  0.00  0.00    +0.000 A 
ATOM      5  C   UNL     1       3.381   6.993  17.906  0.00  0.00    +0.000 A 
ATOM      6  C   UNL     1       2.526   8.163  17.870  0.00  0.00    +0.000 A 
ATOM      7  C   UNL     1       1.766   8.544  18.918  0.00  0.00    +0.000 A 
ATOM      8  C   UNL     1       4.166   6.662  16.664  0.00  0.00    +0.000 C 
ATOM      9  C   UNL     1       5.270   5.609  16.911  0.00  0.00    +0.000 C 
ATOM     10  C   UNL     1       4.743   4.470  17.798  0.00  0.00    +0.000 C 
ATOM     11  C   UNL     1       4.274   5.007  19.152  0.00  0.00    +0.000 C 
ATOM     12  H   UNL     1       2.725   6.074  20.968  0.00  0.00    +0.000 HD
ENDROOT
BRANCH   9  13
ATOM     13  C   UNL     1       5.856   5.094  15.610  0.00  0.00    +0.000 A 
ATOM     14  C   UNL     1       7.106   5.560  15.175  0.00  0.00    +0.000 A 
ATOM     15  C   UNL     1       7.646   5.120  13.965  0.00  0.00    +0.000 A 
ATOM     16  C   UNL     1       6.947   4.210  13.177  0.00  0.00    +0.000 A 
ATOM     17  C   UNL     1       5.712   3.727  13.602  0.00  0.00    +0.000 A 
ATOM     18  C   UNL     1       5.172   4.162  14.814  0.00  0.00    +0.000 A 
ENDBRANCH   9  13
BRANCH   7  19
ATOM     19  C   UNL     1       0.904   9.684  18.884  0.00  0.00    +0.000 A 
ATOM     20  N   UNL     1       0.975  10.777  19.655  0.00  0.00    +0.000 NA
ATOM     21  O   UNL     1      -0.093  11.557  19.236  0.00  0.00    +0.000 OA
ATOM     22  C   UNL     1      -0.731  10.853  18.257  0.00  0.00    +0.000 A 
ATOM     23  N   UNL     1      -0.171   9.689  18.011  0.00  0.00    +0.000 NA
BRANCH  22  24
ATOM     24  C   UNL     1      -1.925  11.476  17.627  0.00  0.00    +0.000 C 
ATOM     25  C   UNL     1      -3.049  11.737  18.641  0.00  0.00    +0.000 C 
ATOM     26  C   UNL     1      -4.180  10.859  18.099  0.00  0.00    +0.000 C 
ATOM     27  C   UNL     1      -4.779  11.468  16.834  0.00  0.00    +0.000 C 
ATOM     28  C   UNL     1      -3.658  11.246  15.814  0.00  0.00    +0.000 C 
ATOM     29  C   UNL     1      -2.605  10.513  16.648  0.00  0.00    +0.000 C 
ATOM     30  O   UNL     1      -3.456   9.745  17.535  0.00  0.00    +0.000 OA
ENDBRANCH  22  24
ENDBRANCH   7  19
TORSDOF 3
ENDMDL
MODEL 2
REMARK VINA RESULT:      -8.9      0.768      1.200
REMARK  Name = 
REMARK  3 active torsions:
REMARK  status: ('A' for Active; 'I' for Inactive)
REMARK    1  A    between atoms: C_7  and  C_8
REMARK    2  A    between atoms: C_11  and  C_12
REMARK    3  A    between atoms: C_21  and  C_22
REMARK                            x       y       z     vdW  Elec       q    Type
REMARK                         _______ _______ _______ _____ _____    ______ ____
ROOT
ATOM      1  O   UNL     1       0.540   8.415  21.537  0.00  0.00    +0.000 OA
ATOM      2  C   UNL     1       1.220   8.130  20.556  0.00  0.00    +0.000 A 
ATOM      3  N   UNL     1       2.024   7.012  20.592  0.00  0.00    +0.000 N 
ATOM      4  C   UNL     1       2.853   6.607  19.578  0.00  0.00    +0.000 A 
ATOM      5  C   UNL     1       2.915   7.331  18.446  0.00  0.00    +0.000 A 
ATOM      6  C   UNL     1       2.100   8.523  18.320  0.00  0.00    +0.000 A 
ATOM      7  C   UNL     1       1.263   8.942  19.292  0.00  0.00    +0.000 A 
ATOM      8  C   UNL     1       3.795   6.959  17.282  0.00  0.00    +0.000 C 
ATOM      9  C   UNL     1       4.843   5.881  17.640  0.00  0.00    +0.000 C 
ATOM     10  C   UNL     1       4.210   4.771  18.494  0.00  0.00    +0.000 C 
ATOM     11  C   UNL     1       3.641   5.344  19.794  0.00  0.00    +0.000 C 
ATOM     12  H   UNL     1       1.971   6.482  21.453  0.00  0.00    +0.000 HD
ENDROOT
BRANCH   9  13
ATOM     13  C   UNL     1       5.524   5.328  16.401  0.00  0.00    +0.000 A 
ATOM     14  C   UNL     1       4.788   4.568  15.480  0.00  0.00    +0.000 A 
ATOM     15  C   UNL     1       5.405   4.027  14.351  0.00  0.00    +0.000 A 
ATOM     16  C   UNL     1       6.763   4.239  14.127  0.00  0.00    +0.000 A 
ATOM     17  C   UNL     1       7.504   5.004  15.025  0.00  0.00    +0.000 A 
ATOM     18  C   UNL     1       6.887   5.550  16.152  0.00  0.00    +0.000 A 
ENDBRANCH   9  13
BRANCH   7  19
ATOM     19  C   UNL     1       0.440  10.104  19.167  0.00  0.00    +0.000 A 
ATOM     20  N   UNL     1       0.640  11.304  19.728  0.00  0.00    +0.000 NA
ATOM     21  O   UNL     1      -0.446  12.058  19.311  0.00  0.00    +0.000 OA
ATOM     22  C   UNL     1      -1.222  11.238  18.547  0.00  0.00    +0.000 A 
ATOM     23  N   UNL     1      -0.735  10.022  18.437  0.00  0.00    +0.000 NA
BRANCH  22  24
ATOM     24  C   UNL     1      -2.465  11.810  17.965  0.00  0.00    +0.000 C 
ATOM     25  C   UNL     1      -3.574  11.982  19.014  0.00  0.00    +0.000 C 
ATOM     26  C   UNL     1      -4.670  11.057  18.476  0.00  0.00    +0.000 C 
ATOM     27  C   UNL     1      -5.334  11.665  17.244  0.00  0.00    +0.000 C 
ATOM     28  C   UNL     1      -4.231  11.533  16.191  0.00  0.00    +0.000 C 
ATOM     29  C   UNL     1      -3.117  10.838  16.976  0.00  0.00    +0.000 C 
ATOM     30  O   UNL     1      -3.901  10.000  17.863  0.00  0.00    +0.000 OA
ENDBRANCH  22  24
ENDBRANCH   7  19
TORSDOF 3
ENDMDL
MODEL 3
REMARK VINA RESULT:      -8.8      2.324      3.178
REMARK  Name = 
REMARK  3 active torsions:
REMARK  status: ('A' for Active; 'I' for Inactive)
REMARK    1  A    between atoms: C_7  and  C_8
REMARK    2  A    between atoms: C_11  and  C_12
REMARK    3  A    between atoms: C_21  and  C_22
REMARK                            x       y       z     vdW  Elec       q    Type
REMARK                         _______ _______ _______ _____ _____    ______ ____
ROOT
ATOM      1  O   UNL     1       1.946   6.598  20.641  0.00  0.00    +0.000 OA
ATOM      2  C   UNL     1       2.541   6.553  19.570  0.00  0.00    +0.000 A 
ATOM      3  N   UNL     1       3.276   5.432  19.250  0.00  0.00    +0.000 N 
ATOM      4  C   UNL     1       4.010   5.274  18.103  0.00  0.00    +0.000 A 
ATOM      5  C   UNL     1       4.042   6.268  17.197  0.00  0.00    +0.000 A 
ATOM      6  C   UNL     1       3.294   7.484  17.449  0.00  0.00    +0.000 A 
ATOM      7  C   UNL     1       2.550   7.667  18.560  0.00  0.00    +0.000 A 
ATOM      8  C   UNL     1       4.818   6.178  15.910  0.00  0.00    +0.000 C 
ATOM      9  C   UNL     1       5.819   5.001  15.891  0.00  0.00    +0.000 C 
ATOM     10  C   UNL     1       5.177   3.733  16.476  0.00  0.00    +0.000 C 
ATOM     11  C   UNL     1       4.731   3.967  17.921  0.00  0.00    +0.000 C 
ATOM     12  H   UNL     1       3.247   4.697  19.946  0.00  0.00    +0.000 HD
ENDROOT
BRANCH   9  13
ATOM     13  C   UNL     1       6.383   4.766  14.502  0.00  0.00    +0.000 A 
ATOM     14  C   UNL     1       5.781   3.824  13.655  0.00  0.00    +0.000 A 
ATOM     15  C   UNL     1       6.303   3.573  12.385  0.00  0.00    +0.000 A 
ATOM     16  C   UNL     1       7.432   4.261  11.945  0.00  0.00    +0.000 A 
ATOM     17  C   UNL     1       8.032   5.210  12.769  0.00  0.00    +0.000 A 
ATOM     18  C   UNL     1       7.507   5.465  14.037  0.00  0.00    +0.000 A 
ENDBRANCH   9  13
BRANCH   7  19
ATOM     19  C   UNL     1       1.794   8.854  18.807  0.00  0.00    +0.000 A 
ATOM     20  N   UNL     1       1.906  10.032  18.179  0.00  0.00    +0.000 NA
ATOM     21  O   UNL     1       0.969  10.841  18.806  0.00  0.00    +0.000 OA
ATOM     22  C   UNL     1       0.385  10.082  19.777  0.00  0.00    +0.000 A 
ATOM     23  N   UNL     1       0.864   8.858  19.834  0.00  0.00    +0.000 NA
BRANCH  22  24
ATOM     24  C   UNL     1      -0.672  10.719  20.605  0.00  0.00    +0.000 C 
ATOM     25  C   UNL     1      -0.986  12.151  20.149  0.00  0.00    +0.000 C 
ATOM     26  C   UNL     1      -0.606  12.972  21.385  0.00  0.00    +0.000 C 
ATOM     27  C   UNL     1      -1.636  12.785  22.496  0.00  0.00    +0.000 C 
ATOM     28  C   UNL     1      -1.361  11.348  22.945  0.00  0.00    +0.000 C 
ATOM     29  C   UNL     1      -0.192  10.947  22.043  0.00  0.00    +0.000 C 
ATOM     30  O   UNL     1       0.499  12.216  21.924  0.00  0.00    +0.000 OA
ENDBRANCH  22  24
ENDBRANCH   7  19
TORSDOF 3
ENDMDL
MODEL 4
REMARK VINA RESULT:      -8.6      3.365      8.908
REMARK  Name = 
REMARK  3 active torsions:
REMARK  status: ('A' for Active; 'I' for Inactive)
REMARK    1  A    between atoms: C_7  and  C_8
REMARK    2  A    between atoms: C_11  and  C_12
REMARK    3  A    between atoms: C_21  and  C_22
REMARK                            x       y       z     vdW  Elec       q    Type
REMARK                         _______ _______ _______ _____ _____    ______ ____
ROOT
ATOM      1  O   UNL     1       2.342   4.282  20.975  0.00  0.00    +0.000 OA
ATOM      2  C   UNL     1       2.228   5.395  20.473  0.00  0.00    +0.000 A 
ATOM      3  N   UNL     1       1.639   6.408  21.198  0.00  0.00    +0.000 N 
ATOM      4  C   UNL     1       1.424   7.682  20.739  0.00  0.00    +0.000 A 
ATOM      5  C   UNL     1       1.800   8.005  19.489  0.00  0.00    +0.000 A 
ATOM      6  C   UNL     1       2.431   7.002  18.654  0.00  0.00    +0.000 A 
ATOM      7  C   UNL     1       2.671   5.744  19.079  0.00  0.00    +0.000 A 
ATOM      8  C   UNL     1       1.605   9.379  18.905  0.00  0.00    +0.000 C 
ATOM      9  C   UNL     1       0.650  10.260  19.742  0.00  0.00    +0.000 C 
ATOM     10  C   UNL     1       0.950  10.112  21.242  0.00  0.00    +0.000 C 
ATOM     11  C   UNL     1       0.785   8.658  21.689  0.00  0.00    +0.000 C 
ATOM     12  H   UNL     1       1.355   6.145  22.134  0.00  0.00    +0.000 HD
ENDROOT
BRANCH   9  13
ATOM     13  C   UNL     1       0.685  11.709  19.294  0.00  0.00    +0.000 A 
ATOM     14  C   UNL     1       1.859  12.240  18.739  0.00  0.00    +0.000 A 
ATOM     15  C   UNL     1       1.919  13.579  18.349  0.00  0.00    +0.000 A 
ATOM     16  C   UNL     1       0.808  14.404  18.506  0.00  0.00    +0.000 A 
ATOM     17  C   UNL     1      -0.369  13.888  19.042  0.00  0.00    +0.000 A 
ATOM     18  C   UNL     1      -0.432  12.548  19.428  0.00  0.00    +0.000 A 
ENDBRANCH   9  13
BRANCH   7  19
ATOM     19  C   UNL     1       3.311   4.755  18.270  0.00  0.00    +0.000 A 
ATOM     20  N   UNL     1       3.095   3.434  18.282  0.00  0.00    +0.000 NA
ATOM     21  O   UNL     1       3.978   2.937  17.334  0.00  0.00    +0.000 OA
ATOM     22  C   UNL     1       4.668   4.007  16.845  0.00  0.00    +0.000 A 
ATOM     23  N   UNL     1       4.312   5.147  17.395  0.00  0.00    +0.000 NA
BRANCH  22  24
ATOM     24  C   UNL     1       5.690   3.746  15.797  0.00  0.00    +0.000 C 
ATOM     25  C   UNL     1       7.036   4.415  16.116  0.00  0.00    +0.000 C 
ATOM     26  C   UNL     1       7.200   5.384  14.942  0.00  0.00    +0.000 C 
ATOM     27  C   UNL     1       7.543   4.628  13.661  0.00  0.00    +0.000 C 
ATOM     28  C   UNL     1       6.220   3.926  13.342  0.00  0.00    +0.000 C 
ATOM     29  C   UNL     1       5.314   4.418  14.472  0.00  0.00    +0.000 C 
ATOM     30  O   UNL     1       5.833   5.758  14.665  0.00  0.00    +0.000 OA
ENDBRANCH  22  24
ENDBRANCH   7  19
TORSDOF 3
ENDMDL
MODEL 5
REMARK VINA RESULT:      -8.6      2.671      3.439
REMARK  Name = 
REMARK  3 active torsions:
REMARK  status: ('A' for Active; 'I' for Inactive)
REMARK    1  A    between atoms: C_7  and  C_8
REMARK    2  A    between atoms: C_11  and  C_12
REMARK    3  A    between atoms: C_21  and  C_22
REMARK                            x       y       z     vdW  Elec       q    Type
REMARK                         _______ _______ _______ _____ _____    ______ ____
ROOT
ATOM      1  O   UNL     1       1.805   6.216  20.775  0.00  0.00    +0.000 OA
ATOM      2  C   UNL     1       2.422   6.223  19.715  0.00  0.00    +0.000 A 
ATOM      3  N   UNL     1       3.068   5.079  19.299  0.00  0.00    +0.000 N 
ATOM      4  C   UNL     1       3.816   4.969  18.156  0.00  0.00    +0.000 A 
ATOM      5  C   UNL     1       3.956   6.039  17.353  0.00  0.00    +0.000 A 
ATOM      6  C   UNL     1       3.308   7.286  17.711  0.00  0.00    +0.000 A 
ATOM      7  C   UNL     1       2.553   7.424  18.821  0.00  0.00    +0.000 A 
ATOM      8  C   UNL     1       4.756   6.008  16.078  0.00  0.00    +0.000 C 
ATOM      9  C   UNL     1       5.654   4.755  15.961  0.00  0.00    +0.000 C 
ATOM     10  C   UNL     1       4.891   3.497  16.406  0.00  0.00    +0.000 C 
ATOM     11  C   UNL     1       4.428   3.628  17.859  0.00  0.00    +0.000 C 
ATOM     12  H   UNL     1       2.958   4.285  19.919  0.00  0.00    +0.000 HD
ENDROOT
BRANCH   9  13
ATOM     13  C   UNL     1       6.232   4.608  14.566  0.00  0.00    +0.000 A 
ATOM     14  C   UNL     1       5.631   3.731  13.650  0.00  0.00    +0.000 A 
ATOM     15  C   UNL     1       6.167   3.560  12.372  0.00  0.00    +0.000 A 
ATOM     16  C   UNL     1       7.307   4.263  11.993  0.00  0.00    +0.000 A 
ATOM     17  C   UNL     1       7.907   5.148  12.886  0.00  0.00    +0.000 A 
ATOM     18  C   UNL     1       7.369   5.324  14.162  0.00  0.00    +0.000 A 
ENDBRANCH   9  13
BRANCH   7  19
ATOM     19  C   UNL     1       1.894   8.644  19.170  0.00  0.00    +0.000 A 
ATOM     20  N   UNL     1       1.070   8.853  20.205  0.00  0.00    +0.000 NA
ATOM     21  O   UNL     1       0.695  10.182  20.076  0.00  0.00    +0.000 OA
ATOM     22  C   UNL     1       1.313  10.656  18.957  0.00  0.00    +0.000 A 
ATOM     23  N   UNL     1       2.050   9.751  18.351  0.00  0.00    +0.000 NA
BRANCH  22  24
ATOM     24  C   UNL     1       1.077  12.077  18.590  0.00  0.00    +0.000 C 
ATOM     25  C   UNL     1       2.363  12.782  18.131  0.00  0.00    +0.000 C 
ATOM     26  C   UNL     1       2.517  13.885  19.183  0.00  0.00    +0.000 C 
ATOM     27  C   UNL     1       1.485  14.987  18.965  0.00  0.00    +0.000 C 
ATOM     28  C   UNL     1       0.187  14.294  19.388  0.00  0.00    +0.000 C 
ATOM     29  C   UNL     1       0.684  12.912  19.814  0.00  0.00    +0.000 C 
ATOM     30  O   UNL     1       1.980  13.254  20.365  0.00  0.00    +0.000 OA
ENDBRANCH  22  24
ENDBRANCH   7  19
TORSDOF 3
ENDMDL
MODEL 6
REMARK VINA RESULT:      -8.5      1.195      1.581
REMARK  Name = 
REMARK  3 active torsions:
REMARK  status: ('A' for Active; 'I' for Inactive)
REMARK    1  A    between atoms: C_7  and  C_8
REMARK    2  A    between atoms: C_11  and  C_12
REMARK    3  A    between atoms: C_21  and  C_22
REMARK                            x       y       z     vdW  Elec       q    Type
REMARK                         _______ _______ _______ _____ _____    ______ ____
ROOT
ATOM      1  O   UNL     1       0.062   8.987  21.807  0.00  0.00    +0.000 OA
ATOM      2  C   UNL     1       0.722   8.612  20.844  0.00  0.00    +0.000 A 
ATOM      3  N   UNL     1       1.500   7.480  20.955  0.00  0.00    +0.000 N 
ATOM      4  C   UNL     1       2.306   6.978  19.965  0.00  0.00    +0.000 A 
ATOM      5  C   UNL     1       2.370   7.614  18.782  0.00  0.00    +0.000 A 
ATOM      6  C   UNL     1       1.582   8.813  18.574  0.00  0.00    +0.000 A 
ATOM      7  C   UNL     1       0.768   9.325  19.521  0.00  0.00    +0.000 A 
ATOM      8  C   UNL     1       3.225   7.133  17.640  0.00  0.00    +0.000 C 
ATOM      9  C   UNL     1       4.251   6.058  18.066  0.00  0.00    +0.000 C 
ATOM     10  C   UNL     1       3.603   5.032  19.009  0.00  0.00    +0.000 C 
ATOM     11  C   UNL     1       3.065   5.716  20.269  0.00  0.00    +0.000 C 
ATOM     12  H   UNL     1       1.445   7.018  21.855  0.00  0.00    +0.000 HD
ENDROOT
BRANCH   9  13
ATOM     13  C   UNL     1       4.903   5.397  16.866  0.00  0.00    +0.000 A 
ATOM     14  C   UNL     1       5.241   6.167  15.743  0.00  0.00    +0.000 A 
ATOM     15  C   UNL     1       5.814   5.571  14.618  0.00  0.00    +0.000 A 
ATOM     16  C   UNL     1       6.057   4.199  14.601  0.00  0.00    +0.000 A 
ATOM     17  C   UNL     1       5.739   3.424  15.714  0.00  0.00    +0.000 A 
ATOM     18  C   UNL     1       5.172   4.020  16.841  0.00  0.00    +0.000 A 
ENDBRANCH   9  13
BRANCH   7  19
ATOM     19  C   UNL     1      -0.028  10.494  19.317  0.00  0.00    +0.000 A 
ATOM     20  N   UNL     1       0.303  11.760  19.605  0.00  0.00    +0.000 NA
ATOM     21  O   UNL     1      -0.816  12.494  19.238  0.00  0.00    +0.000 OA
ATOM     22  C   UNL     1      -1.736  11.599  18.776  0.00  0.00    +0.000 A 
ATOM     23  N   UNL     1      -1.312  10.356  18.817  0.00  0.00    +0.000 NA
BRANCH  22  24
ATOM     24  C   UNL     1      -3.042  12.134  18.308  0.00  0.00    +0.000 C 
ATOM     25  C   UNL     1      -4.107  12.122  19.414  0.00  0.00    +0.000 C 
ATOM     26  C   UNL     1      -5.163  11.177  18.833  0.00  0.00    +0.000 C 
ATOM     27  C   UNL     1      -5.926  11.853  17.697  0.00  0.00    +0.000 C 
ATOM     28  C   UNL     1      -4.870  11.905  16.591  0.00  0.00    +0.000 C 
ATOM     29  C   UNL     1      -3.674  11.219  17.254  0.00  0.00    +0.000 C 
ATOM     30  O   UNL     1      -4.355  10.243  18.084  0.00  0.00    +0.000 OA
ENDBRANCH  22  24
ENDBRANCH   7  19
TORSDOF 3
ENDMDL
MODEL 7
REMARK VINA RESULT:      -8.5      2.678      3.621
REMARK  Name = 
REMARK  3 active torsions:
REMARK  status: ('A' for Active; 'I' for Inactive)
REMARK    1  A    between atoms: C_7  and  C_8
REMARK    2  A    between atoms: C_11  and  C_12
REMARK    3  A    between atoms: C_21  and  C_22
REMARK                            x       y       z     vdW  Elec       q    Type
REMARK                         _______ _______ _______ _____ _____    ______ ____
ROOT
ATOM      1  O   UNL     1       0.080   9.148  21.741  0.00  0.00    +0.000 OA
ATOM      2  C   UNL     1       0.758   8.757  20.796  0.00  0.00    +0.000 A 
ATOM      3  N   UNL     1       1.426   7.556  20.893  0.00  0.00    +0.000 N 
ATOM      4  C   UNL     1       2.240   7.028  19.924  0.00  0.00    +0.000 A 
ATOM      5  C   UNL     1       2.426   7.705  18.777  0.00  0.00    +0.000 A 
ATOM      6  C   UNL     1       1.758   8.978  18.587  0.00  0.00    +0.000 A 
ATOM      7  C   UNL     1       0.940   9.520  19.513  0.00  0.00    +0.000 A 
ATOM      8  C   UNL     1       3.298   7.199  17.660  0.00  0.00    +0.000 C 
ATOM      9  C   UNL     1       4.201   6.020  18.087  0.00  0.00    +0.000 C 
ATOM     10  C   UNL     1       3.414   5.017  18.944  0.00  0.00    +0.000 C 
ATOM     11  C   UNL     1       2.868   5.691  20.205  0.00  0.00    +0.000 C 
ATOM     12  H   UNL     1       1.281   7.063  21.766  0.00  0.00    +0.000 HD
ENDROOT
BRANCH   9  13
ATOM     13  C   UNL     1       4.859   5.355  16.892  0.00  0.00    +0.000 A 
ATOM     14  C   UNL     1       5.225   6.126  15.778  0.00  0.00    +0.000 A 
ATOM     15  C   UNL     1       5.803   5.528  14.657  0.00  0.00    +0.000 A 
ATOM     16  C   UNL     1       6.026   4.153  14.636  0.00  0.00    +0.000 A 
ATOM     17  C   UNL     1       5.681   3.376  15.740  0.00  0.00    +0.000 A 
ATOM     18  C   UNL     1       5.108   3.975  16.863  0.00  0.00    +0.000 A 
ENDBRANCH   9  13
BRANCH   7  19
ATOM     19  C   UNL     1       0.262  10.764  19.325  0.00  0.00    +0.000 A 
ATOM     20  N   UNL     1      -1.060  10.979  19.350  0.00  0.00    +0.000 NA
ATOM     21  O   UNL     1      -1.187  12.336  19.092  0.00  0.00    +0.000 OA
ATOM     22  C   UNL     1       0.075  12.820  18.913  0.00  0.00    +0.000 A 
ATOM     23  N   UNL     1       1.003  11.896  19.028  0.00  0.00    +0.000 NA
BRANCH  22  24
ATOM     24  C   UNL     1       0.221  14.270  18.622  0.00  0.00    +0.000 C 
ATOM     25  C   UNL     1       1.634  14.787  18.929  0.00  0.00    +0.000 C 
ATOM     26  C   UNL     1       1.367  15.823  20.025  0.00  0.00    +0.000 C 
ATOM     27  C   UNL     1       0.718  17.074  19.440  0.00  0.00    +0.000 C 
ATOM     28  C   UNL     1      -0.687  16.571  19.097  0.00  0.00    +0.000 C 
ATOM     29  C   UNL     1      -0.634  15.118  19.571  0.00  0.00    +0.000 C 
ATOM     30  O   UNL     1       0.241  15.245  20.720  0.00  0.00    +0.000 OA
ENDBRANCH  22  24
ENDBRANCH   7  19
TORSDOF 3
ENDMDL
MODEL 8
REMARK VINA RESULT:      -8.5      3.677      5.249
REMARK  Name = 
REMARK  3 active torsions:
REMARK  status: ('A' for Active; 'I' for Inactive)
REMARK    1  A    between atoms: C_7  and  C_8
REMARK    2  A    between atoms: C_11  and  C_12
REMARK    3  A    between atoms: C_21  and  C_22
REMARK                            x       y       z     vdW  Elec       q    Type
REMARK                         _______ _______ _______ _____ _____    ______ ____
ROOT
ATOM      1  O   UNL     1       0.489  12.131  18.932  0.00  0.00    +0.000 OA
ATOM      2  C   UNL     1       0.756  10.994  19.305  0.00  0.00    +0.000 A 
ATOM      3  N   UNL     1       1.473  10.160  18.474  0.00  0.00    +0.000 N 
ATOM      4  C   UNL     1       1.804   8.861  18.759  0.00  0.00    +0.000 A 
ATOM      5  C   UNL     1       1.417   8.322  19.928  0.00  0.00    +0.000 A 
ATOM      6  C   UNL     1       0.660   9.128  20.867  0.00  0.00    +0.000 A 
ATOM      7  C   UNL     1       0.330  10.414  20.624  0.00  0.00    +0.000 A 
ATOM      8  C   UNL     1       1.739   6.906  20.324  0.00  0.00    +0.000 C 
ATOM      9  C   UNL     1       2.253   6.052  19.143  0.00  0.00    +0.000 C 
ATOM     10  C   UNL     1       3.258   6.847  18.295  0.00  0.00    +0.000 C 
ATOM     11  C   UNL     1       2.612   8.115  17.732  0.00  0.00    +0.000 C 
ATOM     12  H   UNL     1       1.750  10.579  17.594  0.00  0.00    +0.000 HD
ENDROOT
BRANCH   9  13
ATOM     13  C   UNL     1       2.826   4.728  19.615  0.00  0.00    +0.000 A 
ATOM     14  C   UNL     1       2.205   4.033  20.664  0.00  0.00    +0.000 A 
ATOM     15  C   UNL     1       2.736   2.830  21.131  0.00  0.00    +0.000 A 
ATOM     16  C   UNL     1       3.891   2.304  20.556  0.00  0.00    +0.000 A 
ATOM     17  C   UNL     1       4.510   2.975  19.504  0.00  0.00    +0.000 A 
ATOM     18  C   UNL     1       3.977   4.176  19.032  0.00  0.00    +0.000 A 
ENDBRANCH   9  13
BRANCH   7  19
ATOM     19  C   UNL     1      -0.397  11.221  21.553  0.00  0.00    +0.000 A 
ATOM     20  N   UNL     1      -0.175  11.344  22.868  0.00  0.00    +0.000 NA
ATOM     21  O   UNL     1      -1.162  12.219  23.297  0.00  0.00    +0.000 OA
ATOM     22  C   UNL     1      -1.910  12.534  22.201  0.00  0.00    +0.000 A 
ATOM     23  N   UNL     1      -1.496  11.937  21.105  0.00  0.00    +0.000 NA
BRANCH  22  24
ATOM     24  C   UNL     1      -3.047  13.473  22.390  0.00  0.00    +0.000 C 
ATOM     25  C   UNL     1      -3.205  13.910  23.854  0.00  0.00    +0.000 C 
ATOM     26  C   UNL     1      -4.597  13.374  24.201  0.00  0.00    +0.000 C 
ATOM     27  C   UNL     1      -5.682  14.209  23.526  0.00  0.00    +0.000 C 
ATOM     28  C   UNL     1      -5.521  13.811  22.056  0.00  0.00    +0.000 C 
ATOM     29  C   UNL     1      -4.390  12.783  22.123  0.00  0.00    +0.000 C 
ATOM     30  O   UNL     1      -4.665  12.170  23.408  0.00  0.00    +0.000 OA
ENDBRANCH  22  24
ENDBRANCH   7  19
TORSDOF 3
ENDMDL
MODEL 9
REMARK VINA RESULT:      -8.4      2.950      3.893
REMARK  Name = 
REMARK  3 active torsions:
REMARK  status: ('A' for Active; 'I' for Inactive)
REMARK    1  A    between atoms: C_7  and  C_8
REMARK    2  A    between atoms: C_11  and  C_12
REMARK    3  A    between atoms: C_21  and  C_22
REMARK                            x       y       z     vdW  Elec       q    Type
REMARK                         _______ _______ _______ _____ _____    ______ ____
ROOT
ATOM      1  O   UNL     1       0.043   9.709  21.340  0.00  0.00    +0.000 OA
ATOM      2  C   UNL     1       0.741   9.243  20.447  0.00  0.00    +0.000 A 
ATOM      3  N   UNL     1       1.290   7.988  20.600  0.00  0.00    +0.000 N 
ATOM      4  C   UNL     1       2.112   7.373  19.692  0.00  0.00    +0.000 A 
ATOM      5  C   UNL     1       2.433   8.011  18.553  0.00  0.00    +0.000 A 
ATOM      6  C   UNL     1       1.898   9.336  18.306  0.00  0.00    +0.000 A 
ATOM      7  C   UNL     1       1.075   9.964  19.171  0.00  0.00    +0.000 A 
ATOM      8  C   UNL     1       3.326   7.410  17.501  0.00  0.00    +0.000 C 
ATOM      9  C   UNL     1       4.088   6.161  17.999  0.00  0.00    +0.000 C 
ATOM     10  C   UNL     1       3.159   5.247  18.814  0.00  0.00    +0.000 C 
ATOM     11  C   UNL     1       2.596   5.989  20.029  0.00  0.00    +0.000 C 
ATOM     12  H   UNL     1       1.044   7.525  21.467  0.00  0.00    +0.000 HD
ENDROOT
BRANCH   9  13
ATOM     13  C   UNL     1       4.759   5.420  16.857  0.00  0.00    +0.000 A 
ATOM     14  C   UNL     1       4.946   4.032  16.940  0.00  0.00    +0.000 A 
ATOM     15  C   UNL     1       5.588   3.339  15.913  0.00  0.00    +0.000 A 
ATOM     16  C   UNL     1       6.048   4.021  14.789  0.00  0.00    +0.000 A 
ATOM     17  C   UNL     1       5.856   5.397  14.686  0.00  0.00    +0.000 A 
ATOM     18  C   UNL     1       5.210   6.091  15.710  0.00  0.00    +0.000 A 
ENDBRANCH   9  13
BRANCH   7  19
ATOM     19  C   UNL     1       0.527  11.261  18.924  0.00  0.00    +0.000 A 
ATOM     20  N   UNL     1      -0.739  11.559  18.602  0.00  0.00    +0.000 NA
ATOM     21  O   UNL     1      -0.735  12.938  18.454  0.00  0.00    +0.000 OA
ATOM     22  C   UNL     1       0.543  13.352  18.682  0.00  0.00    +0.000 A 
ATOM     23  N   UNL     1       1.365  12.364  18.959  0.00  0.00    +0.000 NA
BRANCH  22  24
ATOM     24  C   UNL     1       0.822  14.810  18.589  0.00  0.00    +0.000 C 
ATOM     25  C   UNL     1       1.830  15.280  19.647  0.00  0.00    +0.000 C 
ATOM     26  C   UNL     1       1.000  16.276  20.461  0.00  0.00    +0.000 C 
ATOM     27  C   UNL     1       0.779  17.565  19.675  0.00  0.00    +0.000 C 
ATOM     28  C   UNL     1      -0.203  17.111  18.591  0.00  0.00    +0.000 C 
ATOM     29  C   UNL     1      -0.417  15.639  18.947  0.00  0.00    +0.000 C 
ATOM     30  O   UNL     1      -0.321  15.698  20.393  0.00  0.00    +0.000 OA
ENDBRANCH  22  24
ENDBRANCH   7  19
TORSDOF 3
ENDMDL
