MODEL 1
REMARK VINA RESULT:      -8.8      0.000      0.000
REMARK  Name = 
REMARK  8 active torsions:
REMARK  status: ('A' for Active; 'I' for Inactive)
REMARK    1  A    between atoms: O_1  and  C_2
REMARK    2  A    between atoms: C_2  and  C_3
REMARK    3  A    between atoms: C_2  and  C_21
REMARK    4  A    between atoms: C_3  and  N_4
REMARK    5  A    between atoms: N_4  and  C_5
REMARK    6  A    between atoms: C_7  and  C_8
REMARK    7  A    between atoms: C_21  and  O_22
REMARK    8  A    between atoms: O_22  and  C_23
REMARK                            x       y       z     vdW  Elec       q    Type
REMARK                         _______ _______ _______ _____ _____    ______ ____
ROOT
ATOM      1  C   UNL     1       4.581   5.031  19.269  0.00  0.00    +0.000 A 
ATOM      2  N   UNL     1       4.101   6.283  19.206  0.00  0.00    +0.000 NA
ATOM      3  C   UNL     1       2.830   6.442  18.806  0.00  0.00    +0.000 A 
ATOM      4  N   UNL     1       2.011   5.439  18.450  0.00  0.00    +0.000 NA
ATOM      5  C   UNL     1       2.498   4.199  18.498  0.00  0.00    +0.000 A 
ATOM      6  C   UNL     1       1.661   3.149  18.139  0.00  0.00    +0.000 A 
ATOM      7  C   UNL     1       2.087   1.818  18.174  0.00  0.00    +0.000 A 
ATOM      8  C   UNL     1       3.383   1.523  18.571  0.00  0.00    +0.000 A 
ATOM      9  C   UNL     1       4.244   2.562  18.928  0.00  0.00    +0.000 A 
ATOM     10  C   UNL     1       3.806   3.913  18.905  0.00  0.00    +0.000 A 
ENDROOT
BRANCH   3  11
ATOM     11  C   UNL     1       2.276   7.802  18.813  0.00  0.00    +0.000 A 
ATOM     12  C   UNL     1       1.576   8.325  19.913  0.00  0.00    +0.000 A 
ATOM     13  C   UNL     1       1.099   9.634  19.896  0.00  0.00    +0.000 A 
ATOM     14  C   UNL     1       1.330  10.401  18.767  0.00  0.00    +0.000 A 
ATOM     15  N   UNL     1       1.984   9.948  17.679  0.00  0.00    +0.000 NA
ATOM     16  C   UNL     1       2.435   8.667  17.732  0.00  0.00    +0.000 A 
ENDBRANCH   3  11
BRANCH   1  17
ATOM     17  N   UNL     1       5.913   4.847  19.699  0.00  0.00    +0.000 N 
ATOM     18  H   UNL     1       5.975   5.154  20.663  0.00  0.00    +0.000 HD
BRANCH  17  19
ATOM     19  C   UNL     1       6.952   5.442  18.842  0.00  0.00    +0.000 C 
BRANCH  19  20
ATOM     20  C   UNL     1       6.972   4.798  17.432  0.00  0.00    +0.000 C 
BRANCH  20  21
ATOM     21  O   UNL     1       8.250   4.207  17.161  0.00  0.00    +0.000 OA
ATOM     22  H   UNL     1       8.099   3.270  16.949  0.00  0.00    +0.000 HD
ENDBRANCH  20  21
BRANCH  20  23
ATOM     23  C   UNL     1       6.642   5.838  16.352  0.00  0.00    +0.000 C 
BRANCH  23  24
ATOM     24  O   UNL     1       7.406   5.609  15.162  0.00  0.00    +0.000 OA
BRANCH  24  25
ATOM     25  C   UNL     1       6.788   4.845  14.204  0.00  0.00    +0.000 A 
ATOM     26  C   UNL     1       5.512   4.278  14.316  0.00  0.00    +0.000 A 
ATOM     27  C   UNL     1       4.996   3.497  13.279  0.00  0.00    +0.000 A 
ATOM     28  C   UNL     1       5.753   3.285  12.137  0.00  0.00    +0.000 A 
ATOM     29  F   UNL     1       5.258   2.528  11.150  0.00  0.00    +0.000 F 
ATOM     30  C   UNL     1       7.019   3.844  12.007  0.00  0.00    +0.000 A 
ATOM     31  C   UNL     1       7.535   4.626  13.042  0.00  0.00    +0.000 A 
ENDBRANCH  24  25
ENDBRANCH  23  24
ENDBRANCH  20  23
ENDBRANCH  19  20
ENDBRANCH  17  19
ENDBRANCH   1  17
TORSDOF 8
ENDMDL
MODEL 2
REMARK VINA RESULT:      -8.6      4.584      8.630
REMARK  Name = 
REMARK  8 active torsions:
REMARK  status: ('A' for Active; 'I' for Inactive)
REMARK    1  A    between atoms: O_1  and  C_2
REMARK    2  A    between atoms: C_2  and  C_3
REMARK    3  A    between atoms: C_2  and  C_21
REMARK    4  A    between atoms: C_3  and  N_4
REMARK    5  A    between atoms: N_4  and  C_5
REMARK    6  A    between atoms: C_7  and  C_8
REMARK    7  A    between atoms: C_21  and  O_22
REMARK    8  A    between atoms: O_22  and  C_23
REMARK                            x       y       z     vdW  Elec       q    Type
REMARK                         _______ _______ _______ _____ _____    ______ ____
ROOT
ATOM      1  C   UNL     1       2.969   6.015  18.388  0.00  0.00    +0.000 A 
ATOM      2  N   UNL     1       3.933   5.983  17.454  0.00  0.00    +0.000 NA
ATOM      3  C   UNL     1       4.421   4.782  17.104  0.00  0.00    +0.000 A 
ATOM      4  N   UNL     1       4.023   3.614  17.634  0.00  0.00    +0.000 NA
ATOM      5  C   UNL     1       3.078   3.652  18.574  0.00  0.00    +0.000 A 
ATOM      6  C   UNL     1       2.651   2.451  19.127  0.00  0.00    +0.000 A 
ATOM      7  C   UNL     1       1.656   2.400  20.106  0.00  0.00    +0.000 A 
ATOM      8  C   UNL     1       1.073   3.577  20.553  0.00  0.00    +0.000 A 
ATOM      9  C   UNL     1       1.491   4.795  20.017  0.00  0.00    +0.000 A 
ATOM     10  C   UNL     1       2.493   4.845  19.012  0.00  0.00    +0.000 A 
ENDROOT
BRANCH   3  11
ATOM     11  C   UNL     1       5.417   4.737  16.026  0.00  0.00    +0.000 A 
ATOM     12  C   UNL     1       5.230   3.977  14.860  0.00  0.00    +0.000 A 
ATOM     13  C   UNL     1       6.182   3.991  13.842  0.00  0.00    +0.000 A 
ATOM     14  C   UNL     1       7.314   4.768  14.014  0.00  0.00    +0.000 A 
ATOM     15  N   UNL     1       7.551   5.506  15.116  0.00  0.00    +0.000 NA
ATOM     16  C   UNL     1       6.601   5.469  16.088  0.00  0.00    +0.000 A 
ENDBRANCH   3  11
BRANCH   1  17
ATOM     17  N   UNL     1       2.438   7.269  18.758  0.00  0.00    +0.000 N 
ATOM     18  H   UNL     1       1.478   7.128  19.053  0.00  0.00    +0.000 HD
BRANCH  17  19
ATOM     19  C   UNL     1       2.577   8.343  17.761  0.00  0.00    +0.000 C 
BRANCH  19  20
ATOM     20  C   UNL     1       1.586   9.506  18.026  0.00  0.00    +0.000 C 
BRANCH  20  21
ATOM     21  O   UNL     1       2.053  10.720  17.424  0.00  0.00    +0.000 OA
ATOM     22  H   UNL     1       1.918  11.436  18.067  0.00  0.00    +0.000 HD
ENDBRANCH  20  21
BRANCH  20  23
ATOM     23  C   UNL     1       1.385   9.719  19.533  0.00  0.00    +0.000 C 
BRANCH  23  24
ATOM     24  O   UNL     1       0.051   9.381  19.930  0.00  0.00    +0.000 OA
BRANCH  24  25
ATOM     25  C   UNL     1      -0.537  10.250  20.816  0.00  0.00    +0.000 A 
ATOM     26  C   UNL     1      -1.142  11.467  20.478  0.00  0.00    +0.000 A 
ATOM     27  C   UNL     1      -1.688  12.280  21.475  0.00  0.00    +0.000 A 
ATOM     28  C   UNL     1      -1.629  11.877  22.800  0.00  0.00    +0.000 A 
ATOM     29  F   UNL     1      -2.145  12.664  23.752  0.00  0.00    +0.000 F 
ATOM     30  C   UNL     1      -1.036  10.671  23.152  0.00  0.00    +0.000 A 
ATOM     31  C   UNL     1      -0.491   9.856  22.157  0.00  0.00    +0.000 A 
ENDBRANCH  24  25
ENDBRANCH  23  24
ENDBRANCH  20  23
ENDBRANCH  19  20
ENDBRANCH  17  19
ENDBRANCH   1  17
TORSDOF 8
ENDMDL
MODEL 3
REMARK VINA RESULT:      -8.6      1.518      1.819
REMARK  Name = 
REMARK  8 active torsions:
REMARK  status: ('A' for Active; 'I' for Inactive)
REMARK    1  A    between atoms: O_1  and  C_2
REMARK    2  A    between atoms: C_2  and  C_3
REMARK    3  A    between atoms: C_2  and  C_21
REMARK    4  A    between atoms: C_3  and  N_4
REMARK    5  A    between atoms: N_4  and  C_5
REMARK    6  A    between atoms: C_7  and  C_8
REMARK    7  A    between atoms: C_21  and  O_22
REMARK    8  A    between atoms: O_22  and  C_23
REMARK                            x       y       z     vdW  Elec       q    Type
REMARK                         _______ _______ _______ _____ _____    ______ ____
ROOT
ATOM      1  C   UNL     1       3.560   5.747  18.666  0.00  0.00    +0.000 A 
ATOM      2  N   UNL     1       2.967   6.942  18.814  0.00  0.00    +0.000 NA
ATOM      3  C   UNL     1       2.101   7.085  19.830  0.00  0.00    +0.000 A 
ATOM      4  N   UNL     1       1.776   6.113  20.697  0.00  0.00    +0.000 NA
ATOM      5  C   UNL     1       2.354   4.922  20.535  0.00  0.00    +0.000 A 
ATOM      6  C   UNL     1       2.033   3.908  21.429  0.00  0.00    +0.000 A 
ATOM      7  C   UNL     1       2.603   2.635  21.339  0.00  0.00    +0.000 A 
ATOM      8  C   UNL     1       3.514   2.362  20.330  0.00  0.00    +0.000 A 
ATOM      9  C   UNL     1       3.846   3.363  19.416  0.00  0.00    +0.000 A 
ATOM     10  C   UNL     1       3.276   4.660  19.516  0.00  0.00    +0.000 A 
ENDROOT
BRANCH   3  11
ATOM     11  C   UNL     1       1.513   8.414  20.045  0.00  0.00    +0.000 A 
ATOM     12  C   UNL     1       1.035   8.832  21.297  0.00  0.00    +0.000 A 
ATOM     13  C   UNL     1       0.518  10.116  21.469  0.00  0.00    +0.000 A 
ATOM     14  C   UNL     1       0.486  10.961  20.373  0.00  0.00    +0.000 A 
ATOM     15  N   UNL     1       0.919  10.609  19.147  0.00  0.00    +0.000 NA
ATOM     16  C   UNL     1       1.417   9.350  19.017  0.00  0.00    +0.000 A 
ENDBRANCH   3  11
BRANCH   1  17
ATOM     17  N   UNL     1       4.482   5.585  17.610  0.00  0.00    +0.000 N 
ATOM     18  H   UNL     1       5.103   4.821  17.851  0.00  0.00    +0.000 HD
BRANCH  17  19
ATOM     19  C   UNL     1       5.204   6.799  17.197  0.00  0.00    +0.000 C 
BRANCH  19  20
ATOM     20  C   UNL     1       6.736   6.648  17.381  0.00  0.00    +0.000 C 
BRANCH  20  21
ATOM     21  O   UNL     1       7.419   7.835  16.960  0.00  0.00    +0.000 OA
ATOM     22  H   UNL     1       8.086   7.572  16.303  0.00  0.00    +0.000 HD
ENDBRANCH  20  21
BRANCH  20  23
ATOM     23  C   UNL     1       7.264   5.439  16.596  0.00  0.00    +0.000 C 
BRANCH  23  24
ATOM     24  O   UNL     1       7.519   5.781  15.229  0.00  0.00    +0.000 OA
BRANCH  24  25
ATOM     25  C   UNL     1       6.908   4.979  14.298  0.00  0.00    +0.000 A 
ATOM     26  C   UNL     1       5.688   4.314  14.474  0.00  0.00    +0.000 A 
ATOM     27  C   UNL     1       5.176   3.503  13.458  0.00  0.00    +0.000 A 
ATOM     28  C   UNL     1       5.881   3.359  12.273  0.00  0.00    +0.000 A 
ATOM     29  F   UNL     1       5.390   2.573  11.307  0.00  0.00    +0.000 F 
ATOM     30  C   UNL     1       7.091   4.015  12.080  0.00  0.00    +0.000 A 
ATOM     31  C   UNL     1       7.603   4.826  13.094  0.00  0.00    +0.000 A 
ENDBRANCH  24  25
ENDBRANCH  23  24
ENDBRANCH  20  23
ENDBRANCH  19  20
ENDBRANCH  17  19
ENDBRANCH   1  17
TORSDOF 8
ENDMDL
MODEL 4
REMARK VINA RESULT:      -8.5      1.445      1.969
REMARK  Name = 
REMARK  8 active torsions:
REMARK  status: ('A' for Active; 'I' for Inactive)
REMARK    1  A    between atoms: O_1  and  C_2
REMARK    2  A    between atoms: C_2  and  C_3
REMARK    3  A    between atoms: C_2  and  C_21
REMARK    4  A    between atoms: C_3  and  N_4
REMARK    5  A    between atoms: N_4  and  C_5
REMARK    6  A    between atoms: C_7  and  C_8
REMARK    7  A    between atoms: C_21  and  O_22
REMARK    8  A    between atoms: O_22  and  C_23
REMARK                            x       y       z     vdW  Elec       q    Type
REMARK                         _______ _______ _______ _____ _____    ______ ____
ROOT
ATOM      1  C   UNL     1       3.576   5.999  18.397  0.00  0.00    +0.000 A 
ATOM      2  N   UNL     1       2.929   7.134  18.705  0.00  0.00    +0.000 NA
ATOM      3  C   UNL     1       2.131   7.122  19.784  0.00  0.00    +0.000 A 
ATOM      4  N   UNL     1       1.923   6.051  20.567  0.00  0.00    +0.000 NA
ATOM      5  C   UNL     1       2.555   4.920  20.247  0.00  0.00    +0.000 A 
ATOM      6  C   UNL     1       2.356   3.805  21.051  0.00  0.00    +0.000 A 
ATOM      7  C   UNL     1       2.989   2.586  20.795  0.00  0.00    +0.000 A 
ATOM      8  C   UNL     1       3.839   2.471  19.706  0.00  0.00    +0.000 A 
ATOM      9  C   UNL     1       4.049   3.576  18.880  0.00  0.00    +0.000 A 
ATOM     10  C   UNL     1       3.415   4.818  19.148  0.00  0.00    +0.000 A 
ENDROOT
BRANCH   3  11
ATOM     11  C   UNL     1       1.485   8.383  20.172  0.00  0.00    +0.000 A 
ATOM     12  C   UNL     1       1.080   8.648  21.489  0.00  0.00    +0.000 A 
ATOM     13  C   UNL     1       0.505   9.873  21.824  0.00  0.00    +0.000 A 
ATOM     14  C   UNL     1       0.343  10.816  20.825  0.00  0.00    +0.000 A 
ATOM     15  N   UNL     1       0.702  10.612  19.542  0.00  0.00    +0.000 NA
ATOM     16  C   UNL     1       1.259   9.406  19.252  0.00  0.00    +0.000 A 
ENDBRANCH   3  11
BRANCH   1  17
ATOM     17  N   UNL     1       4.427   5.999  17.271  0.00  0.00    +0.000 N 
ATOM     18  H   UNL     1       4.590   5.036  17.002  0.00  0.00    +0.000 HD
BRANCH  17  19
ATOM     19  C   UNL     1       5.673   6.772  17.410  0.00  0.00    +0.000 C 
BRANCH  19  20
ATOM     20  C   UNL     1       6.841   5.891  17.925  0.00  0.00    +0.000 C 
BRANCH  20  21
ATOM     21  O   UNL     1       7.905   6.705  18.434  0.00  0.00    +0.000 OA
ATOM     22  H   UNL     1       8.552   6.824  17.718  0.00  0.00    +0.000 HD
ENDBRANCH  20  21
BRANCH  20  23
ATOM     23  C   UNL     1       7.372   4.982  16.807  0.00  0.00    +0.000 C 
BRANCH  23  24
ATOM     24  O   UNL     1       7.426   5.676  15.556  0.00  0.00    +0.000 OA
BRANCH  24  25
ATOM     25  C   UNL     1       7.012   4.954  14.465  0.00  0.00    +0.000 A 
ATOM     26  C   UNL     1       7.632   4.955  13.209  0.00  0.00    +0.000 A 
ATOM     27  C   UNL     1       7.103   4.194  12.164  0.00  0.00    +0.000 A 
ATOM     28  C   UNL     1       5.960   3.437  12.375  0.00  0.00    +0.000 A 
ATOM     29  F   UNL     1       5.453   2.717  11.367  0.00  0.00    +0.000 F 
ATOM     30  C   UNL     1       5.335   3.421  13.615  0.00  0.00    +0.000 A 
ATOM     31  C   UNL     1       5.864   4.181  14.661  0.00  0.00    +0.000 A 
ENDBRANCH  24  25
ENDBRANCH  23  24
ENDBRANCH  20  23
ENDBRANCH  19  20
ENDBRANCH  17  19
ENDBRANCH   1  17
TORSDOF 8
ENDMDL
MODEL 5
REMARK VINA RESULT:      -8.5      4.275      7.976
REMARK  Name = 
REMARK  8 active torsions:
REMARK  status: ('A' for Active; 'I' for Inactive)
REMARK    1  A    between atoms: O_1  and  C_2
REMARK    2  A    between atoms: C_2  and  C_3
REMARK    3  A    between atoms: C_2  and  C_21
REMARK    4  A    between atoms: C_3  and  N_4
REMARK    5  A    between atoms: N_4  and  C_5
REMARK    6  A    between atoms: C_7  and  C_8
REMARK    7  A    between atoms: C_21  and  O_22
REMARK    8  A    between atoms: O_22  and  C_23
REMARK                            x       y       z     vdW  Elec       q    Type
REMARK                         _______ _______ _______ _____ _____    ______ ____
ROOT
ATOM      1  C   UNL     1       2.836   6.128  18.526  0.00  0.00    +0.000 A 
ATOM      2  N   UNL     1       3.787   6.095  17.580  0.00  0.00    +0.000 NA
ATOM      3  C   UNL     1       4.388   4.918  17.343  0.00  0.00    +0.000 A 
ATOM      4  N   UNL     1       4.116   3.778  17.997  0.00  0.00    +0.000 NA
ATOM      5  C   UNL     1       3.183   3.819  18.949  0.00  0.00    +0.000 A 
ATOM      6  C   UNL     1       2.884   2.645  19.630  0.00  0.00    +0.000 A 
ATOM      7  C   UNL     1       1.911   2.598  20.631  0.00  0.00    +0.000 A 
ATOM      8  C   UNL     1       1.218   3.751  20.968  0.00  0.00    +0.000 A 
ATOM      9  C   UNL     1       1.506   4.943  20.303  0.00  0.00    +0.000 A 
ATOM     10  C   UNL     1       2.486   4.988  19.276  0.00  0.00    +0.000 A 
ENDROOT
BRANCH   3  11
ATOM     11  C   UNL     1       5.371   4.860  16.253  0.00  0.00    +0.000 A 
ATOM     12  C   UNL     1       5.158   4.108  15.087  0.00  0.00    +0.000 A 
ATOM     13  C   UNL     1       6.099   4.110  14.058  0.00  0.00    +0.000 A 
ATOM     14  C   UNL     1       7.245   4.867  14.220  0.00  0.00    +0.000 A 
ATOM     15  N   UNL     1       7.507   5.597  15.321  0.00  0.00    +0.000 NA
ATOM     16  C   UNL     1       6.568   5.573  16.304  0.00  0.00    +0.000 A 
ENDBRANCH   3  11
BRANCH   1  17
ATOM     17  N   UNL     1       2.186   7.355  18.779  0.00  0.00    +0.000 N 
ATOM     18  H   UNL     1       1.191   7.217  18.637  0.00  0.00    +0.000 HD
BRANCH  17  19
ATOM     19  C   UNL     1       2.711   8.521  18.048  0.00  0.00    +0.000 C 
BRANCH  19  20
ATOM     20  C   UNL     1       1.667   9.664  17.964  0.00  0.00    +0.000 C 
BRANCH  20  21
ATOM     21  O   UNL     1       2.234  10.825  17.345  0.00  0.00    +0.000 OA
ATOM     22  H   UNL     1       2.519  11.426  18.055  0.00  0.00    +0.000 HD
ENDBRANCH  20  21
BRANCH  20  23
ATOM     23  C   UNL     1       1.138  10.025  19.359  0.00  0.00    +0.000 C 
BRANCH  23  24
ATOM     24  O   UNL     1      -0.177   9.497  19.566  0.00  0.00    +0.000 OA
BRANCH  24  25
ATOM     25  C   UNL     1      -1.197  10.219  18.997  0.00  0.00    +0.000 A 
ATOM     26  C   UNL     1      -1.681  11.448  19.464  0.00  0.00    +0.000 A 
ATOM     27  C   UNL     1      -2.743  12.079  18.811  0.00  0.00    +0.000 A 
ATOM     28  C   UNL     1      -3.316  11.483  17.698  0.00  0.00    +0.000 A 
ATOM     29  F   UNL     1      -4.340  12.088  17.082  0.00  0.00    +0.000 F 
ATOM     30  C   UNL     1      -2.846  10.267  17.218  0.00  0.00    +0.000 A 
ATOM     31  C   UNL     1      -1.784   9.636  17.869  0.00  0.00    +0.000 A 
ENDBRANCH  24  25
ENDBRANCH  23  24
ENDBRANCH  20  23
ENDBRANCH  19  20
ENDBRANCH  17  19
ENDBRANCH   1  17
TORSDOF 8
ENDMDL
MODEL 6
REMARK VINA RESULT:      -8.5      4.839      7.299
REMARK  Name = 
REMARK  8 active torsions:
REMARK  status: ('A' for Active; 'I' for Inactive)
REMARK    1  A    between atoms: O_1  and  C_2
REMARK    2  A    between atoms: C_2  and  C_3
REMARK    3  A    between atoms: C_2  and  C_21
REMARK    4  A    between atoms: C_3  and  N_4
REMARK    5  A    between atoms: N_4  and  C_5
REMARK    6  A    between atoms: C_7  and  C_8
REMARK    7  A    between atoms: C_21  and  O_22
REMARK    8  A    between atoms: O_22  and  C_23
REMARK                            x       y       z     vdW  Elec       q    Type
REMARK                         _______ _______ _______ _____ _____    ______ ____
ROOT
ATOM      1  C   UNL     1       5.783   4.821  18.147  0.00  0.00    +0.000 A 
ATOM      2  N   UNL     1       6.325   4.719  16.923  0.00  0.00    +0.000 NA
ATOM      3  C   UNL     1       5.524   4.334  15.917  0.00  0.00    +0.000 A 
ATOM      4  N   UNL     1       4.223   4.029  16.054  0.00  0.00    +0.000 NA
ATOM      5  C   UNL     1       3.694   4.114  17.275  0.00  0.00    +0.000 A 
ATOM      6  C   UNL     1       2.347   3.808  17.431  0.00  0.00    +0.000 A 
ATOM      7  C   UNL     1       1.710   3.884  18.672  0.00  0.00    +0.000 A 
ATOM      8  C   UNL     1       2.433   4.271  19.791  0.00  0.00    +0.000 A 
ATOM      9  C   UNL     1       3.788   4.576  19.659  0.00  0.00    +0.000 A 
ATOM     10  C   UNL     1       4.432   4.511  18.395  0.00  0.00    +0.000 A 
ENDROOT
BRANCH   3  11
ATOM     11  C   UNL     1       6.092   4.301  14.564  0.00  0.00    +0.000 A 
ATOM     12  C   UNL     1       5.559   3.500  13.543  0.00  0.00    +0.000 A 
ATOM     13  C   UNL     1       6.104   3.525  12.260  0.00  0.00    +0.000 A 
ATOM     14  C   UNL     1       7.185   4.356  12.024  0.00  0.00    +0.000 A 
ATOM     15  N   UNL     1       7.745   5.137  12.968  0.00  0.00    +0.000 NA
ATOM     16  C   UNL     1       7.187   5.087  14.207  0.00  0.00    +0.000 A 
ENDBRANCH   3  11
BRANCH   1  17
ATOM     17  N   UNL     1       6.611   5.236  19.212  0.00  0.00    +0.000 N 
ATOM     18  H   UNL     1       6.059   5.822  19.827  0.00  0.00    +0.000 HD
BRANCH  17  19
ATOM     19  C   UNL     1       7.889   5.856  18.827  0.00  0.00    +0.000 C 
BRANCH  19  20
ATOM     20  C   UNL     1       7.685   7.275  18.236  0.00  0.00    +0.000 C 
BRANCH  20  21
ATOM     21  O   UNL     1       7.907   7.273  16.820  0.00  0.00    +0.000 OA
ATOM     22  H   UNL     1       8.285   8.137  16.582  0.00  0.00    +0.000 HD
ENDBRANCH  20  21
BRANCH  20  23
ATOM     23  C   UNL     1       8.623   8.287  18.907  0.00  0.00    +0.000 C 
BRANCH  23  24
ATOM     24  O   UNL     1       8.616   9.539  18.213  0.00  0.00    +0.000 OA
BRANCH  24  25
ATOM     25  C   UNL     1       9.388  10.527  18.772  0.00  0.00    +0.000 A 
ATOM     26  C   UNL     1       9.497  10.794  20.143  0.00  0.00    +0.000 A 
ATOM     27  C   UNL     1      10.300  11.845  20.592  0.00  0.00    +0.000 A 
ATOM     28  C   UNL     1      10.991  12.623  19.675  0.00  0.00    +0.000 A 
ATOM     29  F   UNL     1      11.752  13.634  20.112  0.00  0.00    +0.000 F 
ATOM     30  C   UNL     1      10.898  12.369  18.313  0.00  0.00    +0.000 A 
ATOM     31  C   UNL     1      10.097  11.318  17.862  0.00  0.00    +0.000 A 
ENDBRANCH  24  25
ENDBRANCH  23  24
ENDBRANCH  20  23
ENDBRANCH  19  20
ENDBRANCH  17  19
ENDBRANCH   1  17
TORSDOF 8
ENDMDL
MODEL 7
REMARK VINA RESULT:      -8.4      4.368      7.909
REMARK  Name = 
REMARK  8 active torsions:
REMARK  status: ('A' for Active; 'I' for Inactive)
REMARK    1  A    between atoms: O_1  and  C_2
REMARK    2  A    between atoms: C_2  and  C_3
REMARK    3  A    between atoms: C_2  and  C_21
REMARK    4  A    between atoms: C_3  and  N_4
REMARK    5  A    between atoms: N_4  and  C_5
REMARK    6  A    between atoms: C_7  and  C_8
REMARK    7  A    between atoms: C_21  and  O_22
REMARK    8  A    between atoms: O_22  and  C_23
REMARK                            x       y       z     vdW  Elec       q    Type
REMARK                         _______ _______ _______ _____ _____    ______ ____
ROOT
ATOM      1  C   UNL     1       3.199   5.843  19.060  0.00  0.00    +0.000 A 
ATOM      2  N   UNL     1       4.137   5.872  18.100  0.00  0.00    +0.000 NA
ATOM      3  C   UNL     1       4.459   4.710  17.509  0.00  0.00    +0.000 A 
ATOM      4  N   UNL     1       3.920   3.521  17.823  0.00  0.00    +0.000 NA
ATOM      5  C   UNL     1       3.002   3.495  18.790  0.00  0.00    +0.000 A 
ATOM      6  C   UNL     1       2.430   2.272  19.122  0.00  0.00    +0.000 A 
ATOM      7  C   UNL     1       1.451   2.158  20.112  0.00  0.00    +0.000 A 
ATOM      8  C   UNL     1       1.033   3.290  20.797  0.00  0.00    +0.000 A 
ATOM      9  C   UNL     1       1.599   4.527  20.486  0.00  0.00    +0.000 A 
ATOM     10  C   UNL     1       2.584   4.644  19.469  0.00  0.00    +0.000 A 
ENDROOT
BRANCH   3  11
ATOM     11  C   UNL     1       5.424   4.749  16.404  0.00  0.00    +0.000 A 
ATOM     12  C   UNL     1       5.215   4.063  15.197  0.00  0.00    +0.000 A 
ATOM     13  C   UNL     1       6.138   4.157  14.156  0.00  0.00    +0.000 A 
ATOM     14  C   UNL     1       7.263   4.939  14.346  0.00  0.00    +0.000 A 
ATOM     15  N   UNL     1       7.521   5.609  15.487  0.00  0.00    +0.000 NA
ATOM     16  C   UNL     1       6.599   5.495  16.480  0.00  0.00    +0.000 A 
ENDBRANCH   3  11
BRANCH   1  17
ATOM     17  N   UNL     1       2.842   7.059  19.682  0.00  0.00    +0.000 N 
ATOM     18  H   UNL     1       2.355   6.838  20.543  0.00  0.00    +0.000 HD
BRANCH  17  19
ATOM     19  C   UNL     1       2.107   8.018  18.840  0.00  0.00    +0.000 C 
BRANCH  19  20
ATOM     20  C   UNL     1       1.501   9.172  19.678  0.00  0.00    +0.000 C 
BRANCH  20  21
ATOM     21  O   UNL     1       0.546   8.669  20.620  0.00  0.00    +0.000 OA
ATOM     22  H   UNL     1       1.013   8.522  21.461  0.00  0.00    +0.000 HD
ENDBRANCH  20  21
BRANCH  20  23
ATOM     23  C   UNL     1       0.835  10.215  18.770  0.00  0.00    +0.000 C 
BRANCH  23  24
ATOM     24  O   UNL     1      -0.308  10.800  19.405  0.00  0.00    +0.000 OA
BRANCH  24  25
ATOM     25  C   UNL     1      -1.438  10.876  18.629  0.00  0.00    +0.000 A 
ATOM     26  C   UNL     1      -2.551  11.684  18.892  0.00  0.00    +0.000 A 
ATOM     27  C   UNL     1      -3.656  11.658  18.038  0.00  0.00    +0.000 A 
ATOM     28  C   UNL     1      -3.646  10.829  16.927  0.00  0.00    +0.000 A 
ATOM     29  F   UNL     1      -4.711  10.802  16.117  0.00  0.00    +0.000 F 
ATOM     30  C   UNL     1      -2.548  10.025  16.648  0.00  0.00    +0.000 A 
ATOM     31  C   UNL     1      -1.442  10.050  17.500  0.00  0.00    +0.000 A 
ENDBRANCH  24  25
ENDBRANCH  23  24
ENDBRANCH  20  23
ENDBRANCH  19  20
ENDBRANCH  17  19
ENDBRANCH   1  17
TORSDOF 8
ENDMDL
MODEL 8
REMARK VINA RESULT:      -8.4      4.534      7.961
REMARK  Name = 
REMARK  8 active torsions:
REMARK  status: ('A' for Active; 'I' for Inactive)
REMARK    1  A    between atoms: O_1  and  C_2
REMARK    2  A    between atoms: C_2  and  C_3
REMARK    3  A    between atoms: C_2  and  C_21
REMARK    4  A    between atoms: C_3  and  N_4
REMARK    5  A    between atoms: N_4  and  C_5
REMARK    6  A    between atoms: C_7  and  C_8
REMARK    7  A    between atoms: C_21  and  O_22
REMARK    8  A    between atoms: O_22  and  C_23
REMARK                            x       y       z     vdW  Elec       q    Type
REMARK                         _______ _______ _______ _____ _____    ______ ____
ROOT
ATOM      1  C   UNL     1       3.037   6.032  19.123  0.00  0.00    +0.000 A 
ATOM      2  N   UNL     1       3.963   6.060  18.151  0.00  0.00    +0.000 NA
ATOM      3  C   UNL     1       4.391   4.883  17.666  0.00  0.00    +0.000 A 
ATOM      4  N   UNL     1       3.970   3.683  18.095  0.00  0.00    +0.000 NA
ATOM      5  C   UNL     1       3.063   3.660  19.073  0.00  0.00    +0.000 A 
ATOM      6  C   UNL     1       2.612   2.425  19.524  0.00  0.00    +0.000 A 
ATOM      7  C   UNL     1       1.654   2.312  20.534  0.00  0.00    +0.000 A 
ATOM      8  C   UNL     1       1.133   3.457  21.117  0.00  0.00    +0.000 A 
ATOM      9  C   UNL     1       1.577   4.708  20.686  0.00  0.00    +0.000 A 
ATOM     10  C   UNL     1       2.541   4.823  19.649  0.00  0.00    +0.000 A 
ENDROOT
BRANCH   3  11
ATOM     11  C   UNL     1       5.342   4.911  16.548  0.00  0.00    +0.000 A 
ATOM     12  C   UNL     1       5.142   4.173  15.371  0.00  0.00    +0.000 A 
ATOM     13  C   UNL     1       6.050   4.255  14.315  0.00  0.00    +0.000 A 
ATOM     14  C   UNL     1       7.151   5.080  14.462  0.00  0.00    +0.000 A 
ATOM     15  N   UNL     1       7.400   5.801  15.573  0.00  0.00    +0.000 NA
ATOM     16  C   UNL     1       6.494   5.696  16.581  0.00  0.00    +0.000 A 
ENDBRANCH   3  11
BRANCH   1  17
ATOM     17  N   UNL     1       2.568   7.261  19.635  0.00  0.00    +0.000 N 
ATOM     18  H   UNL     1       1.872   7.059  20.343  0.00  0.00    +0.000 HD
BRANCH  17  19
ATOM     19  C   UNL     1       2.101   8.235  18.635  0.00  0.00    +0.000 C 
BRANCH  19  20
ATOM     20  C   UNL     1       1.405   9.451  19.299  0.00  0.00    +0.000 C 
BRANCH  20  21
ATOM     21  O   UNL     1       0.533   9.025  20.354  0.00  0.00    +0.000 OA
ATOM     22  H   UNL     1       1.091   8.720  21.090  0.00  0.00    +0.000 HD
ENDBRANCH  20  21
BRANCH  20  23
ATOM     23  C   UNL     1       0.610  10.259  18.263  0.00  0.00    +0.000 C 
BRANCH  23  24
ATOM     24  O   UNL     1      -0.382   9.447  17.625  0.00  0.00    +0.000 OA
BRANCH  24  25
ATOM     25  C   UNL     1      -1.583  10.067  17.385  0.00  0.00    +0.000 A 
ATOM     26  C   UNL     1      -2.327   9.965  16.203  0.00  0.00    +0.000 A 
ATOM     27  C   UNL     1      -3.529  10.664  16.066  0.00  0.00    +0.000 A 
ATOM     28  C   UNL     1      -3.983  11.460  17.107  0.00  0.00    +0.000 A 
ATOM     29  F   UNL     1      -5.130  12.135  16.966  0.00  0.00    +0.000 F 
ATOM     30  C   UNL     1      -3.260  11.569  18.288  0.00  0.00    +0.000 A 
ATOM     31  C   UNL     1      -2.059  10.870  18.426  0.00  0.00    +0.000 A 
ENDBRANCH  24  25
ENDBRANCH  23  24
ENDBRANCH  20  23
ENDBRANCH  19  20
ENDBRANCH  17  19
ENDBRANCH   1  17
TORSDOF 8
ENDMDL
MODEL 9
REMARK VINA RESULT:      -8.3      1.438      1.899
REMARK  Name = 
REMARK  8 active torsions:
REMARK  status: ('A' for Active; 'I' for Inactive)
REMARK    1  A    between atoms: O_1  and  C_2
REMARK    2  A    between atoms: C_2  and  C_3
REMARK    3  A    between atoms: C_2  and  C_21
REMARK    4  A    between atoms: C_3  and  N_4
REMARK    5  A    between atoms: N_4  and  C_5
REMARK    6  A    between atoms: C_7  and  C_8
REMARK    7  A    between atoms: C_21  and  O_22
REMARK    8  A    between atoms: O_22  and  C_23
REMARK                            x       y       z     vdW  Elec       q    Type
REMARK                         _______ _______ _______ _____ _____    ______ ____
ROOT
ATOM      1  C   UNL     1       4.003   5.167  18.584  0.00  0.00    +0.000 A 
ATOM      2  N   UNL     1       3.493   6.399  18.422  0.00  0.00    +0.000 NA
ATOM      3  C   UNL     1       2.522   6.785  19.264  0.00  0.00    +0.000 A 
ATOM      4  N   UNL     1       2.015   6.022  20.245  0.00  0.00    +0.000 NA
ATOM      5  C   UNL     1       2.512   4.793  20.391  0.00  0.00    +0.000 A 
ATOM      6  C   UNL     1       2.002   3.992  21.406  0.00  0.00    +0.000 A 
ATOM      7  C   UNL     1       2.476   2.698  21.636  0.00  0.00    +0.000 A 
ATOM      8  C   UNL     1       3.481   2.183  20.832  0.00  0.00    +0.000 A 
ATOM      9  C   UNL     1       4.003   2.966  19.801  0.00  0.00    +0.000 A 
ATOM     10  C   UNL     1       3.530   4.286  19.576  0.00  0.00    +0.000 A 
ENDROOT
BRANCH   3  11
ATOM     11  C   UNL     1       2.019   8.159  19.143  0.00  0.00    +0.000 A 
ATOM     12  C   UNL     1       2.245   8.946  18.002  0.00  0.00    +0.000 A 
ATOM     13  C   UNL     1       1.718  10.233  17.909  0.00  0.00    +0.000 A 
ATOM     14  C   UNL     1       0.972  10.713  18.970  0.00  0.00    +0.000 A 
ATOM     15  N   UNL     1       0.733  10.009  20.094  0.00  0.00    +0.000 NA
ATOM     16  C   UNL     1       1.263   8.758  20.149  0.00  0.00    +0.000 A 
ENDBRANCH   3  11
BRANCH   1  17
ATOM     17  N   UNL     1       5.034   4.751  17.714  0.00  0.00    +0.000 N 
ATOM     18  H   UNL     1       4.735   3.893  17.264  0.00  0.00    +0.000 HD
BRANCH  17  19
ATOM     19  C   UNL     1       6.375   4.645  18.313  0.00  0.00    +0.000 C 
BRANCH  19  20
ATOM     20  C   UNL     1       7.396   5.569  17.601  0.00  0.00    +0.000 C 
BRANCH  20  21
ATOM     21  O   UNL     1       7.759   6.670  18.444  0.00  0.00    +0.000 OA
ATOM     22  H   UNL     1       8.109   7.374  17.871  0.00  0.00    +0.000 HD
ENDBRANCH  20  21
BRANCH  20  23
ATOM     23  C   UNL     1       6.827   6.095  16.276  0.00  0.00    +0.000 C 
BRANCH  23  24
ATOM     24  O   UNL     1       7.698   5.789  15.181  0.00  0.00    +0.000 OA
BRANCH  24  25
ATOM     25  C   UNL     1       7.149   5.013  14.191  0.00  0.00    +0.000 A 
ATOM     26  C   UNL     1       7.738   4.745  12.949  0.00  0.00    +0.000 A 
ATOM     27  C   UNL     1       7.069   3.956  12.010  0.00  0.00    +0.000 A 
ATOM     28  C   UNL     1       5.819   3.438  12.313  0.00  0.00    +0.000 A 
ATOM     29  F   UNL     1       5.179   2.691  11.406  0.00  0.00    +0.000 F 
ATOM     30  C   UNL     1       5.222   3.690  13.542  0.00  0.00    +0.000 A 
ATOM     31  C   UNL     1       5.890   4.478  14.482  0.00  0.00    +0.000 A 
ENDBRANCH  24  25
ENDBRANCH  23  24
ENDBRANCH  20  23
ENDBRANCH  19  20
ENDBRANCH  17  19
ENDBRANCH   1  17
TORSDOF 8
ENDMDL
