MODEL 1
REMARK VINA RESULT:      -8.6      0.000      0.000
REMARK  Name = 
REMARK  7 active torsions:
REMARK  status: ('A' for Active; 'I' for Inactive)
REMARK    1  A    between atoms: C_1  and  C_2
REMARK    2  A    between atoms: C_2  and  C_3
REMARK    3  A    between atoms: C_5  and  N_6
REMARK    4  A    between atoms: N_6  and  C_7
REMARK    5  A    between atoms: C_7  and  C_8
REMARK    6  A    between atoms: C_12  and  C_13
REMARK    7  A    between atoms: C_15  and  C_16
REMARK                            x       y       z     vdW  Elec       q    Type
REMARK                         _______ _______ _______ _____ _____    ______ ____
ROOT
ATOM      1  C   UNL     1       2.734   6.403  19.717  0.00  0.00    +0.000 C 
ENDROOT
BRANCH   1   2
ATOM      2  C   UNL     1       1.956   5.118  19.398  0.00  0.00    +0.000 C 
ATOM      3  C   UNL     1       1.309   4.572  20.669  0.00  0.00    +0.000 C 
ATOM      4  C   UNL     1       2.336   3.594  21.184  0.00  0.00    +0.000 C 
ATOM      5  O   UNL     1       2.909   2.991  20.026  0.00  0.00    +0.000 OA
ATOM      6  C   UNL     1       2.754   3.900  18.911  0.00  0.00    +0.000 C 
BRANCH   6   7
ATOM      7  C   UNL     1       4.096   4.138  18.310  0.00  0.00    +0.000 A 
ATOM      8  N   UNL     1       5.227   4.456  18.904  0.00  0.00    +0.000 NA
ATOM      9  C   UNL     1       6.081   4.615  17.842  0.00  0.00    +0.000 A 
ATOM     10  N   UNL     1       5.554   4.309  16.650  0.00  0.00    +0.000 NA
ATOM     11  O   UNL     1       4.228   3.993  16.956  0.00  0.00    +0.000 OA
BRANCH   9  12
ATOM     12  C   UNL     1       7.503   5.133  17.988  0.00  0.00    +0.000 C 
ATOM     13  C   UNL     1       7.934   5.792  19.283  0.00  0.00    +0.000 C 
ATOM     14  C   UNL     1       7.693   6.637  18.081  0.00  0.00    +0.000 C 
ENDBRANCH   9  12
ENDBRANCH   6   7
ENDBRANCH   1   2
BRANCH   1  15
ATOM     15  N   UNL     1       2.048   7.258  20.685  0.00  0.00    +0.000 NA
ATOM     16  H   UNL     1       1.604   6.717  21.426  0.00  0.00    +0.000 HD
BRANCH  15  21
ATOM     17  C   UNL     1       1.509  11.587  18.713  0.00  0.00    +0.000 C 
ATOM     18  C   UNL     1       0.653  10.364  19.062  0.00  0.00    +0.000 C 
ATOM     19  C   UNL     1      -0.557  10.265  18.129  0.00  0.00    +0.000 C 
ATOM     20  C   UNL     1       1.507   9.071  18.980  0.00  0.00    +0.000 C 
ATOM     21  C   UNL     1       1.024   8.134  20.112  0.00  0.00    +0.000 C 
ATOM     22  C   UNL     1       0.416   9.094  21.091  0.00  0.00    +0.000 A 
ATOM     23  C   UNL     1       0.025   8.832  22.399  0.00  0.00    +0.000 A 
ATOM     24  C   UNL     1      -0.521   9.865  23.156  0.00  0.00    +0.000 A 
ATOM     25  C   UNL     1      -0.697  11.135  22.586  0.00  0.00    +0.000 A 
ATOM     26  C   UNL     1      -0.341  11.387  21.259  0.00  0.00    +0.000 A 
ATOM     27  C   UNL     1       0.218  10.354  20.510  0.00  0.00    +0.000 A 
ENDBRANCH  15  21
ENDBRANCH   1  15
TORSDOF 5
ENDMDL
MODEL 2
REMARK VINA RESULT:      -8.6      1.157      1.284
REMARK  Name = 
REMARK  7 active torsions:
REMARK  status: ('A' for Active; 'I' for Inactive)
REMARK    1  A    between atoms: C_1  and  C_2
REMARK    2  A    between atoms: C_2  and  C_3
REMARK    3  A    between atoms: C_5  and  N_6
REMARK    4  A    between atoms: N_6  and  C_7
REMARK    5  A    between atoms: C_7  and  C_8
REMARK    6  A    between atoms: C_12  and  C_13
REMARK    7  A    between atoms: C_15  and  C_16
REMARK                            x       y       z     vdW  Elec       q    Type
REMARK                         _______ _______ _______ _____ _____    ______ ____
ROOT
ATOM      1  C   UNL     1       2.394   5.451  20.353  0.00  0.00    +0.000 C 
ENDROOT
BRANCH   1   2
ATOM      2  C   UNL     1       1.884   4.678  19.128  0.00  0.00    +0.000 C 
ATOM      3  C   UNL     1       1.008   3.510  19.578  0.00  0.00    +0.000 C 
ATOM      4  C   UNL     1       1.983   2.361  19.658  0.00  0.00    +0.000 C 
ATOM      5  O   UNL     1       2.899   2.556  18.584  0.00  0.00    +0.000 OA
ATOM      6  C   UNL     1       2.922   3.964  18.250  0.00  0.00    +0.000 C 
BRANCH   6   7
ATOM      7  C   UNL     1       4.333   4.437  18.310  0.00  0.00    +0.000 A 
ATOM      8  N   UNL     1       4.897   5.448  17.683  0.00  0.00    +0.000 NA
ATOM      9  C   UNL     1       6.208   5.339  18.071  0.00  0.00    +0.000 A 
ATOM     10  N   UNL     1       6.446   4.383  18.976  0.00  0.00    +0.000 NA
ATOM     11  O   UNL     1       5.198   3.774  19.136  0.00  0.00    +0.000 OA
BRANCH   9  12
ATOM     12  C   UNL     1       7.320   6.203  17.497  0.00  0.00    +0.000 C 
ATOM     13  C   UNL     1       8.107   7.121  18.411  0.00  0.00    +0.000 C 
ATOM     14  C   UNL     1       7.100   7.706  17.481  0.00  0.00    +0.000 C 
ENDBRANCH   9  12
ENDBRANCH   6   7
ENDBRANCH   1   2
BRANCH   1  15
ATOM     15  N   UNL     1       2.774   6.829  20.038  0.00  0.00    +0.000 NA
ATOM     16  H   UNL     1       3.184   7.305  20.839  0.00  0.00    +0.000 HD
BRANCH  15  21
ATOM     17  C   UNL     1       1.937  11.156  18.170  0.00  0.00    +0.000 C 
ATOM     18  C   UNL     1       1.154   9.895  18.554  0.00  0.00    +0.000 C 
ATOM     19  C   UNL     1      -0.108   9.759  17.699  0.00  0.00    +0.000 C 
ATOM     20  C   UNL     1       2.053   8.639  18.399  0.00  0.00    +0.000 C 
ATOM     21  C   UNL     1       1.681   7.669  19.545  0.00  0.00    +0.000 C 
ATOM     22  C   UNL     1       1.100   8.592  20.575  0.00  0.00    +0.000 A 
ATOM     23  C   UNL     1       0.804   8.297  21.901  0.00  0.00    +0.000 A 
ATOM     24  C   UNL     1       0.267   9.297  22.707  0.00  0.00    +0.000 A 
ATOM     25  C   UNL     1       0.005  10.567  22.168  0.00  0.00    +0.000 A 
ATOM     26  C   UNL     1       0.264  10.849  20.826  0.00  0.00    +0.000 A 
ATOM     27  C   UNL     1       0.815   9.850  20.026  0.00  0.00    +0.000 A 
ENDBRANCH  15  21
ENDBRANCH   1  15
TORSDOF 5
ENDMDL
MODEL 3
REMARK VINA RESULT:      -8.5      1.148      1.569
REMARK  Name = 
REMARK  7 active torsions:
REMARK  status: ('A' for Active; 'I' for Inactive)
REMARK    1  A    between atoms: C_1  and  C_2
REMARK    2  A    between atoms: C_2  and  C_3
REMARK    3  A    between atoms: C_5  and  N_6
REMARK    4  A    between atoms: N_6  and  C_7
REMARK    5  A    between atoms: C_7  and  C_8
REMARK    6  A    between atoms: C_12  and  C_13
REMARK    7  A    between atoms: C_15  and  C_16
REMARK                            x       y       z     vdW  Elec       q    Type
REMARK                         _______ _______ _______ _____ _____    ______ ____
ROOT
ATOM      1  C   UNL     1       2.766   6.484  19.614  0.00  0.00    +0.000 C 
ENDROOT
BRANCH   1   2
ATOM      2  C   UNL     1       2.019   5.158  19.412  0.00  0.00    +0.000 C 
ATOM      3  C   UNL     1       1.366   4.723  20.722  0.00  0.00    +0.000 C 
ATOM      4  C   UNL     1       2.406   3.821  21.341  0.00  0.00    +0.000 C 
ATOM      5  O   UNL     1       3.006   3.123  20.253  0.00  0.00    +0.000 OA
ATOM      6  C   UNL     1       2.848   3.916  19.054  0.00  0.00    +0.000 C 
BRANCH   6   7
ATOM      7  C   UNL     1       4.193   4.124  18.449  0.00  0.00    +0.000 A 
ATOM      8  N   UNL     1       4.509   4.397  17.200  0.00  0.00    +0.000 NA
ATOM      9  C   UNL     1       5.881   4.397  17.238  0.00  0.00    +0.000 A 
ATOM     10  N   UNL     1       6.407   4.243  18.459  0.00  0.00    +0.000 NA
ATOM     11  O   UNL     1       5.285   4.057  19.271  0.00  0.00    +0.000 OA
BRANCH   9  12
ATOM     12  C   UNL     1       6.747   4.523  15.994  0.00  0.00    +0.000 C 
ATOM     13  C   UNL     1       6.239   5.306  14.800  0.00  0.00    +0.000 C 
ATOM     14  C   UNL     1       6.271   3.818  14.736  0.00  0.00    +0.000 C 
ENDBRANCH   9  12
ENDBRANCH   6   7
ENDBRANCH   1   2
BRANCH   1  15
ATOM     15  N   UNL     1       2.123   7.355  20.598  0.00  0.00    +0.000 NA
ATOM     16  H   UNL     1       1.728   6.828  21.375  0.00  0.00    +0.000 HD
BRANCH  15  21
ATOM     17  C   UNL     1       1.393  11.692  18.708  0.00  0.00    +0.000 C 
ATOM     18  C   UNL     1       0.587  10.435  19.056  0.00  0.00    +0.000 C 
ATOM     19  C   UNL     1      -0.640  10.310  18.149  0.00  0.00    +0.000 C 
ATOM     20  C   UNL     1       1.483   9.174  18.935  0.00  0.00    +0.000 C 
ATOM     21  C   UNL     1       1.057   8.204  20.063  0.00  0.00    +0.000 C 
ATOM     22  C   UNL     1       0.440   9.128  21.070  0.00  0.00    +0.000 A 
ATOM     23  C   UNL     1       0.087   8.833  22.382  0.00  0.00    +0.000 A 
ATOM     24  C   UNL     1      -0.476   9.835  23.167  0.00  0.00    +0.000 A 
ATOM     25  C   UNL     1      -0.707  11.107  22.621  0.00  0.00    +0.000 A 
ATOM     26  C   UNL     1      -0.391  11.390  21.291  0.00  0.00    +0.000 A 
ATOM     27  C   UNL     1       0.186  10.389  20.513  0.00  0.00    +0.000 A 
ENDBRANCH  15  21
ENDBRANCH   1  15
TORSDOF 5
ENDMDL
MODEL 4
REMARK VINA RESULT:      -8.5      1.457      2.843
REMARK  Name = 
REMARK  7 active torsions:
REMARK  status: ('A' for Active; 'I' for Inactive)
REMARK    1  A    between atoms: C_1  and  C_2
REMARK    2  A    between atoms: C_2  and  C_3
REMARK    3  A    between atoms: C_5  and  N_6
REMARK    4  A    between atoms: N_6  and  C_7
REMARK    5  A    between atoms: C_7  and  C_8
REMARK    6  A    between atoms: C_12  and  C_13
REMARK    7  A    between atoms: C_15  and  C_16
REMARK                            x       y       z     vdW  Elec       q    Type
REMARK                         _______ _______ _______ _____ _____    ______ ____
ROOT
ATOM      1  C   UNL     1       1.974   4.952  19.249  0.00  0.00    +0.000 C 
ENDROOT
BRANCH   1   2
ATOM      2  C   UNL     1       1.897   3.894  18.138  0.00  0.00    +0.000 C 
ATOM      3  C   UNL     1       1.086   2.693  18.619  0.00  0.00    +0.000 C 
ATOM      4  C   UNL     1       2.141   1.764  19.168  0.00  0.00    +0.000 C 
ATOM      5  O   UNL     1       3.272   1.918  18.314  0.00  0.00    +0.000 OA
ATOM      6  C   UNL     1       3.207   3.225  17.697  0.00  0.00    +0.000 C 
BRANCH   6   7
ATOM      7  C   UNL     1       4.484   3.938  17.972  0.00  0.00    +0.000 A 
ATOM      8  N   UNL     1       5.079   4.879  17.268  0.00  0.00    +0.000 NA
ATOM      9  C   UNL     1       6.239   5.083  17.972  0.00  0.00    +0.000 A 
ATOM     10  N   UNL     1       6.328   4.393  19.115  0.00  0.00    +0.000 NA
ATOM     11  O   UNL     1       5.162   3.624  19.119  0.00  0.00    +0.000 OA
BRANCH   9  12
ATOM     12  C   UNL     1       7.359   5.989  17.484  0.00  0.00    +0.000 C 
ATOM     13  C   UNL     1       8.023   6.950  18.449  0.00  0.00    +0.000 C 
ATOM     14  C   UNL     1       7.078   7.480  17.427  0.00  0.00    +0.000 C 
ENDBRANCH   9  12
ENDBRANCH   6   7
ENDBRANCH   1   2
BRANCH   1  15
ATOM     15  N   UNL     1       2.341   6.277  18.748  0.00  0.00    +0.000 NA
ATOM     16  H   UNL     1       3.275   6.286  18.340  0.00  0.00    +0.000 HD
BRANCH  15  21
ATOM     17  C   UNL     1      -0.663   8.395  21.814  0.00  0.00    +0.000 C 
ATOM     18  C   UNL     1       0.804   8.497  21.380  0.00  0.00    +0.000 C 
ATOM     19  C   UNL     1       1.667   9.052  22.516  0.00  0.00    +0.000 C 
ATOM     20  C   UNL     1       1.327   7.107  20.931  0.00  0.00    +0.000 C 
ATOM     21  C   UNL     1       2.293   7.346  19.746  0.00  0.00    +0.000 C 
ATOM     22  C   UNL     1       1.830   8.669  19.212  0.00  0.00    +0.000 A 
ATOM     23  C   UNL     1       2.191   9.267  18.010  0.00  0.00    +0.000 A 
ATOM     24  C   UNL     1       1.647  10.508  17.687  0.00  0.00    +0.000 A 
ATOM     25  C   UNL     1       0.775  11.145  18.584  0.00  0.00    +0.000 A 
ATOM     26  C   UNL     1       0.445  10.562  19.808  0.00  0.00    +0.000 A 
ATOM     27  C   UNL     1       0.981   9.314  20.121  0.00  0.00    +0.000 A 
ENDBRANCH  15  21
ENDBRANCH   1  15
TORSDOF 5
ENDMDL
MODEL 5
REMARK VINA RESULT:      -8.3      3.062      7.773
REMARK  Name = 
REMARK  7 active torsions:
REMARK  status: ('A' for Active; 'I' for Inactive)
REMARK    1  A    between atoms: C_1  and  C_2
REMARK    2  A    between atoms: C_2  and  C_3
REMARK    3  A    between atoms: C_5  and  N_6
REMARK    4  A    between atoms: N_6  and  C_7
REMARK    5  A    between atoms: C_7  and  C_8
REMARK    6  A    between atoms: C_12  and  C_13
REMARK    7  A    between atoms: C_15  and  C_16
REMARK                            x       y       z     vdW  Elec       q    Type
REMARK                         _______ _______ _______ _____ _____    ______ ____
ROOT
ATOM      1  C   UNL     1       0.697   7.989  21.232  0.00  0.00    +0.000 C 
ENDROOT
BRANCH   1   2
ATOM      2  C   UNL     1       1.022   9.405  21.731  0.00  0.00    +0.000 C 
ATOM      3  C   UNL     1       0.616   9.546  23.196  0.00  0.00    +0.000 C 
ATOM      4  C   UNL     1      -0.784  10.106  23.111  0.00  0.00    +0.000 C 
ATOM      5  O   UNL     1      -0.777  10.991  21.994  0.00  0.00    +0.000 OA
ATOM      6  C   UNL     1       0.273  10.580  21.088  0.00  0.00    +0.000 C 
BRANCH   6   7
ATOM      7  C   UNL     1      -0.325  10.375  19.739  0.00  0.00    +0.000 A 
ATOM      8  N   UNL     1      -1.580  10.493  19.361  0.00  0.00    +0.000 NA
ATOM      9  C   UNL     1      -1.527  10.109  18.045  0.00  0.00    +0.000 A 
ATOM     10  N   UNL     1      -0.295   9.866  17.582  0.00  0.00    +0.000 NA
ATOM     11  O   UNL     1       0.511  10.038  18.710  0.00  0.00    +0.000 OA
BRANCH   9  12
ATOM     12  C   UNL     1      -2.765   9.932  17.179  0.00  0.00    +0.000 C 
ATOM     13  C   UNL     1      -2.630   9.900  15.670  0.00  0.00    +0.000 C 
ATOM     14  C   UNL     1      -3.196  11.112  16.325  0.00  0.00    +0.000 C 
ENDBRANCH   9  12
ENDBRANCH   6   7
ENDBRANCH   1   2
BRANCH   1  15
ATOM     15  N   UNL     1       1.893   7.181  20.993  0.00  0.00    +0.000 NA
ATOM     16  H   UNL     1       2.663   7.738  20.626  0.00  0.00    +0.000 HD
BRANCH  15  21
ATOM     17  C   UNL     1       3.336   2.675  20.265  0.00  0.00    +0.000 C 
ATOM     18  C   UNL     1       2.382   3.697  19.634  0.00  0.00    +0.000 C 
ATOM     19  C   UNL     1       1.238   2.990  18.903  0.00  0.00    +0.000 C 
ATOM     20  C   UNL     1       1.823   4.650  20.724  0.00  0.00    +0.000 C 
ATOM     21  C   UNL     1       1.699   6.052  20.081  0.00  0.00    +0.000 C 
ATOM     22  C   UNL     1       2.695   5.985  18.962  0.00  0.00    +0.000 A 
ATOM     23  C   UNL     1       3.168   7.039  18.189  0.00  0.00    +0.000 A 
ATOM     24  C   UNL     1       4.100   6.773  17.190  0.00  0.00    +0.000 A 
ATOM     25  C   UNL     1       4.522   5.454  16.957  0.00  0.00    +0.000 A 
ATOM     26  C   UNL     1       4.015   4.391  17.707  0.00  0.00    +0.000 A 
ATOM     27  C   UNL     1       3.093   4.664  18.715  0.00  0.00    +0.000 A 
ENDBRANCH  15  21
ENDBRANCH   1  15
TORSDOF 5
ENDMDL
MODEL 6
REMARK VINA RESULT:      -8.3      1.749      1.905
REMARK  Name = 
REMARK  7 active torsions:
REMARK  status: ('A' for Active; 'I' for Inactive)
REMARK    1  A    between atoms: C_1  and  C_2
REMARK    2  A    between atoms: C_2  and  C_3
REMARK    3  A    between atoms: C_5  and  N_6
REMARK    4  A    between atoms: N_6  and  C_7
REMARK    5  A    between atoms: C_7  and  C_8
REMARK    6  A    between atoms: C_12  and  C_13
REMARK    7  A    between atoms: C_15  and  C_16
REMARK                            x       y       z     vdW  Elec       q    Type
REMARK                         _______ _______ _______ _____ _____    ______ ____
ROOT
ATOM      1  C   UNL     1       2.783   5.517  20.244  0.00  0.00    +0.000 C 
ENDROOT
BRANCH   1   2
ATOM      2  C   UNL     1       1.556   5.005  19.477  0.00  0.00    +0.000 C 
ATOM      3  C   UNL     1       0.844   3.927  20.292  0.00  0.00    +0.000 C 
ATOM      4  C   UNL     1       1.459   2.648  19.779  0.00  0.00    +0.000 C 
ATOM      5  O   UNL     1       1.676   2.856  18.385  0.00  0.00    +0.000 OA
ATOM      6  C   UNL     1       1.796   4.278  18.146  0.00  0.00    +0.000 C 
BRANCH   6   7
ATOM      7  C   UNL     1       3.080   4.527  17.435  0.00  0.00    +0.000 A 
ATOM      8  N   UNL     1       3.853   3.675  16.794  0.00  0.00    +0.000 NA
ATOM      9  C   UNL     1       4.913   4.463  16.423  0.00  0.00    +0.000 A 
ATOM     10  N   UNL     1       4.774   5.762  16.714  0.00  0.00    +0.000 NA
ATOM     11  O   UNL     1       3.554   5.810  17.394  0.00  0.00    +0.000 OA
BRANCH   9  12
ATOM     12  C   UNL     1       6.170   3.912  15.767  0.00  0.00    +0.000 C 
ATOM     13  C   UNL     1       7.091   4.843  15.005  0.00  0.00    +0.000 C 
ATOM     14  C   UNL     1       6.220   3.902  14.249  0.00  0.00    +0.000 C 
ENDBRANCH   9  12
ENDBRANCH   6   7
ENDBRANCH   1   2
BRANCH   1  15
ATOM     15  N   UNL     1       2.985   6.959  20.099  0.00  0.00    +0.000 NA
ATOM     16  H   UNL     1       3.275   7.395  20.973  0.00  0.00    +0.000 HD
BRANCH  15  21
ATOM     17  C   UNL     1       1.760  11.150  18.137  0.00  0.00    +0.000 C 
ATOM     18  C   UNL     1       1.090   9.843  18.577  0.00  0.00    +0.000 C 
ATOM     19  C   UNL     1      -0.178   9.583  17.760  0.00  0.00    +0.000 C 
ATOM     20  C   UNL     1       2.082   8.658  18.432  0.00  0.00    +0.000 C 
ATOM     21  C   UNL     1       1.817   7.696  19.614  0.00  0.00    +0.000 C 
ATOM     22  C   UNL     1       1.190   8.600  20.633  0.00  0.00    +0.000 A 
ATOM     23  C   UNL     1       0.952   8.322  21.975  0.00  0.00    +0.000 A 
ATOM     24  C   UNL     1       0.357   9.301  22.767  0.00  0.00    +0.000 A 
ATOM     25  C   UNL     1      -0.018  10.529  22.201  0.00  0.00    +0.000 A 
ATOM     26  C   UNL     1       0.184  10.791  20.845  0.00  0.00    +0.000 A 
ATOM     27  C   UNL     1       0.792   9.815  20.058  0.00  0.00    +0.000 A 
ENDBRANCH  15  21
ENDBRANCH   1  15
TORSDOF 5
ENDMDL
MODEL 7
REMARK VINA RESULT:      -8.2      1.137      1.288
REMARK  Name = 
REMARK  7 active torsions:
REMARK  status: ('A' for Active; 'I' for Inactive)
REMARK    1  A    between atoms: C_1  and  C_2
REMARK    2  A    between atoms: C_2  and  C_3
REMARK    3  A    between atoms: C_5  and  N_6
REMARK    4  A    between atoms: N_6  and  C_7
REMARK    5  A    between atoms: C_7  and  C_8
REMARK    6  A    between atoms: C_12  and  C_13
REMARK    7  A    between atoms: C_15  and  C_16
REMARK                            x       y       z     vdW  Elec       q    Type
REMARK                         _______ _______ _______ _____ _____    ______ ____
ROOT
ATOM      1  C   UNL     1       2.898   5.154  20.001  0.00  0.00    +0.000 C 
ENDROOT
BRANCH   1   2
ATOM      2  C   UNL     1       1.988   4.677  18.859  0.00  0.00    +0.000 C 
ATOM      3  C   UNL     1       1.026   3.608  19.373  0.00  0.00    +0.000 C 
ATOM      4  C   UNL     1       1.754   2.320  19.074  0.00  0.00    +0.000 C 
ATOM      5  O   UNL     1       2.428   2.536  17.836  0.00  0.00    +0.000 OA
ATOM      6  C   UNL     1       2.647   3.957  17.674  0.00  0.00    +0.000 C 
BRANCH   6   7
ATOM      7  C   UNL     1       4.099   4.183  17.437  0.00  0.00    +0.000 A 
ATOM      8  N   UNL     1       5.054   4.435  18.309  0.00  0.00    +0.000 NA
ATOM      9  C   UNL     1       6.147   4.622  17.501  0.00  0.00    +0.000 A 
ATOM     10  N   UNL     1       5.927   4.395  16.201  0.00  0.00    +0.000 NA
ATOM     11  O   UNL     1       4.561   4.105  16.152  0.00  0.00    +0.000 OA
BRANCH   9  12
ATOM     12  C   UNL     1       7.497   5.088  18.023  0.00  0.00    +0.000 C 
ATOM     13  C   UNL     1       7.604   5.669  19.418  0.00  0.00    +0.000 C 
ATOM     14  C   UNL     1       7.686   6.579  18.241  0.00  0.00    +0.000 C 
ENDBRANCH   9  12
ENDBRANCH   6   7
ENDBRANCH   1   2
BRANCH   1  15
ATOM     15  N   UNL     1       3.108   6.602  19.994  0.00  0.00    +0.000 NA
ATOM     16  H   UNL     1       3.302   6.966  20.925  0.00  0.00    +0.000 HD
BRANCH  15  21
ATOM     17  C   UNL     1       2.155  10.808  17.915  0.00  0.00    +0.000 C 
ATOM     18  C   UNL     1       1.410   9.540  18.346  0.00  0.00    +0.000 C 
ATOM     19  C   UNL     1       0.167   9.321  17.480  0.00  0.00    +0.000 C 
ATOM     20  C   UNL     1       2.353   8.310  18.262  0.00  0.00    +0.000 C 
ATOM     21  C   UNL     1       1.995   7.381  19.447  0.00  0.00    +0.000 C 
ATOM     22  C   UNL     1       1.367   8.329  20.424  0.00  0.00    +0.000 A 
ATOM     23  C   UNL     1       1.060   8.086  21.758  0.00  0.00    +0.000 A 
ATOM     24  C   UNL     1       0.476   9.103  22.509  0.00  0.00    +0.000 A 
ATOM     25  C   UNL     1       0.180  10.336  21.908  0.00  0.00    +0.000 A 
ATOM     26  C   UNL     1       0.451  10.565  20.558  0.00  0.00    +0.000 A 
ATOM     27  C   UNL     1       1.048   9.550  19.814  0.00  0.00    +0.000 A 
ENDBRANCH  15  21
ENDBRANCH   1  15
TORSDOF 5
ENDMDL
MODEL 8
REMARK VINA RESULT:      -8.1      1.419      1.646
REMARK  Name = 
REMARK  7 active torsions:
REMARK  status: ('A' for Active; 'I' for Inactive)
REMARK    1  A    between atoms: C_1  and  C_2
REMARK    2  A    between atoms: C_2  and  C_3
REMARK    3  A    between atoms: C_5  and  N_6
REMARK    4  A    between atoms: N_6  and  C_7
REMARK    5  A    between atoms: C_7  and  C_8
REMARK    6  A    between atoms: C_12  and  C_13
REMARK    7  A    between atoms: C_15  and  C_16
REMARK                            x       y       z     vdW  Elec       q    Type
REMARK                         _______ _______ _______ _____ _____    ______ ____
ROOT
ATOM      1  C   UNL     1       2.714   5.301  20.349  0.00  0.00    +0.000 C 
ENDROOT
BRANCH   1   2
ATOM      2  C   UNL     1       1.500   4.787  19.561  0.00  0.00    +0.000 C 
ATOM      3  C   UNL     1       0.722   3.779  20.404  0.00  0.00    +0.000 C 
ATOM      4  C   UNL     1       1.312   2.454  19.987  0.00  0.00    +0.000 C 
ATOM      5  O   UNL     1       1.590   2.577  18.594  0.00  0.00    +0.000 OA
ATOM      6  C   UNL     1       1.767   3.979  18.283  0.00  0.00    +0.000 C 
BRANCH   6   7
ATOM      7  C   UNL     1       3.087   4.146  17.613  0.00  0.00    +0.000 A 
ATOM      8  N   UNL     1       3.687   5.253  17.227  0.00  0.00    +0.000 NA
ATOM      9  C   UNL     1       4.817   4.774  16.614  0.00  0.00    +0.000 A 
ATOM     10  N   UNL     1       4.982   3.449  16.700  0.00  0.00    +0.000 NA
ATOM     11  O   UNL     1       3.828   3.024  17.362  0.00  0.00    +0.000 OA
BRANCH   9  12
ATOM     12  C   UNL     1       5.794   5.663  15.859  0.00  0.00    +0.000 C 
ATOM     13  C   UNL     1       7.091   5.080  15.335  0.00  0.00    +0.000 C 
ATOM     14  C   UNL     1       7.122   5.970  16.530  0.00  0.00    +0.000 C 
ENDBRANCH   9  12
ENDBRANCH   6   7
ENDBRANCH   1   2
BRANCH   1  15
ATOM     15  N   UNL     1       3.023   6.703  20.066  0.00  0.00    +0.000 NA
ATOM     16  H   UNL     1       3.372   7.192  20.890  0.00  0.00    +0.000 HD
BRANCH  15  21
ATOM     17  C   UNL     1       2.051  10.894  17.967  0.00  0.00    +0.000 C 
ATOM     18  C   UNL     1       1.307   9.635  18.429  0.00  0.00    +0.000 C 
ATOM     19  C   UNL     1       0.042   9.417  17.595  0.00  0.00    +0.000 C 
ATOM     20  C   UNL     1       2.239   8.398  18.336  0.00  0.00    +0.000 C 
ATOM     21  C   UNL     1       1.904   7.484  19.538  0.00  0.00    +0.000 C 
ATOM     22  C   UNL     1       1.306   8.447  20.520  0.00  0.00    +0.000 A 
ATOM     23  C   UNL     1       1.029   8.219  21.864  0.00  0.00    +0.000 A 
ATOM     24  C   UNL     1       0.471   9.249  22.617  0.00  0.00    +0.000 A 
ATOM     25  C   UNL     1       0.169  10.478  22.011  0.00  0.00    +0.000 A 
ATOM     26  C   UNL     1       0.409  10.691  20.652  0.00  0.00    +0.000 A 
ATOM     27  C   UNL     1       0.981   9.664  19.905  0.00  0.00    +0.000 A 
ENDBRANCH  15  21
ENDBRANCH   1  15
TORSDOF 5
ENDMDL
MODEL 9
REMARK VINA RESULT:      -8.1      1.167      1.244
REMARK  Name = 
REMARK  7 active torsions:
REMARK  status: ('A' for Active; 'I' for Inactive)
REMARK    1  A    between atoms: C_1  and  C_2
REMARK    2  A    between atoms: C_2  and  C_3
REMARK    3  A    between atoms: C_5  and  N_6
REMARK    4  A    between atoms: N_6  and  C_7
REMARK    5  A    between atoms: C_7  and  C_8
REMARK    6  A    between atoms: C_12  and  C_13
REMARK    7  A    between atoms: C_15  and  C_16
REMARK                            x       y       z     vdW  Elec       q    Type
REMARK                         _______ _______ _______ _____ _____    ______ ____
ROOT
ATOM      1  C   UNL     1       2.340   5.929  20.532  0.00  0.00    +0.000 C 
ENDROOT
BRANCH   1   2
ATOM      2  C   UNL     1       1.498   5.233  19.452  0.00  0.00    +0.000 C 
ATOM      3  C   UNL     1       0.931   3.924  19.999  0.00  0.00    +0.000 C 
ATOM      4  C   UNL     1       1.962   2.904  19.581  0.00  0.00    +0.000 C 
ATOM      5  O   UNL     1       2.425   3.326  18.301  0.00  0.00    +0.000 OA
ATOM      6  C   UNL     1       2.216   4.752  18.184  0.00  0.00    +0.000 C 
BRANCH   6   7
ATOM      7  C   UNL     1       3.516   5.389  17.833  0.00  0.00    +0.000 A 
ATOM      8  N   UNL     1       4.723   4.863  17.823  0.00  0.00    +0.000 NA
ATOM      9  C   UNL     1       5.509   5.939  17.497  0.00  0.00    +0.000 A 
ATOM     10  N   UNL     1       4.835   7.058  17.208  0.00  0.00    +0.000 NA
ATOM     11  O   UNL     1       3.504   6.698  17.434  0.00  0.00    +0.000 OA
BRANCH   9  12
ATOM     12  C   UNL     1       7.029   5.888  17.496  0.00  0.00    +0.000 C 
ATOM     13  C   UNL     1       7.741   4.644  17.987  0.00  0.00    +0.000 C 
ATOM     14  C   UNL     1       7.729   5.862  18.844  0.00  0.00    +0.000 C 
ENDBRANCH   9  12
ENDBRANCH   6   7
ENDBRANCH   1   2
BRANCH   1  15
ATOM     15  N   UNL     1       2.558   7.349  20.254  0.00  0.00    +0.000 NA
ATOM     16  H   UNL     1       2.943   7.842  21.059  0.00  0.00    +0.000 HD
BRANCH  15  21
ATOM     17  C   UNL     1       1.200  11.618  18.566  0.00  0.00    +0.000 C 
ATOM     18  C   UNL     1       0.571  10.268  18.929  0.00  0.00    +0.000 C 
ATOM     19  C   UNL     1      -0.698  10.024  18.108  0.00  0.00    +0.000 C 
ATOM     20  C   UNL     1       1.593   9.122  18.703  0.00  0.00    +0.000 C 
ATOM     21  C   UNL     1       1.366   8.082  19.825  0.00  0.00    +0.000 C 
ATOM     22  C   UNL     1       0.724   8.902  20.904  0.00  0.00    +0.000 A 
ATOM     23  C   UNL     1       0.507   8.535  22.227  0.00  0.00    +0.000 A 
ATOM     24  C   UNL     1      -0.107   9.446  23.083  0.00  0.00    +0.000 A 
ATOM     25  C   UNL     1      -0.522  10.696  22.598  0.00  0.00    +0.000 A 
ATOM     26  C   UNL     1      -0.340  11.047  21.259  0.00  0.00    +0.000 A 
ATOM     27  C   UNL     1       0.287  10.139  20.409  0.00  0.00    +0.000 A 
ENDBRANCH  15  21
ENDBRANCH   1  15
TORSDOF 5
ENDMDL
