MODEL 1
REMARK VINA RESULT:      -9.1      0.000      0.000
REMARK  Name = 
REMARK  6 active torsions:
REMARK  status: ('A' for Active; 'I' for Inactive)
REMARK    1  A    between atoms: C_1  and  C_2
REMARK    2  A    between atoms: C_6  and  N_7
REMARK    3  A    between atoms: N_7  and  S_8
REMARK    4  A    between atoms: S_8  and  C_11
REMARK    5  A    between atoms: C_15  and  C_16
REMARK    6  A    between atoms: C_22  and  C_23
REMARK                            x       y       z     vdW  Elec       q    Type
REMARK                         _______ _______ _______ _____ _____    ______ ____
ROOT
ATOM      1  C   UNL     1       2.548   4.338  18.861  0.00  0.00    +0.000 A 
ATOM      2  C   UNL     1       2.498   4.115  20.241  0.00  0.00    +0.000 A 
ATOM      3  C   UNL     1       2.280   5.193  21.100  0.00  0.00    +0.000 A 
ATOM      4  C   UNL     1       2.151   6.485  20.580  0.00  0.00    +0.000 A 
ATOM      5  C   UNL     1       2.206   6.711  19.195  0.00  0.00    +0.000 A 
ATOM      6  C   UNL     1       2.340   5.619  18.335  0.00  0.00    +0.000 A 
ENDROOT
BRANCH   5   7
ATOM      7  C   UNL     1       2.024   8.111  18.711  0.00  0.00    +0.000 C 
ATOM      8  O   UNL     1       2.469   8.369  17.594  0.00  0.00    +0.000 OA
ATOM      9  N   UNL     1       1.367   9.074  19.491  0.00  0.00    +0.000 N 
ATOM     10  C   UNL     1       1.131  10.387  18.875  0.00  0.00    +0.000 C 
ATOM     11  C   UNL     1       1.214  11.522  19.893  0.00  0.00    +0.000 C 
ATOM     12  C   UNL     1       0.280  11.274  21.064  0.00  0.00    +0.000 C 
ATOM     13  C   UNL     1       0.602   9.918  21.669  0.00  0.00    +0.000 C 
ATOM     14  C   UNL     1       0.492   8.796  20.632  0.00  0.00    +0.000 C 
BRANCH  13  15
ATOM     15  C   UNL     1      -0.297   9.624  22.829  0.00  0.00    +0.000 C 
ATOM     16  F   UNL     1       0.371   9.399  23.978  0.00  0.00    +0.000 F 
ATOM     17  F   UNL     1      -1.152  10.637  23.058  0.00  0.00    +0.000 F 
ATOM     18  F   UNL     1      -0.976   8.502  22.536  0.00  0.00    +0.000 F 
ENDBRANCH  13  15
ENDBRANCH   5   7
BRANCH   1  19
ATOM     19  S   UNL     1       2.785   2.976  17.738  0.00  0.00    +0.000 S 
ATOM     20  O   UNL     1       2.159   3.313  16.482  0.00  0.00    +0.000 OA
ATOM     21  O   UNL     1       2.438   1.763  18.457  0.00  0.00    +0.000 OA
BRANCH  19  22
ATOM     22  N   UNL     1       4.445   2.927  17.526  0.00  0.00    +0.000 N 
ATOM     23  H   UNL     1       4.893   2.017  17.617  0.00  0.00    +0.000 HD
BRANCH  22  29
ATOM     24  C   UNL     1       7.911   6.194  19.030  0.00  0.00    +0.000 C 
ATOM     25  C   UNL     1       6.844   5.734  18.067  0.00  0.00    +0.000 A 
ATOM     26  C   UNL     1       6.570   6.492  16.919  0.00  0.00    +0.000 A 
ATOM     27  C   UNL     1       5.691   6.017  15.947  0.00  0.00    +0.000 A 
ATOM     28  C   UNL     1       5.018   4.815  16.144  0.00  0.00    +0.000 A 
ATOM     29  C   UNL     1       5.247   4.071  17.299  0.00  0.00    +0.000 A 
ATOM     30  C   UNL     1       6.166   4.516  18.254  0.00  0.00    +0.000 A 
ENDBRANCH  22  29
ENDBRANCH  19  22
ENDBRANCH   1  19
TORSDOF 5
ENDMDL
MODEL 2
REMARK VINA RESULT:      -8.8      0.806      1.473
REMARK  Name = 
REMARK  6 active torsions:
REMARK  status: ('A' for Active; 'I' for Inactive)
REMARK    1  A    between atoms: C_1  and  C_2
REMARK    2  A    between atoms: C_6  and  N_7
REMARK    3  A    between atoms: N_7  and  S_8
REMARK    4  A    between atoms: S_8  and  C_11
REMARK    5  A    between atoms: C_15  and  C_16
REMARK    6  A    between atoms: C_22  and  C_23
REMARK                            x       y       z     vdW  Elec       q    Type
REMARK                         _______ _______ _______ _____ _____    ______ ____
ROOT
ATOM      1  C   UNL     1       2.530   4.328  18.951  0.00  0.00    +0.000 A 
ATOM      2  C   UNL     1       2.437   4.107  20.328  0.00  0.00    +0.000 A 
ATOM      3  C   UNL     1       2.191   5.186  21.179  0.00  0.00    +0.000 A 
ATOM      4  C   UNL     1       2.075   6.476  20.654  0.00  0.00    +0.000 A 
ATOM      5  C   UNL     1       2.173   6.701  19.271  0.00  0.00    +0.000 A 
ATOM      6  C   UNL     1       2.336   5.608  18.417  0.00  0.00    +0.000 A 
ENDROOT
BRANCH   5   7
ATOM      7  C   UNL     1       2.004   8.100  18.780  0.00  0.00    +0.000 C 
ATOM      8  O   UNL     1       2.454   8.350  17.663  0.00  0.00    +0.000 OA
ATOM      9  N   UNL     1       1.353   9.072  19.553  0.00  0.00    +0.000 N 
ATOM     10  C   UNL     1       1.130  10.384  18.931  0.00  0.00    +0.000 C 
ATOM     11  C   UNL     1       1.219  11.524  19.943  0.00  0.00    +0.000 C 
ATOM     12  C   UNL     1       0.280  11.288  21.113  0.00  0.00    +0.000 C 
ATOM     13  C   UNL     1       0.589   9.933  21.725  0.00  0.00    +0.000 C 
ATOM     14  C   UNL     1       0.473   8.807  20.694  0.00  0.00    +0.000 C 
BRANCH  13  15
ATOM     15  C   UNL     1      -0.315   9.652  22.884  0.00  0.00    +0.000 C 
ATOM     16  F   UNL     1       0.349   9.387  24.027  0.00  0.00    +0.000 F 
ATOM     17  F   UNL     1      -1.135  10.689  23.132  0.00  0.00    +0.000 F 
ATOM     18  F   UNL     1      -1.033   8.557  22.577  0.00  0.00    +0.000 F 
ENDBRANCH  13  15
ENDBRANCH   5   7
BRANCH   1  19
ATOM     19  S   UNL     1       2.805   2.966  17.837  0.00  0.00    +0.000 S 
ATOM     20  O   UNL     1       2.267   3.323  16.546  0.00  0.00    +0.000 OA
ATOM     21  O   UNL     1       2.385   1.758  18.526  0.00  0.00    +0.000 OA
BRANCH  19  22
ATOM     22  N   UNL     1       4.474   2.877  17.730  0.00  0.00    +0.000 N 
ATOM     23  H   UNL     1       4.929   2.133  18.256  0.00  0.00    +0.000 HD
BRANCH  22  29
ATOM     24  C   UNL     1       6.709   4.371  13.522  0.00  0.00    +0.000 C 
ATOM     25  C   UNL     1       6.460   4.477  15.006  0.00  0.00    +0.000 A 
ATOM     26  C   UNL     1       7.085   5.492  15.746  0.00  0.00    +0.000 A 
ATOM     27  C   UNL     1       6.763   5.696  17.087  0.00  0.00    +0.000 A 
ATOM     28  C   UNL     1       5.868   4.842  17.726  0.00  0.00    +0.000 A 
ATOM     29  C   UNL     1       5.270   3.803  17.016  0.00  0.00    +0.000 A 
ATOM     30  C   UNL     1       5.550   3.625  15.657  0.00  0.00    +0.000 A 
ENDBRANCH  22  29
ENDBRANCH  19  22
ENDBRANCH   1  19
TORSDOF 5
ENDMDL
MODEL 3
REMARK VINA RESULT:      -8.7      1.039      1.551
REMARK  Name = 
REMARK  6 active torsions:
REMARK  status: ('A' for Active; 'I' for Inactive)
REMARK    1  A    between atoms: C_1  and  C_2
REMARK    2  A    between atoms: C_6  and  N_7
REMARK    3  A    between atoms: N_7  and  S_8
REMARK    4  A    between atoms: S_8  and  C_11
REMARK    5  A    between atoms: C_15  and  C_16
REMARK    6  A    between atoms: C_22  and  C_23
REMARK                            x       y       z     vdW  Elec       q    Type
REMARK                         _______ _______ _______ _____ _____    ______ ____
ROOT
ATOM      1  C   UNL     1       3.040   5.085  18.576  0.00  0.00    +0.000 A 
ATOM      2  C   UNL     1       2.709   4.669  19.869  0.00  0.00    +0.000 A 
ATOM      3  C   UNL     1       2.093   5.569  20.741  0.00  0.00    +0.000 A 
ATOM      4  C   UNL     1       1.846   6.881  20.328  0.00  0.00    +0.000 A 
ATOM      5  C   UNL     1       2.182   7.302  19.032  0.00  0.00    +0.000 A 
ATOM      6  C   UNL     1       2.721   6.376  18.137  0.00  0.00    +0.000 A 
ENDROOT
BRANCH   5   7
ATOM      7  C   UNL     1       1.855   8.708  18.650  0.00  0.00    +0.000 C 
ATOM      8  O   UNL     1       2.225   9.076  17.536  0.00  0.00    +0.000 OA
ATOM      9  N   UNL     1       1.152   9.556  19.518  0.00  0.00    +0.000 N 
ATOM     10  C   UNL     1       0.774  10.878  19.002  0.00  0.00    +0.000 C 
ATOM     11  C   UNL     1       0.801  11.950  20.089  0.00  0.00    +0.000 C 
ATOM     12  C   UNL     1      -0.053  11.543  21.277  0.00  0.00    +0.000 C 
ATOM     13  C   UNL     1       0.414  10.187  21.776  0.00  0.00    +0.000 C 
ATOM     14  C   UNL     1       0.357   9.128  20.672  0.00  0.00    +0.000 C 
BRANCH  13  15
ATOM     15  C   UNL     1      -0.402   9.739  22.948  0.00  0.00    +0.000 C 
ATOM     16  F   UNL     1       0.336   9.487  24.048  0.00  0.00    +0.000 F 
ATOM     17  F   UNL     1      -1.321  10.661  23.289  0.00  0.00    +0.000 F 
ATOM     18  F   UNL     1      -1.006   8.589  22.601  0.00  0.00    +0.000 F 
ENDBRANCH  13  15
ENDBRANCH   5   7
BRANCH   1  19
ATOM     19  S   UNL     1       3.792   3.949  17.430  0.00  0.00    +0.000 S 
ATOM     20  O   UNL     1       2.819   3.624  16.414  0.00  0.00    +0.000 OA
ATOM     21  O   UNL     1       4.441   2.914  18.216  0.00  0.00    +0.000 OA
BRANCH  19  22
ATOM     22  N   UNL     1       5.026   4.846  16.740  0.00  0.00    +0.000 N 
ATOM     23  H   UNL     1       5.078   4.850  15.723  0.00  0.00    +0.000 HD
BRANCH  22  29
ATOM     24  C   UNL     1       7.873   8.867  17.553  0.00  0.00    +0.000 C 
ATOM     25  C   UNL     1       7.492   7.431  17.817  0.00  0.00    +0.000 A 
ATOM     26  C   UNL     1       8.179   6.698  18.794  0.00  0.00    +0.000 A 
ATOM     27  C   UNL     1       7.755   5.419  19.153  0.00  0.00    +0.000 A 
ATOM     28  C   UNL     1       6.684   4.828  18.488  0.00  0.00    +0.000 A 
ATOM     29  C   UNL     1       6.017   5.528  17.485  0.00  0.00    +0.000 A 
ATOM     30  C   UNL     1       6.406   6.831  17.156  0.00  0.00    +0.000 A 
ENDBRANCH  22  29
ENDBRANCH  19  22
ENDBRANCH   1  19
TORSDOF 5
ENDMDL
MODEL 4
REMARK VINA RESULT:      -8.7      3.237      4.393
REMARK  Name = 
REMARK  6 active torsions:
REMARK  status: ('A' for Active; 'I' for Inactive)
REMARK    1  A    between atoms: C_1  and  C_2
REMARK    2  A    between atoms: C_6  and  N_7
REMARK    3  A    between atoms: N_7  and  S_8
REMARK    4  A    between atoms: S_8  and  C_11
REMARK    5  A    between atoms: C_15  and  C_16
REMARK    6  A    between atoms: C_22  and  C_23
REMARK                            x       y       z     vdW  Elec       q    Type
REMARK                         _______ _______ _______ _____ _____    ______ ____
ROOT
ATOM      1  C   UNL     1       4.251   5.277  17.390  0.00  0.00    +0.000 A 
ATOM      2  C   UNL     1       3.630   4.162  16.819  0.00  0.00    +0.000 A 
ATOM      3  C   UNL     1       2.479   3.642  17.413  0.00  0.00    +0.000 A 
ATOM      4  C   UNL     1       1.979   4.216  18.586  0.00  0.00    +0.000 A 
ATOM      5  C   UNL     1       2.604   5.333  19.163  0.00  0.00    +0.000 A 
ATOM      6  C   UNL     1       3.707   5.900  18.519  0.00  0.00    +0.000 A 
ENDROOT
BRANCH   5   7
ATOM      7  C   UNL     1       1.993   5.914  20.395  0.00  0.00    +0.000 C 
ATOM      8  O   UNL     1       1.926   5.175  21.376  0.00  0.00    +0.000 OA
ATOM      9  N   UNL     1       1.534   7.238  20.428  0.00  0.00    +0.000 N 
ATOM     10  C   UNL     1       1.064   7.752  21.721  0.00  0.00    +0.000 C 
ATOM     11  C   UNL     1      -0.090   8.740  21.562  0.00  0.00    +0.000 C 
ATOM     12  C   UNL     1       0.282   9.864  20.611  0.00  0.00    +0.000 C 
ATOM     13  C   UNL     1       0.726   9.262  19.289  0.00  0.00    +0.000 C 
ATOM     14  C   UNL     1       1.896   8.291  19.475  0.00  0.00    +0.000 C 
BRANCH  13  15
ATOM     15  C   UNL     1       1.107  10.332  18.316  0.00  0.00    +0.000 C 
ATOM     16  F   UNL     1       1.801  11.343  18.878  0.00  0.00    +0.000 F 
ATOM     17  F   UNL     1       1.862   9.842  17.315  0.00  0.00    +0.000 F 
ATOM     18  F   UNL     1      -0.031  10.853  17.826  0.00  0.00    +0.000 F 
ENDBRANCH  13  15
ENDBRANCH   5   7
BRANCH   1  19
ATOM     19  S   UNL     1       5.700   5.986  16.633  0.00  0.00    +0.000 S 
ATOM     20  O   UNL     1       6.567   6.466  17.682  0.00  0.00    +0.000 OA
ATOM     21  O   UNL     1       5.241   6.860  15.568  0.00  0.00    +0.000 OA
BRANCH  19  22
ATOM     22  N   UNL     1       6.425   4.680  15.876  0.00  0.00    +0.000 N 
ATOM     23  H   UNL     1       6.830   3.966  16.480  0.00  0.00    +0.000 HD
BRANCH  22  29
ATOM     24  C   UNL     1       5.138   2.555  11.545  0.00  0.00    +0.000 C 
ATOM     25  C   UNL     1       6.027   3.445  12.378  0.00  0.00    +0.000 A 
ATOM     26  C   UNL     1       7.082   4.140  11.769  0.00  0.00    +0.000 A 
ATOM     27  C   UNL     1       7.828   5.073  12.489  0.00  0.00    +0.000 A 
ATOM     28  C   UNL     1       7.577   5.269  13.844  0.00  0.00    +0.000 A 
ATOM     29  C   UNL     1       6.560   4.555  14.474  0.00  0.00    +0.000 A 
ATOM     30  C   UNL     1       5.774   3.655  13.745  0.00  0.00    +0.000 A 
ENDBRANCH  22  29
ENDBRANCH  19  22
ENDBRANCH   1  19
TORSDOF 5
ENDMDL
MODEL 5
REMARK VINA RESULT:      -8.7      3.637      8.372
REMARK  Name = 
REMARK  6 active torsions:
REMARK  status: ('A' for Active; 'I' for Inactive)
REMARK    1  A    between atoms: C_1  and  C_2
REMARK    2  A    between atoms: C_6  and  N_7
REMARK    3  A    between atoms: N_7  and  S_8
REMARK    4  A    between atoms: S_8  and  C_11
REMARK    5  A    between atoms: C_15  and  C_16
REMARK    6  A    between atoms: C_22  and  C_23
REMARK                            x       y       z     vdW  Elec       q    Type
REMARK                         _______ _______ _______ _____ _____    ______ ____
ROOT
ATOM      1  C   UNL     1       0.899   9.265  20.162  0.00  0.00    +0.000 A 
ATOM      2  C   UNL     1       0.136   9.875  19.162  0.00  0.00    +0.000 A 
ATOM      3  C   UNL     1       0.412   9.593  17.823  0.00  0.00    +0.000 A 
ATOM      4  C   UNL     1       1.467   8.736  17.494  0.00  0.00    +0.000 A 
ATOM      5  C   UNL     1       2.237   8.127  18.496  0.00  0.00    +0.000 A 
ATOM      6  C   UNL     1       1.904   8.347  19.835  0.00  0.00    +0.000 A 
ENDROOT
BRANCH   5   7
ATOM      7  C   UNL     1       3.324   7.196  18.070  0.00  0.00    +0.000 C 
ATOM      8  O   UNL     1       4.312   7.707  17.546  0.00  0.00    +0.000 OA
ATOM      9  N   UNL     1       3.221   5.812  18.272  0.00  0.00    +0.000 N 
ATOM     10  C   UNL     1       4.393   4.996  17.930  0.00  0.00    +0.000 C 
ATOM     11  C   UNL     1       4.001   3.623  17.391  0.00  0.00    +0.000 C 
ATOM     12  C   UNL     1       3.076   2.902  18.355  0.00  0.00    +0.000 C 
ATOM     13  C   UNL     1       1.875   3.788  18.637  0.00  0.00    +0.000 C 
ATOM     14  C   UNL     1       2.295   5.150  19.195  0.00  0.00    +0.000 C 
BRANCH  13  15
ATOM     15  C   UNL     1       0.931   3.122  19.588  0.00  0.00    +0.000 C 
ATOM     16  F   UNL     1       1.538   2.257  20.425  0.00  0.00    +0.000 F 
ATOM     17  F   UNL     1       0.283   4.022  20.350  0.00  0.00    +0.000 F 
ATOM     18  F   UNL     1       0.052   2.417  18.855  0.00  0.00    +0.000 F 
ENDBRANCH  13  15
ENDBRANCH   5   7
BRANCH   1  19
ATOM     19  S   UNL     1       0.546   9.576  21.880  0.00  0.00    +0.000 S 
ATOM     20  O   UNL     1       1.732   9.276  22.645  0.00  0.00    +0.000 OA
ATOM     21  O   UNL     1      -0.727   8.942  22.175  0.00  0.00    +0.000 OA
BRANCH  19  22
ATOM     22  N   UNL     1       0.262  11.225  21.930  0.00  0.00    +0.000 N 
ATOM     23  H   UNL     1       1.080  11.831  21.978  0.00  0.00    +0.000 HD
BRANCH  22  29
ATOM     24  C   UNL     1      -3.917  12.378  24.409  0.00  0.00    +0.000 C 
ATOM     25  C   UNL     1      -3.112  12.263  23.137  0.00  0.00    +0.000 A 
ATOM     26  C   UNL     1      -3.671  12.682  21.921  0.00  0.00    +0.000 A 
ATOM     27  C   UNL     1      -2.901  12.716  20.759  0.00  0.00    +0.000 A 
ATOM     28  C   UNL     1      -1.585  12.262  20.783  0.00  0.00    +0.000 A 
ATOM     29  C   UNL     1      -1.028  11.803  21.975  0.00  0.00    +0.000 A 
ATOM     30  C   UNL     1      -1.780  11.815  23.154  0.00  0.00    +0.000 A 
ENDBRANCH  22  29
ENDBRANCH  19  22
ENDBRANCH   1  19
TORSDOF 5
ENDMDL
MODEL 6
REMARK VINA RESULT:      -8.6      3.647      8.459
REMARK  Name = 
REMARK  6 active torsions:
REMARK  status: ('A' for Active; 'I' for Inactive)
REMARK    1  A    between atoms: C_1  and  C_2
REMARK    2  A    between atoms: C_6  and  N_7
REMARK    3  A    between atoms: N_7  and  S_8
REMARK    4  A    between atoms: S_8  and  C_11
REMARK    5  A    between atoms: C_15  and  C_16
REMARK    6  A    between atoms: C_22  and  C_23
REMARK                            x       y       z     vdW  Elec       q    Type
REMARK                         _______ _______ _______ _____ _____    ______ ____
ROOT
ATOM      1  C   UNL     1       0.886   9.272  20.173  0.00  0.00    +0.000 A 
ATOM      2  C   UNL     1       0.129   9.911  19.186  0.00  0.00    +0.000 A 
ATOM      3  C   UNL     1       0.402   9.653  17.842  0.00  0.00    +0.000 A 
ATOM      4  C   UNL     1       1.446   8.790  17.495  0.00  0.00    +0.000 A 
ATOM      5  C   UNL     1       2.210   8.151  18.485  0.00  0.00    +0.000 A 
ATOM      6  C   UNL     1       1.879   8.348  19.827  0.00  0.00    +0.000 A 
ENDROOT
BRANCH   5   7
ATOM      7  C   UNL     1       3.285   7.216  18.039  0.00  0.00    +0.000 C 
ATOM      8  O   UNL     1       4.255   7.721  17.477  0.00  0.00    +0.000 OA
ATOM      9  N   UNL     1       3.192   5.835  18.266  0.00  0.00    +0.000 N 
ATOM     10  C   UNL     1       4.355   5.017  17.901  0.00  0.00    +0.000 C 
ATOM     11  C   UNL     1       3.950   3.634  17.396  0.00  0.00    +0.000 C 
ATOM     12  C   UNL     1       3.057   2.927  18.400  0.00  0.00    +0.000 C 
ATOM     13  C   UNL     1       1.863   3.814  18.705  0.00  0.00    +0.000 C 
ATOM     14  C   UNL     1       2.297   5.187  19.228  0.00  0.00    +0.000 C 
BRANCH  13  15
ATOM     15  C   UNL     1       0.952   3.161  19.695  0.00  0.00    +0.000 C 
ATOM     16  F   UNL     1      -0.015   2.416  19.123  0.00  0.00    +0.000 F 
ATOM     17  F   UNL     1       1.630   2.355  20.532  0.00  0.00    +0.000 F 
ATOM     18  F   UNL     1       0.343   4.140  20.387  0.00  0.00    +0.000 F 
ENDBRANCH  13  15
ENDBRANCH   5   7
BRANCH   1  19
ATOM     19  S   UNL     1       0.536   9.552  21.897  0.00  0.00    +0.000 S 
ATOM     20  O   UNL     1       1.764   9.391  22.638  0.00  0.00    +0.000 OA
ATOM     21  O   UNL     1      -0.653   8.783  22.222  0.00  0.00    +0.000 OA
BRANCH  19  22
ATOM     22  N   UNL     1       0.072  11.160  21.947  0.00  0.00    +0.000 N 
ATOM     23  H   UNL     1       0.817  11.854  21.914  0.00  0.00    +0.000 HD
BRANCH  22  29
ATOM     24  C   UNL     1      -4.133  13.068  20.047  0.00  0.00    +0.000 C 
ATOM     25  C   UNL     1      -3.277  12.630  21.209  0.00  0.00    +0.000 A 
ATOM     26  C   UNL     1      -3.786  12.705  22.514  0.00  0.00    +0.000 A 
ATOM     27  C   UNL     1      -3.070  12.177  23.588  0.00  0.00    +0.000 A 
ATOM     28  C   UNL     1      -1.804  11.635  23.382  0.00  0.00    +0.000 A 
ATOM     29  C   UNL     1      -1.267  11.591  22.097  0.00  0.00    +0.000 A 
ATOM     30  C   UNL     1      -2.002  12.072  21.008  0.00  0.00    +0.000 A 
ENDBRANCH  22  29
ENDBRANCH  19  22
ENDBRANCH   1  19
TORSDOF 5
ENDMDL
MODEL 7
REMARK VINA RESULT:      -8.5      0.810      1.112
REMARK  Name = 
REMARK  6 active torsions:
REMARK  status: ('A' for Active; 'I' for Inactive)
REMARK    1  A    between atoms: C_1  and  C_2
REMARK    2  A    between atoms: C_6  and  N_7
REMARK    3  A    between atoms: N_7  and  S_8
REMARK    4  A    between atoms: S_8  and  C_11
REMARK    5  A    between atoms: C_15  and  C_16
REMARK    6  A    between atoms: C_22  and  C_23
REMARK                            x       y       z     vdW  Elec       q    Type
REMARK                         _______ _______ _______ _____ _____    ______ ____
ROOT
ATOM      1  C   UNL     1       2.999   4.448  19.130  0.00  0.00    +0.000 A 
ATOM      2  C   UNL     1       2.529   4.154  20.414  0.00  0.00    +0.000 A 
ATOM      3  C   UNL     1       1.899   5.154  21.156  0.00  0.00    +0.000 A 
ATOM      4  C   UNL     1       1.775   6.443  20.628  0.00  0.00    +0.000 A 
ATOM      5  C   UNL     1       2.251   6.741  19.342  0.00  0.00    +0.000 A 
ATOM      6  C   UNL     1       2.806   5.717  18.570  0.00  0.00    +0.000 A 
ENDROOT
BRANCH   5   7
ATOM      7  C   UNL     1       2.052   8.129  18.830  0.00  0.00    +0.000 C 
ATOM      8  O   UNL     1       2.502   8.373  17.712  0.00  0.00    +0.000 OA
ATOM      9  N   UNL     1       1.376   9.096  19.587  0.00  0.00    +0.000 N 
ATOM     10  C   UNL     1       1.125  10.393  18.946  0.00  0.00    +0.000 C 
ATOM     11  C   UNL     1       1.183  11.549  19.943  0.00  0.00    +0.000 C 
ATOM     12  C   UNL     1       0.244  11.308  21.112  0.00  0.00    +0.000 C 
ATOM     13  C   UNL     1       0.581   9.969  21.744  0.00  0.00    +0.000 C 
ATOM     14  C   UNL     1       0.496   8.826  20.727  0.00  0.00    +0.000 C 
BRANCH  13  15
ATOM     15  C   UNL     1      -0.321   9.682  22.902  0.00  0.00    +0.000 C 
ATOM     16  F   UNL     1      -1.166  10.695  23.184  0.00  0.00    +0.000 F 
ATOM     17  F   UNL     1      -1.073   8.588  22.682  0.00  0.00    +0.000 F 
ATOM     18  F   UNL     1       0.457   9.500  23.983  0.00  0.00    +0.000 F 
ENDBRANCH  13  15
ENDBRANCH   5   7
BRANCH   1  19
ATOM     19  S   UNL     1       3.773   3.183  18.144  0.00  0.00    +0.000 S 
ATOM     20  O   UNL     1       3.424   3.412  16.762  0.00  0.00    +0.000 OA
ATOM     21  O   UNL     1       3.506   1.912  18.793  0.00  0.00    +0.000 OA
BRANCH  19  22
ATOM     22  N   UNL     1       5.410   3.471  18.351  0.00  0.00    +0.000 N 
ATOM     23  H   UNL     1       5.869   2.980  19.116  0.00  0.00    +0.000 HD
BRANCH  22  29
ATOM     24  C   UNL     1       7.791   7.832  17.850  0.00  0.00    +0.000 C 
ATOM     25  C   UNL     1       7.212   6.559  17.283  0.00  0.00    +0.000 A 
ATOM     26  C   UNL     1       7.348   6.281  15.915  0.00  0.00    +0.000 A 
ATOM     27  C   UNL     1       6.947   5.051  15.395  0.00  0.00    +0.000 A 
ATOM     28  C   UNL     1       6.336   4.112  16.221  0.00  0.00    +0.000 A 
ATOM     29  C   UNL     1       6.154   4.390  17.575  0.00  0.00    +0.000 A 
ATOM     30  C   UNL     1       6.602   5.601  18.112  0.00  0.00    +0.000 A 
ENDBRANCH  22  29
ENDBRANCH  19  22
ENDBRANCH   1  19
TORSDOF 5
ENDMDL
MODEL 8
REMARK VINA RESULT:      -8.5      0.961      1.151
REMARK  Name = 
REMARK  6 active torsions:
REMARK  status: ('A' for Active; 'I' for Inactive)
REMARK    1  A    between atoms: C_1  and  C_2
REMARK    2  A    between atoms: C_6  and  N_7
REMARK    3  A    between atoms: N_7  and  S_8
REMARK    4  A    between atoms: S_8  and  C_11
REMARK    5  A    between atoms: C_15  and  C_16
REMARK    6  A    between atoms: C_22  and  C_23
REMARK                            x       y       z     vdW  Elec       q    Type
REMARK                         _______ _______ _______ _____ _____    ______ ____
ROOT
ATOM      1  C   UNL     1       2.312   4.654  18.923  0.00  0.00    +0.000 A 
ATOM      2  C   UNL     1       1.958   4.673  20.276  0.00  0.00    +0.000 A 
ATOM      3  C   UNL     1       1.763   5.898  20.915  0.00  0.00    +0.000 A 
ATOM      4  C   UNL     1       1.956   7.091  20.211  0.00  0.00    +0.000 A 
ATOM      5  C   UNL     1       2.315   7.074  18.854  0.00  0.00    +0.000 A 
ATOM      6  C   UNL     1       2.428   5.846  18.198  0.00  0.00    +0.000 A 
ENDROOT
BRANCH   5   7
ATOM      7  C   UNL     1       2.469   8.386  18.158  0.00  0.00    +0.000 C 
ATOM      8  O   UNL     1       3.173   8.395  17.150  0.00  0.00    +0.000 OA
ATOM      9  N   UNL     1       1.829   9.542  18.629  0.00  0.00    +0.000 N 
ATOM     10  C   UNL     1       1.944  10.753  17.806  0.00  0.00    +0.000 C 
ATOM     11  C   UNL     1       1.995  12.022  18.654  0.00  0.00    +0.000 C 
ATOM     12  C   UNL     1       0.809  12.094  19.600  0.00  0.00    +0.000 C 
ATOM     13  C   UNL     1       0.773  10.828  20.438  0.00  0.00    +0.000 C 
ATOM     14  C   UNL     1       0.701   9.573  19.564  0.00  0.00    +0.000 C 
BRANCH  13  15
ATOM     15  C   UNL     1      -0.384  10.848  21.387  0.00  0.00    +0.000 C 
ATOM     16  F   UNL     1      -0.221  11.712  22.410  0.00  0.00    +0.000 F 
ATOM     17  F   UNL     1      -1.527  11.185  20.762  0.00  0.00    +0.000 F 
ATOM     18  F   UNL     1      -0.491   9.618  21.917  0.00  0.00    +0.000 F 
ENDBRANCH  13  15
ENDBRANCH   5   7
BRANCH   1  19
ATOM     19  S   UNL     1       2.530   3.106  18.071  0.00  0.00    +0.000 S 
ATOM     20  O   UNL     1       2.033   3.258  16.725  0.00  0.00    +0.000 OA
ATOM     21  O   UNL     1       2.033   2.061  18.949  0.00  0.00    +0.000 OA
BRANCH  19  22
ATOM     22  N   UNL     1       4.192   2.915  18.024  0.00  0.00    +0.000 N 
ATOM     23  H   UNL     1       4.568   2.055  18.422  0.00  0.00    +0.000 HD
BRANCH  22  29
ATOM     24  C   UNL     1       7.777   6.313  18.762  0.00  0.00    +0.000 C 
ATOM     25  C   UNL     1       6.745   5.634  17.895  0.00  0.00    +0.000 A 
ATOM     26  C   UNL     1       6.601   6.018  16.554  0.00  0.00    +0.000 A 
ATOM     27  C   UNL     1       5.755   5.313  15.699  0.00  0.00    +0.000 A 
ATOM     28  C   UNL     1       4.986   4.261  16.192  0.00  0.00    +0.000 A 
ATOM     29  C   UNL     1       5.086   3.894  17.532  0.00  0.00    +0.000 A 
ATOM     30  C   UNL     1       5.972   4.565  18.382  0.00  0.00    +0.000 A 
ENDBRANCH  22  29
ENDBRANCH  19  22
ENDBRANCH   1  19
TORSDOF 5
ENDMDL
MODEL 9
REMARK VINA RESULT:      -8.5      4.291      8.735
REMARK  Name = 
REMARK  6 active torsions:
REMARK  status: ('A' for Active; 'I' for Inactive)
REMARK    1  A    between atoms: C_1  and  C_2
REMARK    2  A    between atoms: C_6  and  N_7
REMARK    3  A    between atoms: N_7  and  S_8
REMARK    4  A    between atoms: S_8  and  C_11
REMARK    5  A    between atoms: C_15  and  C_16
REMARK    6  A    between atoms: C_22  and  C_23
REMARK                            x       y       z     vdW  Elec       q    Type
REMARK                         _______ _______ _______ _____ _____    ______ ____
ROOT
ATOM      1  C   UNL     1       1.370   9.074  20.107  0.00  0.00    +0.000 A 
ATOM      2  C   UNL     1       1.378  10.012  19.071  0.00  0.00    +0.000 A 
ATOM      3  C   UNL     1       1.844   9.634  17.810  0.00  0.00    +0.000 A 
ATOM      4  C   UNL     1       2.328   8.339  17.604  0.00  0.00    +0.000 A 
ATOM      5  C   UNL     1       2.325   7.397  18.645  0.00  0.00    +0.000 A 
ATOM      6  C   UNL     1       1.781   7.755  19.881  0.00  0.00    +0.000 A 
ENDROOT
BRANCH   5   7
ATOM      7  C   UNL     1       2.825   6.023  18.343  0.00  0.00    +0.000 C 
ATOM      8  O   UNL     1       1.991   5.119  18.353  0.00  0.00    +0.000 OA
ATOM      9  N   UNL     1       4.176   5.786  18.050  0.00  0.00    +0.000 N 
ATOM     10  C   UNL     1       4.543   4.423  17.646  0.00  0.00    +0.000 C 
ATOM     11  C   UNL     1       5.937   4.034  18.134  0.00  0.00    +0.000 C 
ATOM     12  C   UNL     1       6.973   5.052  17.690  0.00  0.00    +0.000 C 
ATOM     13  C   UNL     1       6.545   6.428  18.168  0.00  0.00    +0.000 C 
ATOM     14  C   UNL     1       5.153   6.800  17.649  0.00  0.00    +0.000 C 
BRANCH  13  15
ATOM     15  C   UNL     1       7.535   7.470  17.751  0.00  0.00    +0.000 C 
ATOM     16  F   UNL     1       6.998   8.702  17.636  0.00  0.00    +0.000 F 
ATOM     17  F   UNL     1       8.552   7.562  18.627  0.00  0.00    +0.000 F 
ATOM     18  F   UNL     1       7.998   7.122  16.538  0.00  0.00    +0.000 F 
ENDBRANCH  13  15
ENDBRANCH   5   7
BRANCH   1  19
ATOM     19  S   UNL     1       0.746   9.515  21.716  0.00  0.00    +0.000 S 
ATOM     20  O   UNL     1       1.796   9.297  22.682  0.00  0.00    +0.000 OA
ATOM     21  O   UNL     1      -0.556   8.888  21.856  0.00  0.00    +0.000 OA
BRANCH  19  22
ATOM     22  N   UNL     1       0.453  11.159  21.586  0.00  0.00    +0.000 N 
ATOM     23  H   UNL     1       1.268  11.766  21.516  0.00  0.00    +0.000 HD
BRANCH  22  29
ATOM     24  C   UNL     1      -3.636  12.495  24.121  0.00  0.00    +0.000 C 
ATOM     25  C   UNL     1      -2.879  12.283  22.833  0.00  0.00    +0.000 A 
ATOM     26  C   UNL     1      -3.484  12.605  21.610  0.00  0.00    +0.000 A 
ATOM     27  C   UNL     1      -2.757  12.550  20.421  0.00  0.00    +0.000 A 
ATOM     28  C   UNL     1      -1.439  12.101  20.431  0.00  0.00    +0.000 A 
ATOM     29  C   UNL     1      -0.837  11.737  21.633  0.00  0.00    +0.000 A 
ATOM     30  C   UNL     1      -1.545  11.839  22.835  0.00  0.00    +0.000 A 
ENDBRANCH  22  29
ENDBRANCH  19  22
ENDBRANCH   1  19
TORSDOF 5
ENDMDL
