MODEL 1
REMARK VINA RESULT:      -9.6      0.000      0.000
REMARK  Name = 
REMARK  5 active torsions:
REMARK  status: ('A' for Active; 'I' for Inactive)
REMARK    1  A    between atoms: C_2  and  C_19
REMARK    2  A    between atoms: N_3  and  C_4
REMARK    3  A    between atoms: C_8  and  O_9
REMARK    4  A    between atoms: O_9  and  C_10
REMARK    5  A    between atoms: C_10  and  C_11
REMARK                            x       y       z     vdW  Elec       q    Type
REMARK                         _______ _______ _______ _____ _____    ______ ____
ROOT
ATOM      1  O   UNL     1       1.803   4.799  17.715  0.00  0.00    +0.000 OA
ATOM      2  C   UNL     1       2.916   5.289  17.877  0.00  0.00    +0.000 C 
ATOM      3  N   UNL     1       3.184   6.560  18.360  0.00  0.00    +0.000 N 
ATOM      4  H   UNL     1       4.150   6.856  18.363  0.00  0.00    +0.000 HD
ENDROOT
BRANCH   2   5
ATOM      5  C   UNL     1       4.167   4.438  17.781  0.00  0.00    +0.000 A 
ATOM      6  C   UNL     1       4.655   4.260  19.025  0.00  0.00    +0.000 A 
ATOM      7  N   UNL     1       5.976   4.545  19.300  0.00  0.00    +0.000 N 
ATOM      8  C   UNL     1       6.816   5.157  18.388  0.00  0.00    +0.000 A 
ATOM      9  O   UNL     1       7.819   5.771  18.723  0.00  0.00    +0.000 OA
ATOM     10  C   UNL     1       6.428   4.993  16.969  0.00  0.00    +0.000 A 
ATOM     11  C   UNL     1       7.363   5.213  15.955  0.00  0.00    +0.000 A 
ATOM     12  C   UNL     1       7.075   4.798  14.668  0.00  0.00    +0.000 A 
ATOM     13  C   UNL     1       5.844   4.187  14.381  0.00  0.00    +0.000 A 
ATOM     14  C   UNL     1       4.877   4.050  15.385  0.00  0.00    +0.000 A 
ATOM     15  C   UNL     1       5.151   4.490  16.684  0.00  0.00    +0.000 A 
ATOM     16  H   UNL     1       6.254   4.643  20.272  0.00  0.00    +0.000 HD
ENDBRANCH   2   5
BRANCH   3  17
ATOM     17  C   UNL     1       2.314   7.388  19.106  0.00  0.00    +0.000 A 
ATOM     18  C   UNL     1       2.020   7.224  20.460  0.00  0.00    +0.000 A 
ATOM     19  C   UNL     1       1.199   8.144  21.125  0.00  0.00    +0.000 A 
ATOM     20  C   UNL     1       0.698   9.257  20.453  0.00  0.00    +0.000 A 
ATOM     21  C   UNL     1       1.027   9.462  19.117  0.00  0.00    +0.000 A 
ATOM     22  C   UNL     1       1.788   8.502  18.436  0.00  0.00    +0.000 A 
BRANCH  21  23
ATOM     23  O   UNL     1       0.587  10.637  18.565  0.00  0.00    +0.000 OA
BRANCH  23  24
ATOM     24  C   UNL     1      -0.584  11.171  19.187  0.00  0.00    +0.000 C 
BRANCH  24  25
ATOM     25  C   UNL     1      -1.796  10.965  18.316  0.00  0.00    +0.000 A 
ATOM     26  C   UNL     1      -2.990  11.658  18.572  0.00  0.00    +0.000 A 
ATOM     27  C   UNL     1      -4.076  11.551  17.697  0.00  0.00    +0.000 A 
ATOM     28  C   UNL     1      -3.971  10.759  16.555  0.00  0.00    +0.000 A 
ATOM     29  C   UNL     1      -2.793  10.068  16.307  0.00  0.00    +0.000 A 
ATOM     30  F   UNL     1      -2.688   9.313  15.205  0.00  0.00    +0.000 F 
ATOM     31  C   UNL     1      -1.711  10.160  17.173  0.00  0.00    +0.000 A 
ENDBRANCH  24  25
ENDBRANCH  23  24
ENDBRANCH  21  23
ENDBRANCH   3  17
TORSDOF 5
ENDMDL
MODEL 2
REMARK VINA RESULT:      -9.4      0.859      1.239
REMARK  Name = 
REMARK  5 active torsions:
REMARK  status: ('A' for Active; 'I' for Inactive)
REMARK    1  A    between atoms: C_2  and  C_19
REMARK    2  A    between atoms: N_3  and  C_4
REMARK    3  A    between atoms: C_8  and  O_9
REMARK    4  A    between atoms: O_9  and  C_10
REMARK    5  A    between atoms: C_10  and  C_11
REMARK                            x       y       z     vdW  Elec       q    Type
REMARK                         _______ _______ _______ _____ _____    ______ ____
ROOT
ATOM      1  O   UNL     1       1.810   4.745  17.836  0.00  0.00    +0.000 OA
ATOM      2  C   UNL     1       2.919   5.258  17.941  0.00  0.00    +0.000 C 
ATOM      3  N   UNL     1       3.181   6.549  18.371  0.00  0.00    +0.000 N 
ATOM      4  H   UNL     1       4.142   6.861  18.329  0.00  0.00    +0.000 HD
ENDROOT
BRANCH   2   5
ATOM      5  C   UNL     1       4.180   4.425  17.829  0.00  0.00    +0.000 A 
ATOM      6  C   UNL     1       4.684   4.249  19.067  0.00  0.00    +0.000 A 
ATOM      7  N   UNL     1       6.004   4.552  19.329  0.00  0.00    +0.000 N 
ATOM      8  C   UNL     1       6.826   5.178  18.411  0.00  0.00    +0.000 A 
ATOM      9  O   UNL     1       7.824   5.805  18.737  0.00  0.00    +0.000 OA
ATOM     10  C   UNL     1       6.425   5.014  16.995  0.00  0.00    +0.000 A 
ATOM     11  C   UNL     1       7.346   5.250  15.972  0.00  0.00    +0.000 A 
ATOM     12  C   UNL     1       7.051   4.836  14.686  0.00  0.00    +0.000 A 
ATOM     13  C   UNL     1       5.825   4.208  14.411  0.00  0.00    +0.000 A 
ATOM     14  C   UNL     1       4.871   4.056  15.423  0.00  0.00    +0.000 A 
ATOM     15  C   UNL     1       5.152   4.494  16.721  0.00  0.00    +0.000 A 
ATOM     16  H   UNL     1       6.291   4.651  20.299  0.00  0.00    +0.000 HD
ENDBRANCH   2   5
BRANCH   3  17
ATOM     17  C   UNL     1       2.324   7.388  19.120  0.00  0.00    +0.000 A 
ATOM     18  C   UNL     1       2.001   7.206  20.464  0.00  0.00    +0.000 A 
ATOM     19  C   UNL     1       1.197   8.136  21.135  0.00  0.00    +0.000 A 
ATOM     20  C   UNL     1       0.743   9.278  20.478  0.00  0.00    +0.000 A 
ATOM     21  C   UNL     1       1.102   9.501  19.153  0.00  0.00    +0.000 A 
ATOM     22  C   UNL     1       1.845   8.533  18.465  0.00  0.00    +0.000 A 
BRANCH  21  23
ATOM     23  O   UNL     1       0.709  10.701  18.618  0.00  0.00    +0.000 OA
BRANCH  23  24
ATOM     24  C   UNL     1      -0.495  11.224  19.185  0.00  0.00    +0.000 C 
BRANCH  24  25
ATOM     25  C   UNL     1      -1.655  11.050  18.238  0.00  0.00    +0.000 A 
ATOM     26  C   UNL     1      -1.602  10.098  17.207  0.00  0.00    +0.000 A 
ATOM     27  C   UNL     1      -2.721   9.859  16.403  0.00  0.00    +0.000 A 
ATOM     28  C   UNL     1      -3.902  10.564  16.631  0.00  0.00    +0.000 A 
ATOM     29  C   UNL     1      -3.950  11.510  17.646  0.00  0.00    +0.000 A 
ATOM     30  F   UNL     1      -5.087  12.182  17.871  0.00  0.00    +0.000 F 
ATOM     31  C   UNL     1      -2.843  11.762  18.446  0.00  0.00    +0.000 A 
ENDBRANCH  24  25
ENDBRANCH  23  24
ENDBRANCH  21  23
ENDBRANCH   3  17
TORSDOF 5
ENDMDL
MODEL 3
REMARK VINA RESULT:      -8.9      2.582      3.525
REMARK  Name = 
REMARK  5 active torsions:
REMARK  status: ('A' for Active; 'I' for Inactive)
REMARK    1  A    between atoms: C_2  and  C_19
REMARK    2  A    between atoms: N_3  and  C_4
REMARK    3  A    between atoms: C_8  and  O_9
REMARK    4  A    between atoms: O_9  and  C_10
REMARK    5  A    between atoms: C_10  and  C_11
REMARK                            x       y       z     vdW  Elec       q    Type
REMARK                         _______ _______ _______ _____ _____    ______ ____
ROOT
ATOM      1  O   UNL     1       1.712   4.400  17.902  0.00  0.00    +0.000 OA
ATOM      2  C   UNL     1       2.822   4.907  17.773  0.00  0.00    +0.000 C 
ATOM      3  N   UNL     1       3.140   6.237  17.996  0.00  0.00    +0.000 N 
ATOM      4  H   UNL     1       4.080   6.529  17.770  0.00  0.00    +0.000 HD
ENDROOT
BRANCH   2   5
ATOM      5  C   UNL     1       4.055   4.050  17.573  0.00  0.00    +0.000 A 
ATOM      6  C   UNL     1       4.497   3.652  18.783  0.00  0.00    +0.000 A 
ATOM      7  N   UNL     1       5.814   3.851  19.141  0.00  0.00    +0.000 N 
ATOM      8  C   UNL     1       6.698   4.582  18.371  0.00  0.00    +0.000 A 
ATOM      9  O   UNL     1       7.703   5.104  18.834  0.00  0.00    +0.000 OA
ATOM     10  C   UNL     1       6.355   4.669  16.934  0.00  0.00    +0.000 A 
ATOM     11  C   UNL     1       7.329   5.028  15.999  0.00  0.00    +0.000 A 
ATOM     12  C   UNL     1       7.076   4.843  14.652  0.00  0.00    +0.000 A 
ATOM     13  C   UNL     1       5.842   4.322  14.231  0.00  0.00    +0.000 A 
ATOM     14  C   UNL     1       4.838   4.048  15.167  0.00  0.00    +0.000 A 
ATOM     15  C   UNL     1       5.077   4.256  16.530  0.00  0.00    +0.000 A 
ATOM     16  H   UNL     1       6.061   3.778  20.124  0.00  0.00    +0.000 HD
ENDBRANCH   2   5
BRANCH   3  17
ATOM     17  C   UNL     1       2.402   7.173  18.758  0.00  0.00    +0.000 A 
ATOM     18  C   UNL     1       2.097   7.037  20.112  0.00  0.00    +0.000 A 
ATOM     19  C   UNL     1       1.420   8.057  20.794  0.00  0.00    +0.000 A 
ATOM     20  C   UNL     1       1.080   9.238  20.137  0.00  0.00    +0.000 A 
ATOM     21  C   UNL     1       1.426   9.410  18.801  0.00  0.00    +0.000 A 
ATOM     22  C   UNL     1       2.038   8.359  18.104  0.00  0.00    +0.000 A 
BRANCH  21  23
ATOM     23  O   UNL     1       1.156  10.642  18.264  0.00  0.00    +0.000 OA
BRANCH  23  24
ATOM     24  C   UNL     1       0.666  11.594  19.211  0.00  0.00    +0.000 C 
BRANCH  24  25
ATOM     25  C   UNL     1       1.608  12.763  19.335  0.00  0.00    +0.000 A 
ATOM     26  C   UNL     1       2.155  13.115  20.580  0.00  0.00    +0.000 A 
ATOM     27  C   UNL     1       3.116  14.127  20.674  0.00  0.00    +0.000 A 
ATOM     28  C   UNL     1       3.543  14.787  19.523  0.00  0.00    +0.000 A 
ATOM     29  C   UNL     1       2.996  14.443  18.294  0.00  0.00    +0.000 A 
ATOM     30  F   UNL     1       3.412  15.071  17.186  0.00  0.00    +0.000 F 
ATOM     31  C   UNL     1       2.035  13.445  18.189  0.00  0.00    +0.000 A 
ENDBRANCH  24  25
ENDBRANCH  23  24
ENDBRANCH  21  23
ENDBRANCH   3  17
TORSDOF 5
ENDMDL
MODEL 4
REMARK VINA RESULT:      -8.8      2.367      3.785
REMARK  Name = 
REMARK  5 active torsions:
REMARK  status: ('A' for Active; 'I' for Inactive)
REMARK    1  A    between atoms: C_2  and  C_19
REMARK    2  A    between atoms: N_3  and  C_4
REMARK    3  A    between atoms: C_8  and  O_9
REMARK    4  A    between atoms: O_9  and  C_10
REMARK    5  A    between atoms: C_10  and  C_11
REMARK                            x       y       z     vdW  Elec       q    Type
REMARK                         _______ _______ _______ _____ _____    ______ ____
ROOT
ATOM      1  O   UNL     1       1.857   7.765  18.613  0.00  0.00    +0.000 OA
ATOM      2  C   UNL     1       2.288   7.326  19.675  0.00  0.00    +0.000 C 
ATOM      3  N   UNL     1       2.090   7.885  20.927  0.00  0.00    +0.000 N 
ATOM      4  H   UNL     1       2.575   7.457  21.703  0.00  0.00    +0.000 HD
ENDROOT
BRANCH   2   5
ATOM      5  C   UNL     1       2.910   5.946  19.756  0.00  0.00    +0.000 A 
ATOM      6  C   UNL     1       4.186   6.031  19.328  0.00  0.00    +0.000 A 
ATOM      7  N   UNL     1       4.647   5.180  18.346  0.00  0.00    +0.000 N 
ATOM      8  C   UNL     1       3.819   4.317  17.652  0.00  0.00    +0.000 A 
ATOM      9  O   UNL     1       4.103   3.873  16.549  0.00  0.00    +0.000 OA
ATOM     10  C   UNL     1       2.570   3.946  18.355  0.00  0.00    +0.000 A 
ATOM     11  C   UNL     1       1.850   2.815  17.960  0.00  0.00    +0.000 A 
ATOM     12  C   UNL     1       0.851   2.328  18.782  0.00  0.00    +0.000 A 
ATOM     13  C   UNL     1       0.547   2.980  19.988  0.00  0.00    +0.000 A 
ATOM     14  C   UNL     1       1.212   4.163  20.333  0.00  0.00    +0.000 A 
ATOM     15  C   UNL     1       2.207   4.677  19.495  0.00  0.00    +0.000 A 
ATOM     16  H   UNL     1       5.513   5.418  17.870  0.00  0.00    +0.000 HD
ENDBRANCH   2   5
BRANCH   3  17
ATOM     17  C   UNL     1       1.082   8.804  21.300  0.00  0.00    +0.000 A 
ATOM     18  C   UNL     1       0.305   8.712  22.454  0.00  0.00    +0.000 A 
ATOM     19  C   UNL     1      -0.622   9.715  22.769  0.00  0.00    +0.000 A 
ATOM     20  C   UNL     1      -0.749  10.838  21.954  0.00  0.00    +0.000 A 
ATOM     21  C   UNL     1       0.058  10.969  20.828  0.00  0.00    +0.000 A 
ATOM     22  C   UNL     1       0.931   9.930  20.478  0.00  0.00    +0.000 A 
BRANCH  21  23
ATOM     23  O   UNL     1      -0.050  12.154  20.147  0.00  0.00    +0.000 OA
BRANCH  23  24
ATOM     24  C   UNL     1      -0.120  12.005  18.727  0.00  0.00    +0.000 C 
BRANCH  24  25
ATOM     25  C   UNL     1      -1.469  11.482  18.307  0.00  0.00    +0.000 A 
ATOM     26  C   UNL     1      -1.578  10.314  17.535  0.00  0.00    +0.000 A 
ATOM     27  C   UNL     1      -2.832   9.769  17.243  0.00  0.00    +0.000 A 
ATOM     28  C   UNL     1      -3.985  10.381  17.730  0.00  0.00    +0.000 A 
ATOM     29  C   UNL     1      -3.877  11.541  18.487  0.00  0.00    +0.000 A 
ATOM     30  F   UNL     1      -4.984  12.126  18.963  0.00  0.00    +0.000 F 
ATOM     31  C   UNL     1      -2.637  12.096  18.777  0.00  0.00    +0.000 A 
ENDBRANCH  24  25
ENDBRANCH  23  24
ENDBRANCH  21  23
ENDBRANCH   3  17
TORSDOF 5
ENDMDL
MODEL 5
REMARK VINA RESULT:      -8.7      3.320      8.975
REMARK  Name = 
REMARK  5 active torsions:
REMARK  status: ('A' for Active; 'I' for Inactive)
REMARK    1  A    between atoms: C_2  and  C_19
REMARK    2  A    between atoms: N_3  and  C_4
REMARK    3  A    between atoms: C_8  and  O_9
REMARK    4  A    between atoms: O_9  and  C_10
REMARK    5  A    between atoms: C_10  and  C_11
REMARK                            x       y       z     vdW  Elec       q    Type
REMARK                         _______ _______ _______ _____ _____    ______ ____
ROOT
ATOM      1  O   UNL     1       1.937   7.521  20.425  0.00  0.00    +0.000 OA
ATOM      2  C   UNL     1       1.980   8.002  19.297  0.00  0.00    +0.000 C 
ATOM      3  N   UNL     1       2.561   7.417  18.184  0.00  0.00    +0.000 N 
ATOM      4  H   UNL     1       2.591   7.968  17.338  0.00  0.00    +0.000 HD
ENDROOT
BRANCH   2   5
ATOM      5  C   UNL     1       1.168   9.231  18.940  0.00  0.00    +0.000 A 
ATOM      6  C   UNL     1       1.638   9.726  17.777  0.00  0.00    +0.000 A 
ATOM      7  N   UNL     1       1.990  11.056  17.680  0.00  0.00    +0.000 N 
ATOM      8  C   UNL     1       2.029  11.902  18.773  0.00  0.00    +0.000 A 
ATOM      9  O   UNL     1       2.703  12.923  18.794  0.00  0.00    +0.000 OA
ATOM     10  C   UNL     1       1.173  11.498  19.911  0.00  0.00    +0.000 A 
ATOM     11  C   UNL     1       0.820  12.428  20.890  0.00  0.00    +0.000 A 
ATOM     12  C   UNL     1      -0.186  12.119  21.787  0.00  0.00    +0.000 A 
ATOM     13  C   UNL     1      -0.827  10.871  21.726  0.00  0.00    +0.000 A 
ATOM     14  C   UNL     1      -0.407   9.910  20.798  0.00  0.00    +0.000 A 
ATOM     15  C   UNL     1       0.627  10.206  19.905  0.00  0.00    +0.000 A 
ATOM     16  H   UNL     1       2.565  11.345  16.893  0.00  0.00    +0.000 HD
ENDBRANCH   2   5
BRANCH   3  17
ATOM     17  C   UNL     1       2.865   6.047  18.003  0.00  0.00    +0.000 A 
ATOM     18  C   UNL     1       1.955   5.001  18.148  0.00  0.00    +0.000 A 
ATOM     19  C   UNL     1       2.340   3.681  17.876  0.00  0.00    +0.000 A 
ATOM     20  C   UNL     1       3.625   3.402  17.417  0.00  0.00    +0.000 A 
ATOM     21  C   UNL     1       4.527   4.442  17.215  0.00  0.00    +0.000 A 
ATOM     22  C   UNL     1       4.162   5.751  17.557  0.00  0.00    +0.000 A 
BRANCH  21  23
ATOM     23  O   UNL     1       5.729   4.094  16.654  0.00  0.00    +0.000 OA
BRANCH  23  24
ATOM     24  C   UNL     1       6.382   5.164  15.966  0.00  0.00    +0.000 C 
BRANCH  24  25
ATOM     25  C   UNL     1       6.560   4.834  14.506  0.00  0.00    +0.000 A 
ATOM     26  C   UNL     1       7.610   5.400  13.766  0.00  0.00    +0.000 A 
ATOM     27  C   UNL     1       7.841   5.006  12.444  0.00  0.00    +0.000 A 
ATOM     28  C   UNL     1       7.030   4.036  11.858  0.00  0.00    +0.000 A 
ATOM     29  C   UNL     1       5.987   3.482  12.589  0.00  0.00    +0.000 A 
ATOM     30  F   UNL     1       5.212   2.544  12.029  0.00  0.00    +0.000 F 
ATOM     31  C   UNL     1       5.743   3.872  13.900  0.00  0.00    +0.000 A 
ENDBRANCH  24  25
ENDBRANCH  23  24
ENDBRANCH  21  23
ENDBRANCH   3  17
TORSDOF 5
ENDMDL
MODEL 6
REMARK VINA RESULT:      -8.7      2.030      2.622
REMARK  Name = 
REMARK  5 active torsions:
REMARK  status: ('A' for Active; 'I' for Inactive)
REMARK    1  A    between atoms: C_2  and  C_19
REMARK    2  A    between atoms: N_3  and  C_4
REMARK    3  A    between atoms: C_8  and  O_9
REMARK    4  A    between atoms: O_9  and  C_10
REMARK    5  A    between atoms: C_10  and  C_11
REMARK                            x       y       z     vdW  Elec       q    Type
REMARK                         _______ _______ _______ _____ _____    ______ ____
ROOT
ATOM      1  O   UNL     1       2.423   7.137  19.968  0.00  0.00    +0.000 OA
ATOM      2  C   UNL     1       2.462   7.174  18.743  0.00  0.00    +0.000 C 
ATOM      3  N   UNL     1       1.974   8.195  17.944  0.00  0.00    +0.000 N 
ATOM      4  H   UNL     1       2.003   8.051  16.944  0.00  0.00    +0.000 HD
ENDROOT
BRANCH   2   5
ATOM      5  C   UNL     1       3.288   6.177  17.955  0.00  0.00    +0.000 A 
ATOM      6  C   UNL     1       2.661   4.983  17.994  0.00  0.00    +0.000 A 
ATOM      7  N   UNL     1       3.345   3.853  18.389  0.00  0.00    +0.000 N 
ATOM      8  C   UNL     1       4.630   3.894  18.899  0.00  0.00    +0.000 A 
ATOM      9  O   UNL     1       5.087   3.009  19.610  0.00  0.00    +0.000 OA
ATOM     10  C   UNL     1       5.426   5.076  18.500  0.00  0.00    +0.000 A 
ATOM     11  C   UNL     1       6.818   5.057  18.613  0.00  0.00    +0.000 A 
ATOM     12  C   UNL     1       7.561   6.044  17.993  0.00  0.00    +0.000 A 
ATOM     13  C   UNL     1       6.918   7.069  17.279  0.00  0.00    +0.000 A 
ATOM     14  C   UNL     1       5.520   7.131  17.246  0.00  0.00    +0.000 A 
ATOM     15  C   UNL     1       4.761   6.150  17.892  0.00  0.00    +0.000 A 
ATOM     16  H   UNL     1       2.807   3.031  18.649  0.00  0.00    +0.000 HD
ENDBRANCH   2   5
BRANCH   3  17
ATOM     17  C   UNL     1       1.697   9.526  18.336  0.00  0.00    +0.000 A 
ATOM     18  C   UNL     1       2.434  10.643  17.947  0.00  0.00    +0.000 A 
ATOM     19  C   UNL     1       2.034  11.929  18.335  0.00  0.00    +0.000 A 
ATOM     20  C   UNL     1       0.870  12.111  19.078  0.00  0.00    +0.000 A 
ATOM     21  C   UNL     1       0.095  11.010  19.427  0.00  0.00    +0.000 A 
ATOM     22  C   UNL     1       0.537   9.720  19.101  0.00  0.00    +0.000 A 
BRANCH  21  23
ATOM     23  O   UNL     1      -1.090  11.286  20.059  0.00  0.00    +0.000 OA
BRANCH  23  24
ATOM     24  C   UNL     1      -1.861  12.312  19.428  0.00  0.00    +0.000 C 
BRANCH  24  25
ATOM     25  C   UNL     1      -2.746  11.735  18.354  0.00  0.00    +0.000 A 
ATOM     26  C   UNL     1      -4.137  11.663  18.532  0.00  0.00    +0.000 A 
ATOM     27  C   UNL     1      -4.966  11.234  17.491  0.00  0.00    +0.000 A 
ATOM     28  C   UNL     1      -4.411  10.883  16.262  0.00  0.00    +0.000 A 
ATOM     29  C   UNL     1      -3.034  10.946  16.089  0.00  0.00    +0.000 A 
ATOM     30  F   UNL     1      -2.500  10.617  14.906  0.00  0.00    +0.000 F 
ATOM     31  C   UNL     1      -2.200  11.364  17.119  0.00  0.00    +0.000 A 
ENDBRANCH  24  25
ENDBRANCH  23  24
ENDBRANCH  21  23
ENDBRANCH   3  17
TORSDOF 5
ENDMDL
MODEL 7
REMARK VINA RESULT:      -8.6      2.310      3.106
REMARK  Name = 
REMARK  5 active torsions:
REMARK  status: ('A' for Active; 'I' for Inactive)
REMARK    1  A    between atoms: C_2  and  C_19
REMARK    2  A    between atoms: N_3  and  C_4
REMARK    3  A    between atoms: C_8  and  O_9
REMARK    4  A    between atoms: O_9  and  C_10
REMARK    5  A    between atoms: C_10  and  C_11
REMARK                            x       y       z     vdW  Elec       q    Type
REMARK                         _______ _______ _______ _____ _____    ______ ____
ROOT
ATOM      1  O   UNL     1       1.801   4.721  17.848  0.00  0.00    +0.000 OA
ATOM      2  C   UNL     1       2.913   5.239  17.890  0.00  0.00    +0.000 C 
ATOM      3  N   UNL     1       3.186   6.552  18.240  0.00  0.00    +0.000 N 
ATOM      4  H   UNL     1       4.144   6.861  18.150  0.00  0.00    +0.000 HD
ENDROOT
BRANCH   2   5
ATOM      5  C   UNL     1       4.171   4.401  17.783  0.00  0.00    +0.000 A 
ATOM      6  C   UNL     1       4.663   4.214  19.024  0.00  0.00    +0.000 A 
ATOM      7  N   UNL     1       5.981   4.509  19.300  0.00  0.00    +0.000 N 
ATOM      8  C   UNL     1       6.814   5.138  18.394  0.00  0.00    +0.000 A 
ATOM      9  O   UNL     1       7.812   5.757  18.734  0.00  0.00    +0.000 OA
ATOM     10  C   UNL     1       6.426   4.985  16.974  0.00  0.00    +0.000 A 
ATOM     11  C   UNL     1       7.357   5.224  15.960  0.00  0.00    +0.000 A 
ATOM     12  C   UNL     1       7.071   4.821  14.669  0.00  0.00    +0.000 A 
ATOM     13  C   UNL     1       5.845   4.201  14.378  0.00  0.00    +0.000 A 
ATOM     14  C   UNL     1       4.881   4.045  15.381  0.00  0.00    +0.000 A 
ATOM     15  C   UNL     1       5.153   4.473  16.684  0.00  0.00    +0.000 A 
ATOM     16  H   UNL     1       6.260   4.599  20.273  0.00  0.00    +0.000 HD
ENDBRANCH   2   5
BRANCH   3  17
ATOM     17  C   UNL     1       2.352   7.430  18.969  0.00  0.00    +0.000 A 
ATOM     18  C   UNL     1       1.994   7.267  20.307  0.00  0.00    +0.000 A 
ATOM     19  C   UNL     1       1.218   8.234  20.958  0.00  0.00    +0.000 A 
ATOM     20  C   UNL     1       0.828   9.393  20.290  0.00  0.00    +0.000 A 
ATOM     21  C   UNL     1       1.223   9.595  18.971  0.00  0.00    +0.000 A 
ATOM     22  C   UNL     1       1.937   8.592  18.301  0.00  0.00    +0.000 A 
BRANCH  21  23
ATOM     23  O   UNL     1       0.895  10.809  18.426  0.00  0.00    +0.000 OA
BRANCH  23  24
ATOM     24  C   UNL     1       0.114  11.642  19.286  0.00  0.00    +0.000 C 
BRANCH  24  25
ATOM     25  C   UNL     1       0.581  13.073  19.217  0.00  0.00    +0.000 A 
ATOM     26  C   UNL     1       1.941  13.393  19.358  0.00  0.00    +0.000 A 
ATOM     27  C   UNL     1       2.385  14.706  19.180  0.00  0.00    +0.000 A 
ATOM     28  C   UNL     1       1.474  15.708  18.849  0.00  0.00    +0.000 A 
ATOM     29  C   UNL     1       0.128  15.392  18.718  0.00  0.00    +0.000 A 
ATOM     30  F   UNL     1      -0.748  16.352  18.392  0.00  0.00    +0.000 F 
ATOM     31  C   UNL     1      -0.326  14.092  18.900  0.00  0.00    +0.000 A 
ENDBRANCH  24  25
ENDBRANCH  23  24
ENDBRANCH  21  23
ENDBRANCH   3  17
TORSDOF 5
ENDMDL
MODEL 8
REMARK VINA RESULT:      -8.6      2.877      3.570
REMARK  Name = 
REMARK  5 active torsions:
REMARK  status: ('A' for Active; 'I' for Inactive)
REMARK    1  A    between atoms: C_2  and  C_19
REMARK    2  A    between atoms: N_3  and  C_4
REMARK    3  A    between atoms: C_8  and  O_9
REMARK    4  A    between atoms: O_9  and  C_10
REMARK    5  A    between atoms: C_10  and  C_11
REMARK                            x       y       z     vdW  Elec       q    Type
REMARK                         _______ _______ _______ _____ _____    ______ ____
ROOT
ATOM      1  O   UNL     1       1.680   4.642  17.600  0.00  0.00    +0.000 OA
ATOM      2  C   UNL     1       2.822   5.083  17.676  0.00  0.00    +0.000 C 
ATOM      3  N   UNL     1       3.179   6.349  18.110  0.00  0.00    +0.000 N 
ATOM      4  H   UNL     1       4.155   6.601  18.041  0.00  0.00    +0.000 HD
ENDROOT
BRANCH   2   5
ATOM      5  C   UNL     1       4.024   4.173  17.516  0.00  0.00    +0.000 A 
ATOM      6  C   UNL     1       4.422   3.777  18.742  0.00  0.00    +0.000 A 
ATOM      7  N   UNL     1       5.738   3.928  19.127  0.00  0.00    +0.000 N 
ATOM      8  C   UNL     1       6.668   4.611  18.366  0.00  0.00    +0.000 A 
ATOM      9  O   UNL     1       7.683   5.099  18.844  0.00  0.00    +0.000 OA
ATOM     10  C   UNL     1       6.361   4.689  16.920  0.00  0.00    +0.000 A 
ATOM     11  C   UNL     1       7.368   4.995  16.003  0.00  0.00    +0.000 A 
ATOM     12  C   UNL     1       7.138   4.799  14.654  0.00  0.00    +0.000 A 
ATOM     13  C   UNL     1       5.894   4.322  14.212  0.00  0.00    +0.000 A 
ATOM     14  C   UNL     1       4.859   4.103  15.129  0.00  0.00    +0.000 A 
ATOM     15  C   UNL     1       5.077   4.322  16.493  0.00  0.00    +0.000 A 
ATOM     16  H   UNL     1       5.960   3.860  20.116  0.00  0.00    +0.000 HD
ENDBRANCH   2   5
BRANCH   3  17
ATOM     17  C   UNL     1       2.399   7.232  18.893  0.00  0.00    +0.000 A 
ATOM     18  C   UNL     1       2.075   7.035  20.235  0.00  0.00    +0.000 A 
ATOM     19  C   UNL     1       1.354   8.007  20.942  0.00  0.00    +0.000 A 
ATOM     20  C   UNL     1       0.989   9.201  20.325  0.00  0.00    +0.000 A 
ATOM     21  C   UNL     1       1.353   9.435  19.003  0.00  0.00    +0.000 A 
ATOM     22  C   UNL     1       2.009   8.431  18.278  0.00  0.00    +0.000 A 
BRANCH  21  23
ATOM     23  O   UNL     1       1.054  10.678  18.509  0.00  0.00    +0.000 OA
BRANCH  23  24
ATOM     24  C   UNL     1       2.197  11.429  18.092  0.00  0.00    +0.000 C 
BRANCH  24  25
ATOM     25  C   UNL     1       2.273  12.743  18.826  0.00  0.00    +0.000 A 
ATOM     26  C   UNL     1       2.822  13.879  18.209  0.00  0.00    +0.000 A 
ATOM     27  C   UNL     1       2.789  15.122  18.849  0.00  0.00    +0.000 A 
ATOM     28  C   UNL     1       2.197  15.239  20.105  0.00  0.00    +0.000 A 
ATOM     29  C   UNL     1       1.661  14.114  20.718  0.00  0.00    +0.000 A 
ATOM     30  F   UNL     1       1.085  14.227  21.922  0.00  0.00    +0.000 F 
ATOM     31  C   UNL     1       1.696  12.872  20.095  0.00  0.00    +0.000 A 
ENDBRANCH  24  25
ENDBRANCH  23  24
ENDBRANCH  21  23
ENDBRANCH   3  17
TORSDOF 5
ENDMDL
MODEL 9
REMARK VINA RESULT:      -8.6      3.361      8.170
REMARK  Name = 
REMARK  5 active torsions:
REMARK  status: ('A' for Active; 'I' for Inactive)
REMARK    1  A    between atoms: C_2  and  C_19
REMARK    2  A    between atoms: N_3  and  C_4
REMARK    3  A    between atoms: C_8  and  O_9
REMARK    4  A    between atoms: O_9  and  C_10
REMARK    5  A    between atoms: C_10  and  C_11
REMARK                            x       y       z     vdW  Elec       q    Type
REMARK                         _______ _______ _______ _____ _____    ______ ____
ROOT
ATOM      1  O   UNL     1       2.619   6.631  19.895  0.00  0.00    +0.000 OA
ATOM      2  C   UNL     1       2.567   7.547  19.080  0.00  0.00    +0.000 C 
ATOM      3  N   UNL     1       3.430   7.736  18.013  0.00  0.00    +0.000 N 
ATOM      4  H   UNL     1       3.314   8.582  17.472  0.00  0.00    +0.000 HD
ENDROOT
BRANCH   2   5
ATOM      5  C   UNL     1       1.369   8.473  19.018  0.00  0.00    +0.000 A 
ATOM      6  C   UNL     1       1.420   9.156  17.857  0.00  0.00    +0.000 A 
ATOM      7  N   UNL     1       1.329  10.532  17.856  0.00  0.00    +0.000 N 
ATOM      8  C   UNL     1       1.335  11.284  19.016  0.00  0.00    +0.000 A 
ATOM      9  O   UNL     1       1.661  12.463  19.038  0.00  0.00    +0.000 OA
ATOM     10  C   UNL     1       0.892  10.565  20.232  0.00  0.00    +0.000 A 
ATOM     11  C   UNL     1       0.484  11.279  21.361  0.00  0.00    +0.000 A 
ATOM     12  C   UNL     1      -0.178  10.617  22.379  0.00  0.00    +0.000 A 
ATOM     13  C   UNL     1      -0.413   9.235  22.286  0.00  0.00    +0.000 A 
ATOM     14  C   UNL     1       0.077   8.511  21.193  0.00  0.00    +0.000 A 
ATOM     15  C   UNL     1       0.769   9.170  20.172  0.00  0.00    +0.000 A 
ATOM     16  H   UNL     1       1.617  11.032  17.020  0.00  0.00    +0.000 HD
ENDBRANCH   2   5
BRANCH   3  17
ATOM     17  C   UNL     1       4.269   6.768  17.414  0.00  0.00    +0.000 A 
ATOM     18  C   UNL     1       5.605   6.971  17.069  0.00  0.00    +0.000 A 
ATOM     19  C   UNL     1       6.371   5.922  16.545  0.00  0.00    +0.000 A 
ATOM     20  C   UNL     1       5.820   4.650  16.399  0.00  0.00    +0.000 A 
ATOM     21  C   UNL     1       4.504   4.420  16.789  0.00  0.00    +0.000 A 
ATOM     22  C   UNL     1       3.720   5.488  17.245  0.00  0.00    +0.000 A 
BRANCH  21  23
ATOM     23  O   UNL     1       4.077   3.119  16.719  0.00  0.00    +0.000 OA
BRANCH  23  24
ATOM     24  C   UNL     1       4.170   2.408  17.956  0.00  0.00    +0.000 C 
BRANCH  24  25
ATOM     25  C   UNL     1       3.001   2.730  18.850  0.00  0.00    +0.000 A 
ATOM     26  C   UNL     1       1.683   2.559  18.398  0.00  0.00    +0.000 A 
ATOM     27  C   UNL     1       0.603   2.749  19.265  0.00  0.00    +0.000 A 
ATOM     28  C   UNL     1       0.834   3.103  20.593  0.00  0.00    +0.000 A 
ATOM     29  C   UNL     1       2.138   3.281  21.038  0.00  0.00    +0.000 A 
ATOM     30  F   UNL     1       2.362   3.613  22.316  0.00  0.00    +0.000 F 
ATOM     31  C   UNL     1       3.218   3.102  20.183  0.00  0.00    +0.000 A 
ENDBRANCH  24  25
ENDBRANCH  23  24
ENDBRANCH  21  23
ENDBRANCH   3  17
TORSDOF 5
ENDMDL
