MODEL 1
REMARK VINA RESULT:      -8.7      0.000      0.000
REMARK  Name = 
REMARK  8 active torsions:
REMARK  status: ('A' for Active; 'I' for Inactive)
REMARK    1  A    between atoms: C_1  and  C_2
REMARK    2  A    between atoms: C_2  and  C_3
REMARK    3  A    between atoms: C_2  and  C_4
REMARK    4  A    between atoms: C_8  and  N_9
REMARK    5  A    between atoms: C_11  and  O_12
REMARK    6  A    between atoms: C_13  and  C_14
REMARK    7  A    between atoms: N_16  and  C_17
REMARK    8  A    between atoms: N_25  and  C_26
REMARK                            x       y       z     vdW  Elec       q    Type
REMARK                         _______ _______ _______ _____ _____    ______ ____
ROOT
ATOM      1  N   UNL     1       5.147   4.859  15.994  0.00  0.00    +0.000 N 
ATOM      2  C   UNL     1       4.625   3.844  16.759  0.00  0.00    +0.000 A 
ATOM      3  C   UNL     1       3.856   4.442  17.703  0.00  0.00    +0.000 A 
ATOM      4  C   UNL     1       3.942   5.848  17.484  0.00  0.00    +0.000 A 
ATOM      5  N   UNL     1       4.806   6.108  16.477  0.00  0.00    +0.000 NA
ENDROOT
BRANCH   1  10
ATOM      6  C   UNL     1       6.076   3.733  12.540  0.00  0.00    +0.000 A 
ATOM      7  C   UNL     1       7.291   4.409  12.384  0.00  0.00    +0.000 A 
ATOM      8  C   UNL     1       7.806   5.202  13.415  0.00  0.00    +0.000 A 
ATOM      9  C   UNL     1       7.107   5.353  14.615  0.00  0.00    +0.000 A 
ATOM     10  C   UNL     1       5.903   4.674  14.800  0.00  0.00    +0.000 A 
ATOM     11  C   UNL     1       5.412   3.844  13.772  0.00  0.00    +0.000 A 
BRANCH   6  13
ATOM     12  C   UNL     1       5.841   1.485  11.386  0.00  0.00    +0.000 C 
ATOM     13  C   UNL     1       5.460   2.968  11.379  0.00  0.00    +0.000 C 
ATOM     14  C   UNL     1       3.932   3.126  11.365  0.00  0.00    +0.000 C 
ENDBRANCH   6  13
ENDBRANCH   1  10
BRANCH   4  15
ATOM     15  C   UNL     1       3.141   6.821  18.249  0.00  0.00    +0.000 C 
ATOM     16  O   UNL     1       2.995   6.603  19.453  0.00  0.00    +0.000 OA
ATOM     17  N   UNL     1       2.532   7.927  17.606  0.00  0.00    +0.000 N 
ATOM     18  H   UNL     1       2.414   7.871  16.605  0.00  0.00    +0.000 HD
BRANCH  17  19
ATOM     19  C   UNL     1       1.866   8.942  18.387  0.00  0.00    +0.000 A 
ATOM     20  C   UNL     1       1.828  10.244  17.858  0.00  0.00    +0.000 A 
ATOM     21  C   UNL     1       1.571  11.346  18.644  0.00  0.00    +0.000 A 
ATOM     22  C   UNL     1       1.150  11.138  19.934  0.00  0.00    +0.000 A 
ATOM     23  C   UNL     1       0.954  12.270  20.849  0.00  0.00    +0.000 A 
ATOM     24  C   UNL     1      -0.340  12.293  21.188  0.00  0.00    +0.000 A 
ATOM     25  C   UNL     1      -0.676  11.064  21.982  0.00  0.00    +0.000 A 
ATOM     26  O   UNL     1      -1.533  11.142  22.858  0.00  0.00    +0.000 OA
ATOM     27  N   UNL     1      -0.021   9.868  21.584  0.00  0.00    +0.000 N 
ATOM     28  C   UNL     1      -0.338   8.709  22.381  0.00  0.00    +0.000 C 
ATOM     29  C   UNL     1       0.814   9.850  20.401  0.00  0.00    +0.000 A 
ATOM     30  C   UNL     1       1.259   8.733  19.641  0.00  0.00    +0.000 A 
ENDBRANCH  17  19
ENDBRANCH   4  15
BRANCH   3  31
ATOM     31  O   UNL     1       3.154   3.760  18.621  0.00  0.00    +0.000 OA
ATOM     32  H   UNL     1       2.288   3.485  18.274  0.00  0.00    +0.000 HD
ENDBRANCH   3  31
TORSDOF 5
ENDMDL
MODEL 2
REMARK VINA RESULT:      -8.7      3.761      6.102
REMARK  Name = 
REMARK  8 active torsions:
REMARK  status: ('A' for Active; 'I' for Inactive)
REMARK    1  A    between atoms: C_1  and  C_2
REMARK    2  A    between atoms: C_2  and  C_3
REMARK    3  A    between atoms: C_2  and  C_4
REMARK    4  A    between atoms: C_8  and  N_9
REMARK    5  A    between atoms: C_11  and  O_12
REMARK    6  A    between atoms: C_13  and  C_14
REMARK    7  A    between atoms: N_16  and  C_17
REMARK    8  A    between atoms: N_25  and  C_26
REMARK                            x       y       z     vdW  Elec       q    Type
REMARK                         _______ _______ _______ _____ _____    ______ ____
ROOT
ATOM      1  N   UNL     1       2.095   7.823  18.851  0.00  0.00    +0.000 N 
ATOM      2  C   UNL     1       1.833   8.839  17.964  0.00  0.00    +0.000 A 
ATOM      3  C   UNL     1       1.204   9.807  18.677  0.00  0.00    +0.000 A 
ATOM      4  C   UNL     1       1.090   9.334  20.016  0.00  0.00    +0.000 A 
ATOM      5  N   UNL     1       1.569   8.072  20.105  0.00  0.00    +0.000 NA
ENDROOT
BRANCH   1  10
ATOM      6  C   UNL     1       3.147   4.229  18.667  0.00  0.00    +0.000 A 
ATOM      7  C   UNL     1       4.293   4.352  17.874  0.00  0.00    +0.000 A 
ATOM      8  C   UNL     1       4.724   5.607  17.430  0.00  0.00    +0.000 A 
ATOM      9  C   UNL     1       4.007   6.762  17.753  0.00  0.00    +0.000 A 
ATOM     10  C   UNL     1       2.871   6.665  18.558  0.00  0.00    +0.000 A 
ATOM     11  C   UNL     1       2.468   5.400  19.035  0.00  0.00    +0.000 A 
BRANCH   6  13
ATOM     12  C   UNL     1       1.089   2.771  18.947  0.00  0.00    +0.000 C 
ATOM     13  C   UNL     1       2.614   2.856  19.050  0.00  0.00    +0.000 C 
ATOM     14  C   UNL     1       3.269   1.756  18.202  0.00  0.00    +0.000 C 
ENDBRANCH   6  13
ENDBRANCH   1  10
BRANCH   4  15
ATOM     15  C   UNL     1       0.561  10.168  21.111  0.00  0.00    +0.000 C 
ATOM     16  O   UNL     1       1.073  10.023  22.223  0.00  0.00    +0.000 OA
ATOM     17  N   UNL     1      -0.519  11.057  20.892  0.00  0.00    +0.000 N 
ATOM     18  H   UNL     1      -1.093  10.894  20.077  0.00  0.00    +0.000 HD
BRANCH  17  19
ATOM     19  C   UNL     1      -0.936  11.962  21.936  0.00  0.00    +0.000 A 
ATOM     20  C   UNL     1      -1.915  11.506  22.837  0.00  0.00    +0.000 A 
ATOM     21  C   UNL     1      -2.652  12.370  23.616  0.00  0.00    +0.000 A 
ATOM     22  C   UNL     1      -2.280  13.690  23.651  0.00  0.00    +0.000 A 
ATOM     23  C   UNL     1      -3.083  14.676  24.384  0.00  0.00    +0.000 A 
ATOM     24  C   UNL     1      -2.315  15.173  25.361  0.00  0.00    +0.000 A 
ATOM     25  C   UNL     1      -1.173  15.943  24.763  0.00  0.00    +0.000 A 
ATOM     26  O   UNL     1      -0.740  16.921  25.365  0.00  0.00    +0.000 OA
ATOM     27  N   UNL     1      -0.622  15.409  23.567  0.00  0.00    +0.000 N 
ATOM     28  C   UNL     1       0.453  16.183  22.997  0.00  0.00    +0.000 C 
ATOM     29  C   UNL     1      -1.078  14.132  23.057  0.00  0.00    +0.000 A 
ATOM     30  C   UNL     1      -0.446  13.270  22.119  0.00  0.00    +0.000 A 
ENDBRANCH  17  19
ENDBRANCH   4  15
BRANCH   3  31
ATOM     31  O   UNL     1       0.816  10.977  18.146  0.00  0.00    +0.000 OA
ATOM     32  H   UNL     1       1.044  11.723  18.727  0.00  0.00    +0.000 HD
ENDBRANCH   3  31
TORSDOF 5
ENDMDL
MODEL 3
REMARK VINA RESULT:      -8.7      1.582      2.361
REMARK  Name = 
REMARK  8 active torsions:
REMARK  status: ('A' for Active; 'I' for Inactive)
REMARK    1  A    between atoms: C_1  and  C_2
REMARK    2  A    between atoms: C_2  and  C_3
REMARK    3  A    between atoms: C_2  and  C_4
REMARK    4  A    between atoms: C_8  and  N_9
REMARK    5  A    between atoms: C_11  and  O_12
REMARK    6  A    between atoms: C_13  and  C_14
REMARK    7  A    between atoms: N_16  and  C_17
REMARK    8  A    between atoms: N_25  and  C_26
REMARK                            x       y       z     vdW  Elec       q    Type
REMARK                         _______ _______ _______ _____ _____    ______ ____
ROOT
ATOM      1  N   UNL     1       4.260   4.846  17.225  0.00  0.00    +0.000 N 
ATOM      2  C   UNL     1       3.314   3.869  17.414  0.00  0.00    +0.000 A 
ATOM      3  C   UNL     1       2.427   4.373  18.308  0.00  0.00    +0.000 A 
ATOM      4  C   UNL     1       2.877   5.679  18.655  0.00  0.00    +0.000 A 
ATOM      5  N   UNL     1       4.056   5.940  18.045  0.00  0.00    +0.000 NA
ENDROOT
BRANCH   1  10
ATOM      6  C   UNL     1       6.120   4.015  14.077  0.00  0.00    +0.000 A 
ATOM      7  C   UNL     1       7.273   4.785  14.266  0.00  0.00    +0.000 A 
ATOM      8  C   UNL     1       7.443   5.544  15.429  0.00  0.00    +0.000 A 
ATOM      9  C   UNL     1       6.454   5.567  16.416  0.00  0.00    +0.000 A 
ATOM     10  C   UNL     1       5.304   4.793  16.257  0.00  0.00    +0.000 A 
ATOM     11  C   UNL     1       5.160   3.998  15.101  0.00  0.00    +0.000 A 
BRANCH   6  13
ATOM     12  C   UNL     1       4.546   3.659  12.118  0.00  0.00    +0.000 C 
ATOM     13  C   UNL     1       5.883   3.284  12.764  0.00  0.00    +0.000 C 
ATOM     14  C   UNL     1       7.038   3.529  11.782  0.00  0.00    +0.000 C 
ENDBRANCH   6  13
ENDBRANCH   1  10
BRANCH   4  15
ATOM     15  C   UNL     1       2.099   6.585  19.520  0.00  0.00    +0.000 C 
ATOM     16  O   UNL     1       1.629   6.106  20.553  0.00  0.00    +0.000 OA
ATOM     17  N   UNL     1       1.869   7.931  19.143  0.00  0.00    +0.000 N 
ATOM     18  H   UNL     1       1.989   8.165  18.168  0.00  0.00    +0.000 HD
BRANCH  17  19
ATOM     19  C   UNL     1       1.223   8.839  20.060  0.00  0.00    +0.000 A 
ATOM     20  C   UNL     1       1.593   8.763  21.415  0.00  0.00    +0.000 A 
ATOM     21  C   UNL     1       0.807   9.287  22.419  0.00  0.00    +0.000 A 
ATOM     22  C   UNL     1      -0.262  10.071  22.063  0.00  0.00    +0.000 A 
ATOM     23  C   UNL     1      -1.192  10.576  23.081  0.00  0.00    +0.000 A 
ATOM     24  C   UNL     1      -1.119  11.912  23.062  0.00  0.00    +0.000 A 
ATOM     25  C   UNL     1      -1.634  12.427  21.750  0.00  0.00    +0.000 A 
ATOM     26  O   UNL     1      -2.210  13.511  21.726  0.00  0.00    +0.000 OA
ATOM     27  N   UNL     1      -1.327  11.639  20.609  0.00  0.00    +0.000 N 
ATOM     28  C   UNL     1      -1.858  12.140  19.365  0.00  0.00    +0.000 C 
ATOM     29  C   UNL     1      -0.461  10.484  20.729  0.00  0.00    +0.000 A 
ATOM     30  C   UNL     1       0.244   9.789  19.707  0.00  0.00    +0.000 A 
ENDBRANCH  17  19
ENDBRANCH   4  15
BRANCH   3  31
ATOM     31  O   UNL     1       1.336   3.706  18.718  0.00  0.00    +0.000 OA
ATOM     32  H   UNL     1       0.580   4.305  18.842  0.00  0.00    +0.000 HD
ENDBRANCH   3  31
TORSDOF 5
ENDMDL
MODEL 4
REMARK VINA RESULT:      -8.6      1.579      2.316
REMARK  Name = 
REMARK  8 active torsions:
REMARK  status: ('A' for Active; 'I' for Inactive)
REMARK    1  A    between atoms: C_1  and  C_2
REMARK    2  A    between atoms: C_2  and  C_3
REMARK    3  A    between atoms: C_2  and  C_4
REMARK    4  A    between atoms: C_8  and  N_9
REMARK    5  A    between atoms: C_11  and  O_12
REMARK    6  A    between atoms: C_13  and  C_14
REMARK    7  A    between atoms: N_16  and  C_17
REMARK    8  A    between atoms: N_25  and  C_26
REMARK                            x       y       z     vdW  Elec       q    Type
REMARK                         _______ _______ _______ _____ _____    ______ ____
ROOT
ATOM      1  N   UNL     1       4.435   5.297  16.718  0.00  0.00    +0.000 N 
ATOM      2  C   UNL     1       3.492   4.442  17.236  0.00  0.00    +0.000 A 
ATOM      3  C   UNL     1       2.732   5.187  18.077  0.00  0.00    +0.000 A 
ATOM      4  C   UNL     1       3.256   6.512  18.054  0.00  0.00    +0.000 A 
ATOM      5  N   UNL     1       4.360   6.559  17.274  0.00  0.00    +0.000 NA
ENDROOT
BRANCH   1  10
ATOM      6  C   UNL     1       5.824   3.792  13.577  0.00  0.00    +0.000 A 
ATOM      7  C   UNL     1       7.081   4.406  13.550  0.00  0.00    +0.000 A 
ATOM      8  C   UNL     1       7.472   5.281  14.569  0.00  0.00    +0.000 A 
ATOM      9  C   UNL     1       6.606   5.578  15.624  0.00  0.00    +0.000 A 
ATOM     10  C   UNL     1       5.355   4.964  15.681  0.00  0.00    +0.000 A 
ATOM     11  C   UNL     1       4.985   4.051  14.672  0.00  0.00    +0.000 A 
BRANCH   6  13
ATOM     12  C   UNL     1       4.315   3.646  11.542  0.00  0.00    +0.000 C 
ATOM     13  C   UNL     1       5.355   2.934  12.411  0.00  0.00    +0.000 C 
ATOM     14  C   UNL     1       6.543   2.475  11.554  0.00  0.00    +0.000 C 
ENDBRANCH   6  13
ENDBRANCH   1  10
BRANCH   4  15
ATOM     15  C   UNL     1       2.612   7.634  18.760  0.00  0.00    +0.000 C 
ATOM     16  O   UNL     1       2.562   8.714  18.168  0.00  0.00    +0.000 OA
ATOM     17  N   UNL     1       2.120   7.477  20.079  0.00  0.00    +0.000 N 
ATOM     18  H   UNL     1       2.475   6.697  20.614  0.00  0.00    +0.000 HD
BRANCH  17  19
ATOM     19  C   UNL     1       1.373   8.542  20.705  0.00  0.00    +0.000 A 
ATOM     20  C   UNL     1       1.565   8.744  22.083  0.00  0.00    +0.000 A 
ATOM     21  C   UNL     1       0.665   9.448  22.852  0.00  0.00    +0.000 A 
ATOM     22  C   UNL     1      -0.340  10.130  22.213  0.00  0.00    +0.000 A 
ATOM     23  C   UNL     1      -1.386  10.816  22.981  0.00  0.00    +0.000 A 
ATOM     24  C   UNL     1      -1.296  12.123  22.704  0.00  0.00    +0.000 A 
ATOM     25  C   UNL     1      -1.631  12.357  21.260  0.00  0.00    +0.000 A 
ATOM     26  O   UNL     1      -2.186  13.406  20.946  0.00  0.00    +0.000 OA
ATOM     27  N   UNL     1      -1.190  11.360  20.350  0.00  0.00    +0.000 N 
ATOM     28  C   UNL     1      -1.551  11.594  18.973  0.00  0.00    +0.000 C 
ATOM     29  C   UNL     1      -0.361  10.265  20.808  0.00  0.00    +0.000 A 
ATOM     30  C   UNL     1       0.460   9.389  20.046  0.00  0.00    +0.000 A 
ENDBRANCH  17  19
ENDBRANCH   4  15
BRANCH   3  31
ATOM     31  O   UNL     1       1.681   4.693  18.750  0.00  0.00    +0.000 OA
ATOM     32  H   UNL     1       1.964   4.101  19.467  0.00  0.00    +0.000 HD
ENDBRANCH   3  31
TORSDOF 5
ENDMDL
MODEL 5
REMARK VINA RESULT:      -8.6      2.994     11.101
REMARK  Name = 
REMARK  8 active torsions:
REMARK  status: ('A' for Active; 'I' for Inactive)
REMARK    1  A    between atoms: C_1  and  C_2
REMARK    2  A    between atoms: C_2  and  C_3
REMARK    3  A    between atoms: C_2  and  C_4
REMARK    4  A    between atoms: C_8  and  N_9
REMARK    5  A    between atoms: C_11  and  O_12
REMARK    6  A    between atoms: C_13  and  C_14
REMARK    7  A    between atoms: N_16  and  C_17
REMARK    8  A    between atoms: N_25  and  C_26
REMARK                            x       y       z     vdW  Elec       q    Type
REMARK                         _______ _______ _______ _____ _____    ______ ____
ROOT
ATOM      1  N   UNL     1      -0.604  11.671  19.925  0.00  0.00    +0.000 N 
ATOM      2  C   UNL     1       0.321  12.555  19.425  0.00  0.00    +0.000 A 
ATOM      3  C   UNL     1       1.258  11.802  18.795  0.00  0.00    +0.000 A 
ATOM      4  C   UNL     1       0.869  10.439  18.943  0.00  0.00    +0.000 A 
ATOM      5  N   UNL     1      -0.240  10.355  19.712  0.00  0.00    +0.000 NA
ENDROOT
BRANCH   1  10
ATOM      6  C   UNL     1      -3.086  12.622  22.570  0.00  0.00    +0.000 A 
ATOM      7  C   UNL     1      -4.196  12.909  21.768  0.00  0.00    +0.000 A 
ATOM      8  C   UNL     1      -4.131  12.763  20.378  0.00  0.00    +0.000 A 
ATOM      9  C   UNL     1      -2.949  12.349  19.759  0.00  0.00    +0.000 A 
ATOM     10  C   UNL     1      -1.835  12.040  20.540  0.00  0.00    +0.000 A 
ATOM     11  C   UNL     1      -1.922  12.149  21.944  0.00  0.00    +0.000 A 
BRANCH   6  13
ATOM     12  C   UNL     1      -2.900  14.370  24.400  0.00  0.00    +0.000 C 
ATOM     13  C   UNL     1      -3.120  12.892  24.066  0.00  0.00    +0.000 C 
ATOM     14  C   UNL     1      -4.435  12.395  24.685  0.00  0.00    +0.000 C 
ENDBRANCH   6  13
ENDBRANCH   1  10
BRANCH   4  15
ATOM     15  C   UNL     1       1.587   9.332  18.285  0.00  0.00    +0.000 C 
ATOM     16  O   UNL     1       1.925   9.502  17.112  0.00  0.00    +0.000 OA
ATOM     17  N   UNL     1       1.828   8.114  18.967  0.00  0.00    +0.000 N 
ATOM     18  H   UNL     1       1.258   7.918  19.778  0.00  0.00    +0.000 HD
BRANCH  17  19
ATOM     19  C   UNL     1       2.648   7.094  18.359  0.00  0.00    +0.000 A 
ATOM     20  C   UNL     1       2.014   5.900  17.972  0.00  0.00    +0.000 A 
ATOM     21  C   UNL     1       2.719   4.738  17.741  0.00  0.00    +0.000 A 
ATOM     22  C   UNL     1       4.089   4.809  17.700  0.00  0.00    +0.000 A 
ATOM     23  C   UNL     1       4.897   3.592  17.555  0.00  0.00    +0.000 A 
ATOM     24  C   UNL     1       5.570   3.692  16.402  0.00  0.00    +0.000 A 
ATOM     25  C   UNL     1       6.551   4.825  16.487  0.00  0.00    +0.000 A 
ATOM     26  O   UNL     1       7.614   4.733  15.878  0.00  0.00    +0.000 OA
ATOM     27  N   UNL     1       6.120   5.968  17.211  0.00  0.00    +0.000 N 
ATOM     28  C   UNL     1       7.092   7.029  17.303  0.00  0.00    +0.000 C 
ATOM     29  C   UNL     1       4.764   6.048  17.713  0.00  0.00    +0.000 A 
ATOM     30  C   UNL     1       4.034   7.195  18.132  0.00  0.00    +0.000 A 
ENDBRANCH  17  19
ENDBRANCH   4  15
BRANCH   3  31
ATOM     31  O   UNL     1       2.313  12.327  18.152  0.00  0.00    +0.000 OA
ATOM     32  H   UNL     1       2.783  12.970  18.708  0.00  0.00    +0.000 HD
ENDBRANCH   3  31
TORSDOF 5
ENDMDL
MODEL 6
REMARK VINA RESULT:      -8.6      4.291      6.227
REMARK  Name = 
REMARK  8 active torsions:
REMARK  status: ('A' for Active; 'I' for Inactive)
REMARK    1  A    between atoms: C_1  and  C_2
REMARK    2  A    between atoms: C_2  and  C_3
REMARK    3  A    between atoms: C_2  and  C_4
REMARK    4  A    between atoms: C_8  and  N_9
REMARK    5  A    between atoms: C_11  and  O_12
REMARK    6  A    between atoms: C_13  and  C_14
REMARK    7  A    between atoms: N_16  and  C_17
REMARK    8  A    between atoms: N_25  and  C_26
REMARK                            x       y       z     vdW  Elec       q    Type
REMARK                         _______ _______ _______ _____ _____    ______ ____
ROOT
ATOM      1  N   UNL     1       2.385   7.422  18.958  0.00  0.00    +0.000 N 
ATOM      2  C   UNL     1       2.640   8.261  17.900  0.00  0.00    +0.000 A 
ATOM      3  C   UNL     1       1.952   9.403  18.152  0.00  0.00    +0.000 A 
ATOM      4  C   UNL     1       1.270   9.217  19.390  0.00  0.00    +0.000 A 
ATOM      5  N   UNL     1       1.475   7.961  19.847  0.00  0.00    +0.000 NA
ENDROOT
BRANCH   1  10
ATOM      6  C   UNL     1       2.848   3.789  19.762  0.00  0.00    +0.000 A 
ATOM      7  C   UNL     1       4.207   3.646  19.462  0.00  0.00    +0.000 A 
ATOM      8  C   UNL     1       4.963   4.740  19.027  0.00  0.00    +0.000 A 
ATOM      9  C   UNL     1       4.371   5.995  18.863  0.00  0.00    +0.000 A 
ATOM     10  C   UNL     1       3.021   6.165  19.173  0.00  0.00    +0.000 A 
ATOM     11  C   UNL     1       2.277   5.066  19.650  0.00  0.00    +0.000 A 
BRANCH   6  13
ATOM     12  C   UNL     1       1.443   2.653  21.544  0.00  0.00    +0.000 C 
ATOM     13  C   UNL     1       2.002   2.577  20.120  0.00  0.00    +0.000 C 
ATOM     14  C   UNL     1       0.862   2.383  19.109  0.00  0.00    +0.000 C 
ENDBRANCH   6  13
ENDBRANCH   1  10
BRANCH   4  15
ATOM     15  C   UNL     1       0.509  10.295  20.048  0.00  0.00    +0.000 C 
ATOM     16  O   UNL     1      -0.198  11.001  19.326  0.00  0.00    +0.000 OA
ATOM     17  N   UNL     1       0.632  10.528  21.439  0.00  0.00    +0.000 N 
ATOM     18  H   UNL     1       1.447  10.149  21.901  0.00  0.00    +0.000 HD
BRANCH  17  19
ATOM     19  C   UNL     1      -0.219  11.495  22.090  0.00  0.00    +0.000 A 
ATOM     20  C   UNL     1      -1.225  11.004  22.940  0.00  0.00    +0.000 A 
ATOM     21  C   UNL     1      -2.310  11.770  23.309  0.00  0.00    +0.000 A 
ATOM     22  C   UNL     1      -2.299  13.105  22.992  0.00  0.00    +0.000 A 
ATOM     23  C   UNL     1      -3.466  13.951  23.271  0.00  0.00    +0.000 A 
ATOM     24  C   UNL     1      -3.083  14.887  24.147  0.00  0.00    +0.000 A 
ATOM     25  C   UNL     1      -2.068  15.791  23.509  0.00  0.00    +0.000 A 
ATOM     26  O   UNL     1      -2.040  16.973  23.839  0.00  0.00    +0.000 OA
ATOM     27  N   UNL     1      -1.151  15.168  22.621  0.00  0.00    +0.000 N 
ATOM     28  C   UNL     1      -0.207  16.063  21.998  0.00  0.00    +0.000 C 
ATOM     29  C   UNL     1      -1.147  13.728  22.466  0.00  0.00    +0.000 A 
ATOM     30  C   UNL     1      -0.127  12.892  21.932  0.00  0.00    +0.000 A 
ENDBRANCH  17  19
ENDBRANCH   4  15
BRANCH   3  31
ATOM     31  O   UNL     1       1.983  10.474  17.344  0.00  0.00    +0.000 OA
ATOM     32  H   UNL     1       1.087  10.783  17.129  0.00  0.00    +0.000 HD
ENDBRANCH   3  31
TORSDOF 5
ENDMDL
MODEL 7
REMARK VINA RESULT:      -8.6      3.145      6.098
REMARK  Name = 
REMARK  8 active torsions:
REMARK  status: ('A' for Active; 'I' for Inactive)
REMARK    1  A    between atoms: C_1  and  C_2
REMARK    2  A    between atoms: C_2  and  C_3
REMARK    3  A    between atoms: C_2  and  C_4
REMARK    4  A    between atoms: C_8  and  N_9
REMARK    5  A    between atoms: C_11  and  O_12
REMARK    6  A    between atoms: C_13  and  C_14
REMARK    7  A    between atoms: N_16  and  C_17
REMARK    8  A    between atoms: N_25  and  C_26
REMARK                            x       y       z     vdW  Elec       q    Type
REMARK                         _______ _______ _______ _____ _____    ______ ____
ROOT
ATOM      1  N   UNL     1       1.978   8.249  18.724  0.00  0.00    +0.000 N 
ATOM      2  C   UNL     1       1.737   9.314  17.890  0.00  0.00    +0.000 A 
ATOM      3  C   UNL     1       1.128  10.257  18.651  0.00  0.00    +0.000 A 
ATOM      4  C   UNL     1       1.004   9.720  19.965  0.00  0.00    +0.000 A 
ATOM      5  N   UNL     1       1.458   8.446  19.989  0.00  0.00    +0.000 NA
ENDROOT
BRANCH   1  10
ATOM      6  C   UNL     1       4.616   6.092  17.160  0.00  0.00    +0.000 A 
ATOM      7  C   UNL     1       4.323   4.868  17.772  0.00  0.00    +0.000 A 
ATOM      8  C   UNL     1       3.252   4.754  18.666  0.00  0.00    +0.000 A 
ATOM      9  C   UNL     1       2.467   5.866  18.983  0.00  0.00    +0.000 A 
ATOM     10  C   UNL     1       2.731   7.092  18.372  0.00  0.00    +0.000 A 
ATOM     11  C   UNL     1       3.785   7.188  17.440  0.00  0.00    +0.000 A 
BRANCH   6  13
ATOM     12  C   UNL     1       7.147   6.269  17.093  0.00  0.00    +0.000 C 
ATOM     13  C   UNL     1       5.849   6.243  16.282  0.00  0.00    +0.000 C 
ATOM     14  C   UNL     1       5.906   5.136  15.219  0.00  0.00    +0.000 C 
ENDBRANCH   6  13
ENDBRANCH   1  10
BRANCH   4  15
ATOM     15  C   UNL     1       0.493  10.509  21.101  0.00  0.00    +0.000 C 
ATOM     16  O   UNL     1       1.093  10.401  22.172  0.00  0.00    +0.000 OA
ATOM     17  N   UNL     1      -0.667  11.311  20.966  0.00  0.00    +0.000 N 
ATOM     18  H   UNL     1      -1.283  11.106  20.192  0.00  0.00    +0.000 HD
BRANCH  17  19
ATOM     19  C   UNL     1      -1.076  12.179  22.044  0.00  0.00    +0.000 A 
ATOM     20  C   UNL     1      -2.067  11.702  22.919  0.00  0.00    +0.000 A 
ATOM     21  C   UNL     1      -2.797  12.545  23.729  0.00  0.00    +0.000 A 
ATOM     22  C   UNL     1      -2.404  13.857  23.820  0.00  0.00    +0.000 A 
ATOM     23  C   UNL     1      -3.197  14.825  24.589  0.00  0.00    +0.000 A 
ATOM     24  C   UNL     1      -2.427  15.269  25.589  0.00  0.00    +0.000 A 
ATOM     25  C   UNL     1      -1.269  16.044  25.030  0.00  0.00    +0.000 A 
ATOM     26  O   UNL     1      -0.826  16.990  25.674  0.00  0.00    +0.000 OA
ATOM     27  N   UNL     1      -0.720  15.551  23.816  0.00  0.00    +0.000 N 
ATOM     28  C   UNL     1       0.371  16.331  23.285  0.00  0.00    +0.000 C 
ATOM     29  C   UNL     1      -1.192  14.304  23.252  0.00  0.00    +0.000 A 
ATOM     30  C   UNL     1      -0.567  13.471  22.283  0.00  0.00    +0.000 A 
ENDBRANCH  17  19
ENDBRANCH   4  15
BRANCH   3  31
ATOM     31  O   UNL     1       0.765  11.461  18.180  0.00  0.00    +0.000 OA
ATOM     32  H   UNL     1       0.648  12.103  18.900  0.00  0.00    +0.000 HD
ENDBRANCH   3  31
TORSDOF 5
ENDMDL
MODEL 8
REMARK VINA RESULT:      -8.6      3.020     11.051
REMARK  Name = 
REMARK  8 active torsions:
REMARK  status: ('A' for Active; 'I' for Inactive)
REMARK    1  A    between atoms: C_1  and  C_2
REMARK    2  A    between atoms: C_2  and  C_3
REMARK    3  A    between atoms: C_2  and  C_4
REMARK    4  A    between atoms: C_8  and  N_9
REMARK    5  A    between atoms: C_11  and  O_12
REMARK    6  A    between atoms: C_13  and  C_14
REMARK    7  A    between atoms: N_16  and  C_17
REMARK    8  A    between atoms: N_25  and  C_26
REMARK                            x       y       z     vdW  Elec       q    Type
REMARK                         _______ _______ _______ _____ _____    ______ ____
ROOT
ATOM      1  N   UNL     1      -0.881  11.614  20.206  0.00  0.00    +0.000 N 
ATOM      2  C   UNL     1      -0.124  12.236  19.242  0.00  0.00    +0.000 A 
ATOM      3  C   UNL     1       0.850  11.355  18.903  0.00  0.00    +0.000 A 
ATOM      4  C   UNL     1       0.658  10.190  19.701  0.00  0.00    +0.000 A 
ATOM      5  N   UNL     1      -0.365  10.383  20.565  0.00  0.00    +0.000 NA
ENDROOT
BRANCH   1  10
ATOM      6  C   UNL     1      -3.386  12.884  22.690  0.00  0.00    +0.000 A 
ATOM      7  C   UNL     1      -4.414  13.269  21.822  0.00  0.00    +0.000 A 
ATOM      8  C   UNL     1      -4.290  13.085  20.441  0.00  0.00    +0.000 A 
ATOM      9  C   UNL     1      -3.127  12.534  19.896  0.00  0.00    +0.000 A 
ATOM     10  C   UNL     1      -2.096  12.126  20.744  0.00  0.00    +0.000 A 
ATOM     11  C   UNL     1      -2.248  12.276  22.138  0.00  0.00    +0.000 A 
BRANCH   6  13
ATOM     12  C   UNL     1      -3.675  14.683  24.457  0.00  0.00    +0.000 C 
ATOM     13  C   UNL     1      -3.472  13.191  24.177  0.00  0.00    +0.000 C 
ATOM     14  C   UNL     1      -4.583  12.367  24.846  0.00  0.00    +0.000 C 
ENDBRANCH   6  13
ENDBRANCH   1  10
BRANCH   4  15
ATOM     15  C   UNL     1       1.461   8.966  19.527  0.00  0.00    +0.000 C 
ATOM     16  O   UNL     1       1.658   8.277  20.531  0.00  0.00    +0.000 OA
ATOM     17  N   UNL     1       2.017   8.633  18.267  0.00  0.00    +0.000 N 
ATOM     18  H   UNL     1       2.099   9.376  17.588  0.00  0.00    +0.000 HD
BRANCH  17  19
ATOM     19  C   UNL     1       2.684   7.367  18.081  0.00  0.00    +0.000 A 
ATOM     20  C   UNL     1       4.028   7.398  17.667  0.00  0.00    +0.000 A 
ATOM     21  C   UNL     1       4.645   6.303  17.103  0.00  0.00    +0.000 A 
ATOM     22  C   UNL     1       3.985   5.101  17.130  0.00  0.00    +0.000 A 
ATOM     23  C   UNL     1       4.547   3.921  16.460  0.00  0.00    +0.000 A 
ATOM     24  C   UNL     1       4.785   3.000  17.402  0.00  0.00    +0.000 A 
ATOM     25  C   UNL     1       3.486   2.546  18.003  0.00  0.00    +0.000 A 
ATOM     26  O   UNL     1       3.387   1.384  18.386  0.00  0.00    +0.000 OA
ATOM     27  N   UNL     1       2.490   3.547  18.160  0.00  0.00    +0.000 N 
ATOM     28  C   UNL     1       1.243   3.078  18.712  0.00  0.00    +0.000 C 
ATOM     29  C   UNL     1       2.791   4.932  17.865  0.00  0.00    +0.000 A 
ATOM     30  C   UNL     1       2.094   6.103  18.274  0.00  0.00    +0.000 A 
ENDBRANCH  17  19
ENDBRANCH   4  15
BRANCH   3  31
ATOM     31  O   UNL     1       1.771  11.604  17.959  0.00  0.00    +0.000 OA
ATOM     32  H   UNL     1       1.380  11.590  17.069  0.00  0.00    +0.000 HD
ENDBRANCH   3  31
TORSDOF 5
ENDMDL
MODEL 9
REMARK VINA RESULT:      -8.5      2.862     10.902
REMARK  Name = 
REMARK  8 active torsions:
REMARK  status: ('A' for Active; 'I' for Inactive)
REMARK    1  A    between atoms: C_1  and  C_2
REMARK    2  A    between atoms: C_2  and  C_3
REMARK    3  A    between atoms: C_2  and  C_4
REMARK    4  A    between atoms: C_8  and  N_9
REMARK    5  A    between atoms: C_11  and  O_12
REMARK    6  A    between atoms: C_13  and  C_14
REMARK    7  A    between atoms: N_16  and  C_17
REMARK    8  A    between atoms: N_25  and  C_26
REMARK                            x       y       z     vdW  Elec       q    Type
REMARK                         _______ _______ _______ _____ _____    ______ ____
ROOT
ATOM      1  N   UNL     1      -0.350  11.675  20.377  0.00  0.00    +0.000 N 
ATOM      2  C   UNL     1       0.406  12.561  19.647  0.00  0.00    +0.000 A 
ATOM      3  C   UNL     1       1.239  11.807  18.888  0.00  0.00    +0.000 A 
ATOM      4  C   UNL     1       0.964  10.442  19.192  0.00  0.00    +0.000 A 
ATOM      5  N   UNL     1       0.037  10.364  20.174  0.00  0.00    +0.000 NA
ENDROOT
BRANCH   1  10
ATOM      6  C   UNL     1      -3.794  12.739  21.409  0.00  0.00    +0.000 A 
ATOM      7  C   UNL     1      -3.684  12.604  22.797  0.00  0.00    +0.000 A 
ATOM      8  C   UNL     1      -2.481  12.194  23.382  0.00  0.00    +0.000 A 
ATOM      9  C   UNL     1      -1.370  11.890  22.591  0.00  0.00    +0.000 A 
ATOM     10  C   UNL     1      -1.452  12.034  21.205  0.00  0.00    +0.000 A 
ATOM     11  C   UNL     1      -2.656  12.488  20.627  0.00  0.00    +0.000 A 
BRANCH   6  13
ATOM     12  C   UNL     1      -5.557  14.521  21.009  0.00  0.00    +0.000 C 
ATOM     13  C   UNL     1      -5.133  13.069  20.766  0.00  0.00    +0.000 C 
ATOM     14  C   UNL     1      -5.112  12.764  19.261  0.00  0.00    +0.000 C 
ENDBRANCH   6  13
ENDBRANCH   1  10
BRANCH   4  15
ATOM     15  C   UNL     1       1.597   9.323  18.470  0.00  0.00    +0.000 C 
ATOM     16  O   UNL     1       1.703   9.435  17.247  0.00  0.00    +0.000 OA
ATOM     17  N   UNL     1       2.017   8.159  19.158  0.00  0.00    +0.000 N 
ATOM     18  H   UNL     1       1.617   7.992  20.070  0.00  0.00    +0.000 HD
BRANCH  17  19
ATOM     19  C   UNL     1       2.755   7.133  18.461  0.00  0.00    +0.000 A 
ATOM     20  C   UNL     1       2.046   5.989  18.052  0.00  0.00    +0.000 A 
ATOM     21  C   UNL     1       2.682   4.810  17.730  0.00  0.00    +0.000 A 
ATOM     22  C   UNL     1       4.050   4.820  17.621  0.00  0.00    +0.000 A 
ATOM     23  C   UNL     1       4.791   3.576  17.377  0.00  0.00    +0.000 A 
ATOM     24  C   UNL     1       5.410   3.702  16.197  0.00  0.00    +0.000 A 
ATOM     25  C   UNL     1       6.447   4.783  16.284  0.00  0.00    +0.000 A 
ATOM     26  O   UNL     1       7.472   4.673  15.617  0.00  0.00    +0.000 OA
ATOM     27  N   UNL     1       6.108   5.908  17.082  0.00  0.00    +0.000 N 
ATOM     28  C   UNL     1       7.133   6.918  17.172  0.00  0.00    +0.000 C 
ATOM     29  C   UNL     1       4.784   6.025  17.656  0.00  0.00    +0.000 A 
ATOM     30  C   UNL     1       4.132   7.182  18.166  0.00  0.00    +0.000 A 
ENDBRANCH  17  19
ENDBRANCH   4  15
BRANCH   3  31
ATOM     31  O   UNL     1       2.114  12.330  18.014  0.00  0.00    +0.000 OA
ATOM     32  H   UNL     1       1.933  12.029  17.107  0.00  0.00    +0.000 HD
ENDBRANCH   3  31
TORSDOF 5
ENDMDL
