MODEL 1
REMARK VINA RESULT:      -7.4      0.000      0.000
REMARK  Name = 
REMARK  8 active torsions:
REMARK  status: ('A' for Active; 'I' for Inactive)
REMARK    1  A    between atoms: N_1  and  C_2
REMARK    2  A    between atoms: C_2  and  C_3
REMARK    3  A    between atoms: C_3  and  C_4
REMARK    4  A    between atoms: C_4  and  C_5
REMARK    5  A    between atoms: C_9  and  N_10
REMARK    6  A    between atoms: C_15  and  O_16
REMARK    7  A    between atoms: O_16  and  C_17
REMARK    8  A    between atoms: C_20  and  C_21
REMARK                            x       y       z     vdW  Elec       q    Type
REMARK                         _______ _______ _______ _____ _____    ______ ____
ROOT
ATOM      1  N   UNL     1       0.756   8.285  21.188  0.00  0.00    +0.000 N 
ATOM      2  C   UNL     1      -0.472   8.612  20.426  0.00  0.00    +0.000 C 
ATOM      3  C   UNL     1      -0.294  10.072  20.133  0.00  0.00    +0.000 A 
ATOM      4  C   UNL     1       0.543  10.594  21.124  0.00  0.00    +0.000 A 
ATOM      5  C   UNL     1       1.043  11.880  21.098  0.00  0.00    +0.000 A 
ATOM      6  C   UNL     1       0.699  12.666  20.004  0.00  0.00    +0.000 A 
ATOM      7  C   UNL     1      -0.124  12.144  18.983  0.00  0.00    +0.000 A 
ATOM      8  C   UNL     1      -0.644  10.834  19.035  0.00  0.00    +0.000 A 
ATOM      9  C   UNL     1       1.106   9.461  21.896  0.00  0.00    +0.000 C 
ATOM     10  O   UNL     1       1.880   9.598  22.825  0.00  0.00    +0.000 OA
ENDROOT
BRANCH   1  15
ATOM     11  C   UNL     1       2.316   5.523  19.452  0.00  0.00    +0.000 A 
ATOM     12  C   UNL     1       2.394   6.107  18.170  0.00  0.00    +0.000 A 
ATOM     13  C   UNL     1       2.301   7.486  17.979  0.00  0.00    +0.000 A 
ATOM     14  C   UNL     1       2.017   8.316  19.058  0.00  0.00    +0.000 A 
ATOM     15  C   UNL     1       1.784   7.744  20.313  0.00  0.00    +0.000 A 
ATOM     16  C   UNL     1       2.137   6.408  20.529  0.00  0.00    +0.000 A 
BRANCH  11  17
ATOM     17  C   UNL     1       2.274   3.927  19.680  0.00  0.00    +0.000 C 
ATOM     18  C   UNL     1       2.423   3.403  21.147  0.00  0.00    +0.000 C 
ATOM     19  O   UNL     1       0.988   3.247  21.277  0.00  0.00    +0.000 OA
ATOM     20  C   UNL     1       0.846   3.316  19.840  0.00  0.00    +0.000 C 
BRANCH  17  21
ATOM     21  C   UNL     1       3.114   3.186  18.628  0.00  0.00    +0.000 C 
BRANCH  21  22
ATOM     22  C   UNL     1       4.417   2.603  19.177  0.00  0.00    +0.000 C 
BRANCH  22  23
ATOM     23  N   UNL     1       5.518   3.560  19.121  0.00  0.00    +0.000 NA
ATOM     24  H   UNL     1       6.357   3.078  18.797  0.00  0.00    +0.000 HD
ATOM     25  H   UNL     1       5.735   3.886  20.064  0.00  0.00    +0.000 HD
ENDBRANCH  22  23
ENDBRANCH  21  22
ENDBRANCH  17  21
ENDBRANCH  11  17
ENDBRANCH   1  15
BRANCH   8  26
ATOM     26  C   UNL     1      -1.449  10.311  17.869  0.00  0.00    +0.000 C 
ATOM     27  F   UNL     1      -0.793   9.387  17.120  0.00  0.00    +0.000 F 
ATOM     28  F   UNL     1      -2.599   9.707  18.275  0.00  0.00    +0.000 F 
ATOM     29  F   UNL     1      -1.824  11.301  17.014  0.00  0.00    +0.000 F 
ENDBRANCH   8  26
BRANCH   6  30
ATOM     30  O   UNL     1       1.191  13.919  19.758  0.00  0.00    +0.000 OA
BRANCH  30  31
ATOM     31  C   UNL     1       1.938  14.059  18.558  0.00  0.00    +0.000 C 
ATOM     32  F   UNL     1       3.061  13.307  18.712  0.00  0.00    +0.000 F 
ENDBRANCH  30  31
ENDBRANCH   6  30
TORSDOF 8
ENDMDL
MODEL 2
REMARK VINA RESULT:      -7.3      4.065      7.913
REMARK  Name = 
REMARK  8 active torsions:
REMARK  status: ('A' for Active; 'I' for Inactive)
REMARK    1  A    between atoms: N_1  and  C_2
REMARK    2  A    between atoms: C_2  and  C_3
REMARK    3  A    between atoms: C_3  and  C_4
REMARK    4  A    between atoms: C_4  and  C_5
REMARK    5  A    between atoms: C_9  and  N_10
REMARK    6  A    between atoms: C_15  and  O_16
REMARK    7  A    between atoms: O_16  and  C_17
REMARK    8  A    between atoms: C_20  and  C_21
REMARK                            x       y       z     vdW  Elec       q    Type
REMARK                         _______ _______ _______ _____ _____    ______ ____
ROOT
ATOM      1  N   UNL     1       2.142   7.012  17.939  0.00  0.00    +0.000 N 
ATOM      2  C   UNL     1       1.935   5.577  18.245  0.00  0.00    +0.000 C 
ATOM      3  C   UNL     1       3.339   5.072  18.402  0.00  0.00    +0.000 A 
ATOM      4  C   UNL     1       4.169   5.918  17.660  0.00  0.00    +0.000 A 
ATOM      5  C   UNL     1       5.546   5.847  17.684  0.00  0.00    +0.000 A 
ATOM      6  C   UNL     1       6.111   4.889  18.518  0.00  0.00    +0.000 A 
ATOM      7  C   UNL     1       5.287   4.045  19.293  0.00  0.00    +0.000 A 
ATOM      8  C   UNL     1       3.879   4.117  19.241  0.00  0.00    +0.000 A 
ATOM      9  C   UNL     1       3.370   7.094  17.237  0.00  0.00    +0.000 C 
ATOM     10  O   UNL     1       3.821   8.013  16.580  0.00  0.00    +0.000 OA
ENDROOT
BRANCH   1  15
ATOM     11  C   UNL     1       0.602   9.642  19.886  0.00  0.00    +0.000 A 
ATOM     12  C   UNL     1       0.419   8.925  21.087  0.00  0.00    +0.000 A 
ATOM     13  C   UNL     1       1.130   7.758  21.366  0.00  0.00    +0.000 A 
ATOM     14  C   UNL     1       1.967   7.210  20.401  0.00  0.00    +0.000 A 
ATOM     15  C   UNL     1       2.047   7.821  19.145  0.00  0.00    +0.000 A 
ATOM     16  C   UNL     1       1.540   9.113  18.981  0.00  0.00    +0.000 A 
BRANCH  11  17
ATOM     17  C   UNL     1      -0.311  10.909  19.480  0.00  0.00    +0.000 C 
ATOM     18  C   UNL     1      -0.883  11.788  20.641  0.00  0.00    +0.000 C 
ATOM     19  O   UNL     1       0.174  12.764  20.474  0.00  0.00    +0.000 OA
ATOM     20  C   UNL     1       0.474  12.222  19.167  0.00  0.00    +0.000 C 
BRANCH  17  21
ATOM     21  C   UNL     1      -1.313  10.547  18.373  0.00  0.00    +0.000 C 
BRANCH  21  22
ATOM     22  C   UNL     1      -1.776  11.745  17.542  0.00  0.00    +0.000 C 
BRANCH  22  23
ATOM     23  N   UNL     1      -3.227  11.789  17.395  0.00  0.00    +0.000 NA
ATOM     24  H   UNL     1      -3.456  12.255  16.516  0.00  0.00    +0.000 HD
ATOM     25  H   UNL     1      -3.627  12.375  18.129  0.00  0.00    +0.000 HD
ENDBRANCH  22  23
ENDBRANCH  21  22
ENDBRANCH  17  21
ENDBRANCH  11  17
ENDBRANCH   1  15
BRANCH   8  26
ATOM     26  C   UNL     1       3.060   3.242  20.159  0.00  0.00    +0.000 C 
ATOM     27  F   UNL     1       2.374   3.931  21.107  0.00  0.00    +0.000 F 
ATOM     28  F   UNL     1       2.125   2.525  19.477  0.00  0.00    +0.000 F 
ATOM     29  F   UNL     1       3.822   2.331  20.823  0.00  0.00    +0.000 F 
ENDBRANCH   8  26
BRANCH   6  30
ATOM     30  O   UNL     1       7.452   4.750  18.752  0.00  0.00    +0.000 OA
BRANCH  30  31
ATOM     31  C   UNL     1       8.042   5.762  19.555  0.00  0.00    +0.000 C 
ATOM     32  F   UNL     1       8.377   6.777  18.713  0.00  0.00    +0.000 F 
ENDBRANCH  30  31
ENDBRANCH   6  30
TORSDOF 8
ENDMDL
MODEL 3
REMARK VINA RESULT:      -7.3      1.453      1.737
REMARK  Name = 
REMARK  8 active torsions:
REMARK  status: ('A' for Active; 'I' for Inactive)
REMARK    1  A    between atoms: N_1  and  C_2
REMARK    2  A    between atoms: C_2  and  C_3
REMARK    3  A    between atoms: C_3  and  C_4
REMARK    4  A    between atoms: C_4  and  C_5
REMARK    5  A    between atoms: C_9  and  N_10
REMARK    6  A    between atoms: C_15  and  O_16
REMARK    7  A    between atoms: O_16  and  C_17
REMARK    8  A    between atoms: C_20  and  C_21
REMARK                            x       y       z     vdW  Elec       q    Type
REMARK                         _______ _______ _______ _____ _____    ______ ____
ROOT
ATOM      1  N   UNL     1       0.238   9.181  20.697  0.00  0.00    +0.000 N 
ATOM      2  C   UNL     1      -0.968   9.140  19.837  0.00  0.00    +0.000 C 
ATOM      3  C   UNL     1      -1.074  10.558  19.358  0.00  0.00    +0.000 A 
ATOM      4  C   UNL     1      -0.442  11.365  20.310  0.00  0.00    +0.000 A 
ATOM      5  C   UNL     1      -0.216  12.715  20.135  0.00  0.00    +0.000 A 
ATOM      6  C   UNL     1      -0.630  13.269  18.930  0.00  0.00    +0.000 A 
ATOM      7  C   UNL     1      -1.246  12.463  17.949  0.00  0.00    +0.000 A 
ATOM      8  C   UNL     1      -1.487  11.088  18.152  0.00  0.00    +0.000 A 
ATOM      9  C   UNL     1       0.282  10.481  21.256  0.00  0.00    +0.000 C 
ATOM     10  O   UNL     1       0.937  10.894  22.195  0.00  0.00    +0.000 OA
ENDROOT
BRANCH   1  15
ATOM     11  C   UNL     1       2.415   6.624  19.354  0.00  0.00    +0.000 A 
ATOM     12  C   UNL     1       2.501   7.106  18.031  0.00  0.00    +0.000 A 
ATOM     13  C   UNL     1       2.182   8.423  17.702  0.00  0.00    +0.000 A 
ATOM     14  C   UNL     1       1.659   9.271  18.671  0.00  0.00    +0.000 A 
ATOM     15  C   UNL     1       1.420   8.770  19.955  0.00  0.00    +0.000 A 
ATOM     16  C   UNL     1       1.985   7.546  20.325  0.00  0.00    +0.000 A 
BRANCH  11  17
ATOM     17  C   UNL     1       2.639   5.072  19.732  0.00  0.00    +0.000 C 
ATOM     18  C   UNL     1       2.108   4.584  21.122  0.00  0.00    +0.000 C 
ATOM     19  O   UNL     1       0.907   4.045  20.517  0.00  0.00    +0.000 OA
ATOM     20  C   UNL     1       1.535   4.096  19.215  0.00  0.00    +0.000 C 
BRANCH  17  21
ATOM     21  C   UNL     1       4.055   4.602  19.366  0.00  0.00    +0.000 C 
BRANCH  21  22
ATOM     22  C   UNL     1       4.132   3.131  18.956  0.00  0.00    +0.000 C 
BRANCH  22  23
ATOM     23  N   UNL     1       4.949   2.343  19.873  0.00  0.00    +0.000 NA
ATOM     24  H   UNL     1       4.427   2.197  20.738  0.00  0.00    +0.000 HD
ATOM     25  H   UNL     1       5.777   2.877  20.139  0.00  0.00    +0.000 HD
ENDBRANCH  22  23
ENDBRANCH  21  22
ENDBRANCH  17  21
ENDBRANCH  11  17
ENDBRANCH   1  15
BRANCH   8  26
ATOM     26  C   UNL     1      -2.074  10.266  17.029  0.00  0.00    +0.000 C 
ATOM     27  F   UNL     1      -3.244   9.655  17.348  0.00  0.00    +0.000 F 
ATOM     28  F   UNL     1      -2.343  11.025  15.931  0.00  0.00    +0.000 F 
ATOM     29  F   UNL     1      -1.230   9.284  16.610  0.00  0.00    +0.000 F 
ENDBRANCH   8  26
BRANCH   6  30
ATOM     30  O   UNL     1      -0.390  14.559  18.540  0.00  0.00    +0.000 OA
BRANCH  30  31
ATOM     31  C   UNL     1      -0.271  15.505  19.593  0.00  0.00    +0.000 C 
ATOM     32  F   UNL     1       0.310  16.611  19.055  0.00  0.00    +0.000 F 
ENDBRANCH  30  31
ENDBRANCH   6  30
TORSDOF 8
ENDMDL
MODEL 4
REMARK VINA RESULT:      -7.3      3.932      8.186
REMARK  Name = 
REMARK  8 active torsions:
REMARK  status: ('A' for Active; 'I' for Inactive)
REMARK    1  A    between atoms: N_1  and  C_2
REMARK    2  A    between atoms: C_2  and  C_3
REMARK    3  A    between atoms: C_3  and  C_4
REMARK    4  A    between atoms: C_4  and  C_5
REMARK    5  A    between atoms: C_9  and  N_10
REMARK    6  A    between atoms: C_15  and  O_16
REMARK    7  A    between atoms: O_16  and  C_17
REMARK    8  A    between atoms: C_20  and  C_21
REMARK                            x       y       z     vdW  Elec       q    Type
REMARK                         _______ _______ _______ _____ _____    ______ ____
ROOT
ATOM      1  N   UNL     1       2.597   6.481  17.761  0.00  0.00    +0.000 N 
ATOM      2  C   UNL     1       1.635   5.365  17.913  0.00  0.00    +0.000 C 
ATOM      3  C   UNL     1       2.472   4.300  18.558  0.00  0.00    +0.000 A 
ATOM      4  C   UNL     1       3.803   4.551  18.208  0.00  0.00    +0.000 A 
ATOM      5  C   UNL     1       4.873   3.858  18.737  0.00  0.00    +0.000 A 
ATOM      6  C   UNL     1       4.583   2.882  19.683  0.00  0.00    +0.000 A 
ATOM      7  C   UNL     1       3.246   2.635  20.065  0.00  0.00    +0.000 A 
ATOM      8  C   UNL     1       2.162   3.338  19.499  0.00  0.00    +0.000 A 
ATOM      9  C   UNL     1       3.867   5.886  17.567  0.00  0.00    +0.000 C 
ATOM     10  O   UNL     1       4.898   6.387  17.158  0.00  0.00    +0.000 OA
ENDROOT
BRANCH   1  15
ATOM     11  C   UNL     1       1.017   9.264  19.446  0.00  0.00    +0.000 A 
ATOM     12  C   UNL     1       0.868   8.673  20.718  0.00  0.00    +0.000 A 
ATOM     13  C   UNL     1       1.612   7.559  21.107  0.00  0.00    +0.000 A 
ATOM     14  C   UNL     1       2.450   6.933  20.191  0.00  0.00    +0.000 A 
ATOM     15  C   UNL     1       2.498   7.410  18.877  0.00  0.00    +0.000 A 
ATOM     16  C   UNL     1       1.956   8.666  18.588  0.00  0.00    +0.000 A 
BRANCH  11  17
ATOM     17  C   UNL     1       0.066  10.459  18.925  0.00  0.00    +0.000 C 
ATOM     18  C   UNL     1      -0.736  11.265  20.000  0.00  0.00    +0.000 C 
ATOM     19  O   UNL     1       0.248  12.328  19.991  0.00  0.00    +0.000 OA
ATOM     20  C   UNL     1       0.774  11.838  18.737  0.00  0.00    +0.000 C 
BRANCH  17  21
ATOM     21  C   UNL     1      -0.737  10.037  17.684  0.00  0.00    +0.000 C 
BRANCH  21  22
ATOM     22  C   UNL     1      -2.108  10.706  17.579  0.00  0.00    +0.000 C 
BRANCH  22  23
ATOM     23  N   UNL     1      -2.160  11.694  16.506  0.00  0.00    +0.000 NA
ATOM     24  H   UNL     1      -2.538  11.251  15.667  0.00  0.00    +0.000 HD
ATOM     25  H   UNL     1      -1.213  11.984  16.261  0.00  0.00    +0.000 HD
ENDBRANCH  22  23
ENDBRANCH  21  22
ENDBRANCH  17  21
ENDBRANCH  11  17
ENDBRANCH   1  15
BRANCH   8  26
ATOM     26  C   UNL     1       0.766   3.083  20.014  0.00  0.00    +0.000 C 
ATOM     27  F   UNL     1       0.727   2.339  21.150  0.00  0.00    +0.000 F 
ATOM     28  F   UNL     1       0.114   4.241  20.311  0.00  0.00    +0.000 F 
ATOM     29  F   UNL     1      -0.011   2.435  19.105  0.00  0.00    +0.000 F 
ENDBRANCH   8  26
BRANCH   6  30
ATOM     30  O   UNL     1       5.519   2.178  20.391  0.00  0.00    +0.000 OA
BRANCH  30  31
ATOM     31  C   UNL     1       5.003   1.222  21.306  0.00  0.00    +0.000 C 
ATOM     32  F   UNL     1       6.079   0.608  21.870  0.00  0.00    +0.000 F 
ENDBRANCH  30  31
ENDBRANCH   6  30
TORSDOF 8
ENDMDL
MODEL 5
REMARK VINA RESULT:      -7.2      1.340      1.831
REMARK  Name = 
REMARK  8 active torsions:
REMARK  status: ('A' for Active; 'I' for Inactive)
REMARK    1  A    between atoms: N_1  and  C_2
REMARK    2  A    between atoms: C_2  and  C_3
REMARK    3  A    between atoms: C_3  and  C_4
REMARK    4  A    between atoms: C_4  and  C_5
REMARK    5  A    between atoms: C_9  and  N_10
REMARK    6  A    between atoms: C_15  and  O_16
REMARK    7  A    between atoms: O_16  and  C_17
REMARK    8  A    between atoms: C_20  and  C_21
REMARK                            x       y       z     vdW  Elec       q    Type
REMARK                         _______ _______ _______ _____ _____    ______ ____
ROOT
ATOM      1  N   UNL     1       0.718   8.397  21.094  0.00  0.00    +0.000 N 
ATOM      2  C   UNL     1      -0.533   8.676  20.351  0.00  0.00    +0.000 C 
ATOM      3  C   UNL     1      -0.449  10.155  20.116  0.00  0.00    +0.000 A 
ATOM      4  C   UNL     1       0.360  10.689  21.123  0.00  0.00    +0.000 A 
ATOM      5  C   UNL     1       0.779  12.003  21.147  0.00  0.00    +0.000 A 
ATOM      6  C   UNL     1       0.379  12.809  20.087  0.00  0.00    +0.000 A 
ATOM      7  C   UNL     1      -0.417  12.278  19.050  0.00  0.00    +0.000 A 
ATOM      8  C   UNL     1      -0.854  10.936  19.051  0.00  0.00    +0.000 A 
ATOM      9  C   UNL     1       0.999   9.563  21.847  0.00  0.00    +0.000 C 
ATOM     10  O   UNL     1       1.769   9.712  22.777  0.00  0.00    +0.000 OA
ENDROOT
BRANCH   1  15
ATOM     11  C   UNL     1       2.294   5.866  19.047  0.00  0.00    +0.000 A 
ATOM     12  C   UNL     1       2.441   6.623  17.866  0.00  0.00    +0.000 A 
ATOM     13  C   UNL     1       2.386   8.016  17.869  0.00  0.00    +0.000 A 
ATOM     14  C   UNL     1       2.072   8.693  19.043  0.00  0.00    +0.000 A 
ATOM     15  C   UNL     1       1.772   7.956  20.193  0.00  0.00    +0.000 A 
ATOM     16  C   UNL     1       2.087   6.595  20.232  0.00  0.00    +0.000 A 
BRANCH  11  17
ATOM     17  C   UNL     1       2.208   4.255  19.045  0.00  0.00    +0.000 C 
ATOM     18  C   UNL     1       2.139   3.538  17.655  0.00  0.00    +0.000 C 
ATOM     19  O   UNL     1       3.558   3.251  17.689  0.00  0.00    +0.000 OA
ATOM     20  C   UNL     1       3.582   3.516  19.111  0.00  0.00    +0.000 C 
BRANCH  17  21
ATOM     21  C   UNL     1       1.215   3.743  20.100  0.00  0.00    +0.000 C 
BRANCH  21  22
ATOM     22  C   UNL     1       1.689   2.490  20.838  0.00  0.00    +0.000 C 
BRANCH  22  23
ATOM     23  N   UNL     1       1.530   2.608  22.285  0.00  0.00    +0.000 NA
ATOM     24  H   UNL     1       0.783   3.275  22.481  0.00  0.00    +0.000 HD
ATOM     25  H   UNL     1       2.375   3.014  22.689  0.00  0.00    +0.000 HD
ENDBRANCH  22  23
ENDBRANCH  21  22
ENDBRANCH  17  21
ENDBRANCH  11  17
ENDBRANCH   1  15
BRANCH   8  26
ATOM     26  C   UNL     1      -1.632  10.411  17.869  0.00  0.00    +0.000 C 
ATOM     27  F   UNL     1      -2.817   9.837  18.202  0.00  0.00    +0.000 F 
ATOM     28  F   UNL     1      -1.938  11.398  16.982  0.00  0.00    +0.000 F 
ATOM     29  F   UNL     1      -0.937   9.475  17.166  0.00  0.00    +0.000 F 
ENDBRANCH   8  26
BRANCH   6  30
ATOM     30  O   UNL     1       0.789  14.099  19.889  0.00  0.00    +0.000 OA
BRANCH  30  31
ATOM     31  C   UNL     1       1.777  14.281  18.884  0.00  0.00    +0.000 C 
ATOM     32  F   UNL     1       2.635  13.230  18.991  0.00  0.00    +0.000 F 
ENDBRANCH  30  31
ENDBRANCH   6  30
TORSDOF 8
ENDMDL
MODEL 6
REMARK VINA RESULT:      -7.2      4.191      8.096
REMARK  Name = 
REMARK  8 active torsions:
REMARK  status: ('A' for Active; 'I' for Inactive)
REMARK    1  A    between atoms: N_1  and  C_2
REMARK    2  A    between atoms: C_2  and  C_3
REMARK    3  A    between atoms: C_3  and  C_4
REMARK    4  A    between atoms: C_4  and  C_5
REMARK    5  A    between atoms: C_9  and  N_10
REMARK    6  A    between atoms: C_15  and  O_16
REMARK    7  A    between atoms: O_16  and  C_17
REMARK    8  A    between atoms: C_20  and  C_21
REMARK                            x       y       z     vdW  Elec       q    Type
REMARK                         _______ _______ _______ _____ _____    ______ ____
ROOT
ATOM      1  N   UNL     1       3.460   5.604  19.261  0.00  0.00    +0.000 N 
ATOM      2  C   UNL     1       4.873   6.028  19.397  0.00  0.00    +0.000 C 
ATOM      3  C   UNL     1       5.519   5.394  18.201  0.00  0.00    +0.000 A 
ATOM      4  C   UNL     1       4.744   4.283  17.851  0.00  0.00    +0.000 A 
ATOM      5  C   UNL     1       4.952   3.538  16.709  0.00  0.00    +0.000 A 
ATOM      6  C   UNL     1       5.980   3.951  15.869  0.00  0.00    +0.000 A 
ATOM      7  C   UNL     1       6.755   5.085  16.195  0.00  0.00    +0.000 A 
ATOM      8  C   UNL     1       6.541   5.824  17.377  0.00  0.00    +0.000 A 
ATOM      9  C   UNL     1       3.485   4.335  18.634  0.00  0.00    +0.000 C 
ATOM     10  O   UNL     1       2.601   3.503  18.542  0.00  0.00    +0.000 OA
ENDROOT
BRANCH   1  15
ATOM     11  C   UNL     1       1.554   8.678  19.294  0.00  0.00    +0.000 A 
ATOM     12  C   UNL     1       2.190   9.322  18.211  0.00  0.00    +0.000 A 
ATOM     13  C   UNL     1       2.937   8.617  17.268  0.00  0.00    +0.000 A 
ATOM     14  C   UNL     1       3.164   7.257  17.441  0.00  0.00    +0.000 A 
ATOM     15  C   UNL     1       2.672   6.627  18.589  0.00  0.00    +0.000 A 
ATOM     16  C   UNL     1       1.719   7.284  19.372  0.00  0.00    +0.000 A 
BRANCH  11  17
ATOM     17  C   UNL     1       0.810   9.489  20.474  0.00  0.00    +0.000 C 
ATOM     18  C   UNL     1       1.169  11.002  20.647  0.00  0.00    +0.000 C 
ATOM     19  O   UNL     1      -0.013  11.405  19.912  0.00  0.00    +0.000 OA
ATOM     20  C   UNL     1      -0.581  10.088  20.093  0.00  0.00    +0.000 C 
BRANCH  17  21
ATOM     21  C   UNL     1       0.760   8.670  21.773  0.00  0.00    +0.000 C 
BRANCH  21  22
ATOM     22  C   UNL     1      -0.427   9.012  22.674  0.00  0.00    +0.000 C 
BRANCH  22  23
ATOM     23  N   UNL     1      -0.026   9.772  23.853  0.00  0.00    +0.000 NA
ATOM     24  H   UNL     1      -0.307  10.746  23.729  0.00  0.00    +0.000 HD
ATOM     25  H   UNL     1       0.992   9.787  23.921  0.00  0.00    +0.000 HD
ENDBRANCH  22  23
ENDBRANCH  21  22
ENDBRANCH  17  21
ENDBRANCH  11  17
ENDBRANCH   1  15
BRANCH   8  26
ATOM     26  C   UNL     1       7.350   7.075  17.623  0.00  0.00    +0.000 C 
ATOM     27  F   UNL     1       8.190   7.395  16.605  0.00  0.00    +0.000 F 
ATOM     28  F   UNL     1       6.556   8.167  17.801  0.00  0.00    +0.000 F 
ATOM     29  F   UNL     1       8.120   6.983  18.741  0.00  0.00    +0.000 F 
ENDBRANCH   8  26
BRANCH   6  30
ATOM     30  O   UNL     1       6.257   3.402  14.646  0.00  0.00    +0.000 OA
BRANCH  30  31
ATOM     31  C   UNL     1       6.060   4.259  13.531  0.00  0.00    +0.000 C 
ATOM     32  F   UNL     1       5.236   3.596  12.676  0.00  0.00    +0.000 F 
ENDBRANCH  30  31
ENDBRANCH   6  30
TORSDOF 8
ENDMDL
MODEL 7
REMARK VINA RESULT:      -7.2      1.130      1.130
REMARK  Name = 
REMARK  8 active torsions:
REMARK  status: ('A' for Active; 'I' for Inactive)
REMARK    1  A    between atoms: N_1  and  C_2
REMARK    2  A    between atoms: C_2  and  C_3
REMARK    3  A    between atoms: C_3  and  C_4
REMARK    4  A    between atoms: C_4  and  C_5
REMARK    5  A    between atoms: C_9  and  N_10
REMARK    6  A    between atoms: C_15  and  O_16
REMARK    7  A    between atoms: O_16  and  C_17
REMARK    8  A    between atoms: C_20  and  C_21
REMARK                            x       y       z     vdW  Elec       q    Type
REMARK                         _______ _______ _______ _____ _____    ______ ____
ROOT
ATOM      1  N   UNL     1       0.721   8.289  21.164  0.00  0.00    +0.000 N 
ATOM      2  C   UNL     1      -0.516   8.573  20.399  0.00  0.00    +0.000 C 
ATOM      3  C   UNL     1      -0.386  10.038  20.102  0.00  0.00    +0.000 A 
ATOM      4  C   UNL     1       0.432  10.590  21.093  0.00  0.00    +0.000 A 
ATOM      5  C   UNL     1       0.890  11.891  21.065  0.00  0.00    +0.000 A 
ATOM      6  C   UNL     1       0.521  12.662  19.969  0.00  0.00    +0.000 A 
ATOM      7  C   UNL     1      -0.283  12.111  18.948  0.00  0.00    +0.000 A 
ATOM      8  C   UNL     1      -0.759  10.785  19.003  0.00  0.00    +0.000 A 
ATOM      9  C   UNL     1       1.031   9.478  21.869  0.00  0.00    +0.000 C 
ATOM     10  O   UNL     1       1.798   9.643  22.800  0.00  0.00    +0.000 OA
ENDROOT
BRANCH   1  15
ATOM     11  C   UNL     1       2.280   5.607  19.306  0.00  0.00    +0.000 A 
ATOM     12  C   UNL     1       2.418   6.270  18.069  0.00  0.00    +0.000 A 
ATOM     13  C   UNL     1       2.364   7.660  17.966  0.00  0.00    +0.000 A 
ATOM     14  C   UNL     1       2.060   8.426  19.086  0.00  0.00    +0.000 A 
ATOM     15  C   UNL     1       1.768   7.780  20.292  0.00  0.00    +0.000 A 
ATOM     16  C   UNL     1       2.082   6.425  20.432  0.00  0.00    +0.000 A 
BRANCH  11  17
ATOM     17  C   UNL     1       2.194   4.000  19.428  0.00  0.00    +0.000 C 
ATOM     18  C   UNL     1       2.652   3.353  20.777  0.00  0.00    +0.000 C 
ATOM     19  O   UNL     1       1.282   3.251  21.237  0.00  0.00    +0.000 OA
ATOM     20  C   UNL     1       0.808   3.442  19.884  0.00  0.00    +0.000 C 
BRANCH  17  21
ATOM     21  C   UNL     1       2.714   3.311  18.157  0.00  0.00    +0.000 C 
BRANCH  21  22
ATOM     22  C   UNL     1       2.776   1.787  18.261  0.00  0.00    +0.000 C 
BRANCH  22  23
ATOM     23  N   UNL     1       4.147   1.286  18.242  0.00  0.00    +0.000 NA
ATOM     24  H   UNL     1       4.737   1.921  18.780  0.00  0.00    +0.000 HD
ATOM     25  H   UNL     1       4.509   1.318  17.288  0.00  0.00    +0.000 HD
ENDBRANCH  22  23
ENDBRANCH  21  22
ENDBRANCH  17  21
ENDBRANCH  11  17
ENDBRANCH   1  15
BRANCH   8  26
ATOM     26  C   UNL     1      -1.544  10.233  17.837  0.00  0.00    +0.000 C 
ATOM     27  F   UNL     1      -0.872   9.299  17.115  0.00  0.00    +0.000 F 
ATOM     28  F   UNL     1      -2.696   9.628  18.239  0.00  0.00    +0.000 F 
ATOM     29  F   UNL     1      -1.916  11.203  16.957  0.00  0.00    +0.000 F 
ENDBRANCH   8  26
BRANCH   6  30
ATOM     30  O   UNL     1       0.971  13.931  19.720  0.00  0.00    +0.000 OA
BRANCH  30  31
ATOM     31  C   UNL     1       0.033  14.805  19.109  0.00  0.00    +0.000 C 
ATOM     32  F   UNL     1      -0.860  15.149  20.075  0.00  0.00    +0.000 F 
ENDBRANCH  30  31
ENDBRANCH   6  30
TORSDOF 8
ENDMDL
MODEL 8
REMARK VINA RESULT:      -7.1      1.633      2.064
REMARK  Name = 
REMARK  8 active torsions:
REMARK  status: ('A' for Active; 'I' for Inactive)
REMARK    1  A    between atoms: N_1  and  C_2
REMARK    2  A    between atoms: C_2  and  C_3
REMARK    3  A    between atoms: C_3  and  C_4
REMARK    4  A    between atoms: C_4  and  C_5
REMARK    5  A    between atoms: C_9  and  N_10
REMARK    6  A    between atoms: C_15  and  O_16
REMARK    7  A    between atoms: O_16  and  C_17
REMARK    8  A    between atoms: C_20  and  C_21
REMARK                            x       y       z     vdW  Elec       q    Type
REMARK                         _______ _______ _______ _____ _____    ______ ____
ROOT
ATOM      1  N   UNL     1       0.722   8.357  21.047  0.00  0.00    +0.000 N 
ATOM      2  C   UNL     1      -0.533   8.600  20.297  0.00  0.00    +0.000 C 
ATOM      3  C   UNL     1      -0.489  10.081  20.061  0.00  0.00    +0.000 A 
ATOM      4  C   UNL     1       0.301  10.638  21.072  0.00  0.00    +0.000 A 
ATOM      5  C   UNL     1       0.683  11.963  21.097  0.00  0.00    +0.000 A 
ATOM      6  C   UNL     1       0.266  12.757  20.035  0.00  0.00    +0.000 A 
ATOM      7  C   UNL     1      -0.510  12.203  18.994  0.00  0.00    +0.000 A 
ATOM      8  C   UNL     1      -0.909  10.850  18.994  0.00  0.00    +0.000 A 
ATOM      9  C   UNL     1       0.967   9.531  21.800  0.00  0.00    +0.000 C 
ATOM     10  O   UNL     1       1.728   9.701  22.734  0.00  0.00    +0.000 OA
ENDROOT
BRANCH   1  15
ATOM     11  C   UNL     1       2.368   5.874  18.994  0.00  0.00    +0.000 A 
ATOM     12  C   UNL     1       2.508   6.643  17.820  0.00  0.00    +0.000 A 
ATOM     13  C   UNL     1       2.424   8.035  17.833  0.00  0.00    +0.000 A 
ATOM     14  C   UNL     1       2.087   8.697  19.008  0.00  0.00    +0.000 A 
ATOM     15  C   UNL     1       1.793   7.945  20.151  0.00  0.00    +0.000 A 
ATOM     16  C   UNL     1       2.135   6.590  20.182  0.00  0.00    +0.000 A 
BRANCH  11  17
ATOM     17  C   UNL     1       2.315   4.262  18.979  0.00  0.00    +0.000 C 
ATOM     18  C   UNL     1       2.219   3.556  17.586  0.00  0.00    +0.000 C 
ATOM     19  O   UNL     1       3.645   3.300  17.575  0.00  0.00    +0.000 OA
ATOM     20  C   UNL     1       3.706   3.552  18.997  0.00  0.00    +0.000 C 
BRANCH  17  21
ATOM     21  C   UNL     1       1.366   3.720  20.058  0.00  0.00    +0.000 C 
BRANCH  21  22
ATOM     22  C   UNL     1       1.986   2.635  20.939  0.00  0.00    +0.000 C 
BRANCH  22  23
ATOM     23  N   UNL     1       1.393   2.599  22.272  0.00  0.00    +0.000 NA
ATOM     24  H   UNL     1       1.317   3.553  22.625  0.00  0.00    +0.000 HD
ATOM     25  H   UNL     1       2.025   2.119  22.915  0.00  0.00    +0.000 HD
ENDBRANCH  22  23
ENDBRANCH  21  22
ENDBRANCH  17  21
ENDBRANCH  11  17
ENDBRANCH   1  15
BRANCH   8  26
ATOM     26  C   UNL     1      -1.667  10.303  17.809  0.00  0.00    +0.000 C 
ATOM     27  F   UNL     1      -2.065  11.254  16.924  0.00  0.00    +0.000 F 
ATOM     28  F   UNL     1      -0.919   9.422  17.089  0.00  0.00    +0.000 F 
ATOM     29  F   UNL     1      -2.791   9.629  18.178  0.00  0.00    +0.000 F 
ENDBRANCH   8  26
BRANCH   6  30
ATOM     30  O   UNL     1       0.641  14.058  19.837  0.00  0.00    +0.000 OA
BRANCH  30  31
ATOM     31  C   UNL     1      -0.418  15.005  19.819  0.00  0.00    +0.000 C 
ATOM     32  F   UNL     1      -0.469  15.502  18.553  0.00  0.00    +0.000 F 
ENDBRANCH  30  31
ENDBRANCH   6  30
TORSDOF 8
ENDMDL
MODEL 9
REMARK VINA RESULT:      -7.1      4.983      7.576
REMARK  Name = 
REMARK  8 active torsions:
REMARK  status: ('A' for Active; 'I' for Inactive)
REMARK    1  A    between atoms: N_1  and  C_2
REMARK    2  A    between atoms: C_2  and  C_3
REMARK    3  A    between atoms: C_3  and  C_4
REMARK    4  A    between atoms: C_4  and  C_5
REMARK    5  A    between atoms: C_9  and  N_10
REMARK    6  A    between atoms: C_15  and  O_16
REMARK    7  A    between atoms: O_16  and  C_17
REMARK    8  A    between atoms: C_20  and  C_21
REMARK                            x       y       z     vdW  Elec       q    Type
REMARK                         _______ _______ _______ _____ _____    ______ ____
ROOT
ATOM      1  N   UNL     1      -0.236  11.017  18.390  0.00  0.00    +0.000 N 
ATOM      2  C   UNL     1       0.451  10.302  19.491  0.00  0.00    +0.000 C 
ATOM      3  C   UNL     1      -0.006  11.057  20.704  0.00  0.00    +0.000 A 
ATOM      4  C   UNL     1      -0.339  12.349  20.287  0.00  0.00    +0.000 A 
ATOM      5  C   UNL     1      -0.936  13.284  21.107  0.00  0.00    +0.000 A 
ATOM      6  C   UNL     1      -1.231  12.884  22.405  0.00  0.00    +0.000 A 
ATOM      7  C   UNL     1      -0.924  11.574  22.833  0.00  0.00    +0.000 A 
ATOM      8  C   UNL     1      -0.296  10.637  21.988  0.00  0.00    +0.000 A 
ATOM      9  C   UNL     1      -0.347  12.367  18.804  0.00  0.00    +0.000 C 
ATOM     10  O   UNL     1      -0.609  13.355  18.144  0.00  0.00    +0.000 OA
ENDROOT
BRANCH   1  15
ATOM     11  C   UNL     1      -3.839  10.999  18.082  0.00  0.00    +0.000 A 
ATOM     12  C   UNL     1      -3.927  10.527  16.755  0.00  0.00    +0.000 A 
ATOM     13  C   UNL     1      -2.865   9.870  16.133  0.00  0.00    +0.000 A 
ATOM     14  C   UNL     1      -1.641   9.763  16.784  0.00  0.00    +0.000 A 
ATOM     15  C   UNL     1      -1.485  10.358  18.040  0.00  0.00    +0.000 A 
ATOM     16  C   UNL     1      -2.619  10.773  18.743  0.00  0.00    +0.000 A 
BRANCH  11  17
ATOM     17  C   UNL     1      -4.998  11.887  18.769  0.00  0.00    +0.000 C 
ATOM     18  C   UNL     1      -5.975  12.658  17.820  0.00  0.00    +0.000 C 
ATOM     19  O   UNL     1      -6.981  11.624  17.953  0.00  0.00    +0.000 OA
ATOM     20  C   UNL     1      -6.306  11.112  19.125  0.00  0.00    +0.000 C 
BRANCH  17  21
ATOM     21  C   UNL     1      -4.456  12.698  19.955  0.00  0.00    +0.000 C 
BRANCH  21  22
ATOM     22  C   UNL     1      -5.382  12.710  21.171  0.00  0.00    +0.000 C 
BRANCH  22  23
ATOM     23  N   UNL     1      -4.673  12.401  22.410  0.00  0.00    +0.000 NA
ATOM     24  H   UNL     1      -5.255  11.783  22.977  0.00  0.00    +0.000 HD
ATOM     25  H   UNL     1      -4.559  13.253  22.960  0.00  0.00    +0.000 HD
ENDBRANCH  22  23
ENDBRANCH  21  22
ENDBRANCH  17  21
ENDBRANCH  11  17
ENDBRANCH   1  15
BRANCH   8  26
ATOM     26  C   UNL     1      -0.073   9.228  22.483  0.00  0.00    +0.000 C 
ATOM     27  F   UNL     1       1.196   8.778  22.306  0.00  0.00    +0.000 F 
ATOM     28  F   UNL     1      -0.321   9.112  23.816  0.00  0.00    +0.000 F 
ATOM     29  F   UNL     1      -0.888   8.327  21.869  0.00  0.00    +0.000 F 
ENDBRANCH   8  26
BRANCH   6  30
ATOM     30  O   UNL     1      -1.919  13.637  23.317  0.00  0.00    +0.000 OA
BRANCH  30  31
ATOM     31  C   UNL     1      -2.157  14.986  22.942  0.00  0.00    +0.000 C 
ATOM     32  F   UNL     1      -3.437  15.269  23.310  0.00  0.00    +0.000 F 
ENDBRANCH  30  31
ENDBRANCH   6  30
TORSDOF 8
ENDMDL
