MODEL 1
REMARK VINA RESULT:      -8.8      0.000      0.000
REMARK  Name = 
REMARK  7 active torsions:
REMARK  status: ('A' for Active; 'I' for Inactive)
REMARK    1  A    between atoms: C_2  and  C_3
REMARK    2  A    between atoms: C_2  and  C_10
REMARK    3  A    between atoms: C_3  and  C_4
REMARK    4  A    between atoms: N_8  and  C_9
REMARK    5  A    between atoms: C_14  and  N_15
REMARK    6  A    between atoms: C_20  and  C_21
REMARK    7  A    between atoms: C_23  and  C_24
REMARK                            x       y       z     vdW  Elec       q    Type
REMARK                         _______ _______ _______ _____ _____    ______ ____
ROOT
ATOM      1  C   UNL     1       2.521   4.122  18.794  0.00  0.00    +0.000 A 
ATOM      2  C   UNL     1       2.149   3.727  20.090  0.00  0.00    +0.000 A 
ATOM      3  C   UNL     1       1.503   4.595  20.969  0.00  0.00    +0.000 A 
ATOM      4  C   UNL     1       1.320   5.923  20.622  0.00  0.00    +0.000 A 
ATOM      5  C   UNL     1       1.899   6.392  19.440  0.00  0.00    +0.000 A 
ATOM      6  C   UNL     1       2.316   5.472  18.465  0.00  0.00    +0.000 A 
ENDROOT
BRANCH   5   7
ATOM      7  N   UNL     1       2.521   7.710  19.429  0.00  0.00    +0.000 N 
ATOM      8  C   UNL     1       2.139   8.479  20.639  0.00  0.00    +0.000 C 
ATOM      9  C   UNL     1       0.970   9.279  20.161  0.00  0.00    +0.000 A 
ATOM     10  C   UNL     1       1.105   9.436  18.779  0.00  0.00    +0.000 A 
ATOM     11  C   UNL     1       0.145  10.045  17.991  0.00  0.00    +0.000 A 
ATOM     12  C   UNL     1      -1.010  10.511  18.626  0.00  0.00    +0.000 A 
ATOM     13  C   UNL     1      -2.132  11.119  17.831  0.00  0.00    +0.000 C 
ATOM     14  C   UNL     1      -1.164  10.336  20.021  0.00  0.00    +0.000 A 
ATOM     15  C   UNL     1      -0.179   9.712  20.815  0.00  0.00    +0.000 A 
ATOM     16  C   UNL     1       2.196   8.540  18.324  0.00  0.00    +0.000 C 
ATOM     17  O   UNL     1       2.559   8.444  17.170  0.00  0.00    +0.000 OA
BRANCH  15  18
ATOM     18  C   UNL     1      -0.453   9.460  22.278  0.00  0.00    +0.000 C 
ATOM     19  F   UNL     1      -1.329  10.332  22.842  0.00  0.00    +0.000 F 
ATOM     20  F   UNL     1      -0.979   8.222  22.491  0.00  0.00    +0.000 F 
ATOM     21  F   UNL     1       0.677   9.519  23.037  0.00  0.00    +0.000 F 
ENDBRANCH  15  18
ENDBRANCH   5   7
BRANCH   1  23
ATOM     22  C   UNL     1       2.973   1.840  17.917  0.00  0.00    +0.000 C 
ATOM     23  C   UNL     1       3.167   3.168  17.844  0.00  0.00    +0.000 C 
BRANCH  23  24
ATOM     24  C   UNL     1       4.131   3.729  16.795  0.00  0.00    +0.000 C 
BRANCH  24  25
ATOM     25  C   UNL     1       5.498   4.129  17.267  0.00  0.00    +0.000 A 
ATOM     26  N   UNL     1       5.898   4.209  18.523  0.00  0.00    +0.000 NA
ATOM     27  N   UNL     1       7.231   4.530  18.541  0.00  0.00    +0.000 NA
ATOM     28  C   UNL     1       7.629   4.625  17.297  0.00  0.00    +0.000 A 
ATOM     29  N   UNL     1       6.578   4.393  16.463  0.00  0.00    +0.000 N 
ATOM     30  C   UNL     1       6.640   4.383  15.027  0.00  0.00    +0.000 C 
ENDBRANCH  24  25
ENDBRANCH  23  24
ENDBRANCH   1  23
TORSDOF 5
ENDMDL
MODEL 2
REMARK VINA RESULT:      -8.7      3.767      8.218
REMARK  Name = 
REMARK  7 active torsions:
REMARK  status: ('A' for Active; 'I' for Inactive)
REMARK    1  A    between atoms: C_2  and  C_3
REMARK    2  A    between atoms: C_2  and  C_10
REMARK    3  A    between atoms: C_3  and  C_4
REMARK    4  A    between atoms: N_8  and  C_9
REMARK    5  A    between atoms: C_14  and  N_15
REMARK    6  A    between atoms: C_20  and  C_21
REMARK    7  A    between atoms: C_23  and  C_24
REMARK                            x       y       z     vdW  Elec       q    Type
REMARK                         _______ _______ _______ _____ _____    ______ ____
ROOT
ATOM      1  C   UNL     1       1.804   7.914  20.113  0.00  0.00    +0.000 A 
ATOM      2  C   UNL     1       2.168   8.621  18.955  0.00  0.00    +0.000 A 
ATOM      3  C   UNL     1       2.620   7.973  17.806  0.00  0.00    +0.000 A 
ATOM      4  C   UNL     1       2.840   6.607  17.822  0.00  0.00    +0.000 A 
ATOM      5  C   UNL     1       2.716   5.923  19.034  0.00  0.00    +0.000 A 
ATOM      6  C   UNL     1       2.029   6.528  20.099  0.00  0.00    +0.000 A 
ENDROOT
BRANCH   5   7
ATOM      7  N   UNL     1       3.682   4.882  19.364  0.00  0.00    +0.000 N 
ATOM      8  C   UNL     1       5.056   5.438  19.404  0.00  0.00    +0.000 C 
ATOM      9  C   UNL     1       5.564   5.153  18.027  0.00  0.00    +0.000 A 
ATOM     10  C   UNL     1       4.858   4.050  17.539  0.00  0.00    +0.000 A 
ATOM     11  C   UNL     1       5.003   3.571  16.249  0.00  0.00    +0.000 A 
ATOM     12  C   UNL     1       5.896   4.241  15.409  0.00  0.00    +0.000 A 
ATOM     13  C   UNL     1       6.057   3.828  13.973  0.00  0.00    +0.000 C 
ATOM     14  C   UNL     1       6.598   5.373  15.888  0.00  0.00    +0.000 A 
ATOM     15  C   UNL     1       6.440   5.853  17.205  0.00  0.00    +0.000 A 
ATOM     16  C   UNL     1       3.735   3.781  18.470  0.00  0.00    +0.000 C 
ATOM     17  O   UNL     1       2.933   2.882  18.324  0.00  0.00    +0.000 OA
BRANCH  15  18
ATOM     18  C   UNL     1       7.137   7.128  17.618  0.00  0.00    +0.000 C 
ATOM     19  F   UNL     1       7.843   7.032  18.774  0.00  0.00    +0.000 F 
ATOM     20  F   UNL     1       8.027   7.548  16.677  0.00  0.00    +0.000 F 
ATOM     21  F   UNL     1       6.267   8.163  17.793  0.00  0.00    +0.000 F 
ENDBRANCH  15  18
ENDBRANCH   5   7
BRANCH   1  23
ATOM     22  C   UNL     1       2.002   8.766  22.439  0.00  0.00    +0.000 C 
ATOM     23  C   UNL     1       1.274   8.615  21.320  0.00  0.00    +0.000 C 
BRANCH  23  24
ATOM     24  C   UNL     1      -0.171   9.120  21.291  0.00  0.00    +0.000 C 
BRANCH  24  25
ATOM     25  C   UNL     1      -0.417  10.517  21.779  0.00  0.00    +0.000 A 
ATOM     26  N   UNL     1      -0.633  10.880  23.031  0.00  0.00    +0.000 NA
ATOM     27  N   UNL     1      -0.734  12.247  23.081  0.00  0.00    +0.000 NA
ATOM     28  C   UNL     1      -0.562  12.699  21.863  0.00  0.00    +0.000 A 
ATOM     29  N   UNL     1      -0.371  11.654  21.012  0.00  0.00    +0.000 N 
ATOM     30  C   UNL     1      -0.121  11.763  19.601  0.00  0.00    +0.000 C 
ENDBRANCH  24  25
ENDBRANCH  23  24
ENDBRANCH   1  23
TORSDOF 5
ENDMDL
MODEL 3
REMARK VINA RESULT:      -8.6      3.668      8.289
REMARK  Name = 
REMARK  7 active torsions:
REMARK  status: ('A' for Active; 'I' for Inactive)
REMARK    1  A    between atoms: C_2  and  C_3
REMARK    2  A    between atoms: C_2  and  C_10
REMARK    3  A    between atoms: C_3  and  C_4
REMARK    4  A    between atoms: N_8  and  C_9
REMARK    5  A    between atoms: C_14  and  N_15
REMARK    6  A    between atoms: C_20  and  C_21
REMARK    7  A    between atoms: C_23  and  C_24
REMARK                            x       y       z     vdW  Elec       q    Type
REMARK                         _______ _______ _______ _____ _____    ______ ____
ROOT
ATOM      1  C   UNL     1       1.805   7.910  20.003  0.00  0.00    +0.000 A 
ATOM      2  C   UNL     1       2.218   8.645  18.880  0.00  0.00    +0.000 A 
ATOM      3  C   UNL     1       2.744   8.028  17.745  0.00  0.00    +0.000 A 
ATOM      4  C   UNL     1       2.987   6.665  17.749  0.00  0.00    +0.000 A 
ATOM      5  C   UNL     1       2.810   5.955  18.940  0.00  0.00    +0.000 A 
ATOM      6  C   UNL     1       2.055   6.528  19.976  0.00  0.00    +0.000 A 
ENDROOT
BRANCH   5   7
ATOM      7  N   UNL     1       3.775   4.925  19.302  0.00  0.00    +0.000 N 
ATOM      8  C   UNL     1       5.145   5.491  19.362  0.00  0.00    +0.000 C 
ATOM      9  C   UNL     1       5.682   5.191  18.000  0.00  0.00    +0.000 A 
ATOM     10  C   UNL     1       4.993   4.078  17.512  0.00  0.00    +0.000 A 
ATOM     11  C   UNL     1       5.167   3.583  16.232  0.00  0.00    +0.000 A 
ATOM     12  C   UNL     1       6.073   4.248  15.401  0.00  0.00    +0.000 A 
ATOM     13  C   UNL     1       6.266   3.817  13.974  0.00  0.00    +0.000 C 
ATOM     14  C   UNL     1       6.758   5.390  15.879  0.00  0.00    +0.000 A 
ATOM     15  C   UNL     1       6.571   5.886  17.187  0.00  0.00    +0.000 A 
ATOM     16  C   UNL     1       3.853   3.813  18.424  0.00  0.00    +0.000 C 
ATOM     17  O   UNL     1       3.060   2.907  18.273  0.00  0.00    +0.000 OA
BRANCH  15  18
ATOM     18  C   UNL     1       7.251   7.171  17.597  0.00  0.00    +0.000 C 
ATOM     19  F   UNL     1       7.969   7.083  18.747  0.00  0.00    +0.000 F 
ATOM     20  F   UNL     1       8.126   7.607  16.650  0.00  0.00    +0.000 F 
ATOM     21  F   UNL     1       6.367   8.191  17.783  0.00  0.00    +0.000 F 
ENDBRANCH  15  18
ENDBRANCH   5   7
BRANCH   1  23
ATOM     22  C   UNL     1       1.904   8.842  22.305  0.00  0.00    +0.000 C 
ATOM     23  C   UNL     1       1.198   8.578  21.192  0.00  0.00    +0.000 C 
BRANCH  23  24
ATOM     24  C   UNL     1      -0.295   8.914  21.154  0.00  0.00    +0.000 C 
BRANCH  24  25
ATOM     25  C   UNL     1      -0.675  10.290  20.691  0.00  0.00    +0.000 A 
ATOM     26  N   UNL     1      -0.784  10.689  19.437  0.00  0.00    +0.000 NA
ATOM     27  N   UNL     1      -1.226  11.988  19.426  0.00  0.00    +0.000 NA
ATOM     28  C   UNL     1      -1.395  12.356  20.672  0.00  0.00    +0.000 A 
ATOM     29  N   UNL     1      -1.054  11.331  21.501  0.00  0.00    +0.000 N 
ATOM     30  C   UNL     1      -1.137  11.357  22.935  0.00  0.00    +0.000 C 
ENDBRANCH  24  25
ENDBRANCH  23  24
ENDBRANCH   1  23
TORSDOF 5
ENDMDL
MODEL 4
REMARK VINA RESULT:      -8.6      3.659      8.098
REMARK  Name = 
REMARK  7 active torsions:
REMARK  status: ('A' for Active; 'I' for Inactive)
REMARK    1  A    between atoms: C_2  and  C_3
REMARK    2  A    between atoms: C_2  and  C_10
REMARK    3  A    between atoms: C_3  and  C_4
REMARK    4  A    between atoms: N_8  and  C_9
REMARK    5  A    between atoms: C_14  and  N_15
REMARK    6  A    between atoms: C_20  and  C_21
REMARK    7  A    between atoms: C_23  and  C_24
REMARK                            x       y       z     vdW  Elec       q    Type
REMARK                         _______ _______ _______ _____ _____    ______ ____
ROOT
ATOM      1  C   UNL     1       1.739   8.093  19.864  0.00  0.00    +0.000 A 
ATOM      2  C   UNL     1       2.220   8.819  18.762  0.00  0.00    +0.000 A 
ATOM      3  C   UNL     1       2.788   8.190  17.654  0.00  0.00    +0.000 A 
ATOM      4  C   UNL     1       3.005   6.823  17.669  0.00  0.00    +0.000 A 
ATOM      5  C   UNL     1       2.758   6.119  18.850  0.00  0.00    +0.000 A 
ATOM      6  C   UNL     1       1.965   6.707  19.849  0.00  0.00    +0.000 A 
ENDROOT
BRANCH   5   7
ATOM      7  N   UNL     1       3.685   5.071  19.259  0.00  0.00    +0.000 N 
ATOM      8  C   UNL     1       5.068   5.601  19.342  0.00  0.00    +0.000 C 
ATOM      9  C   UNL     1       5.630   5.256  18.001  0.00  0.00    +0.000 A 
ATOM     10  C   UNL     1       4.923   4.151  17.520  0.00  0.00    +0.000 A 
ATOM     11  C   UNL     1       5.115   3.624  16.255  0.00  0.00    +0.000 A 
ATOM     12  C   UNL     1       6.060   4.245  15.434  0.00  0.00    +0.000 A 
ATOM     13  C   UNL     1       6.276   3.778  14.021  0.00  0.00    +0.000 C 
ATOM     14  C   UNL     1       6.763   5.379  15.905  0.00  0.00    +0.000 A 
ATOM     15  C   UNL     1       6.558   5.909  17.196  0.00  0.00    +0.000 A 
ATOM     16  C   UNL     1       3.754   3.938  18.407  0.00  0.00    +0.000 C 
ATOM     17  O   UNL     1       2.940   3.051  18.256  0.00  0.00    +0.000 OA
BRANCH  15  18
ATOM     18  C   UNL     1       7.263   7.183  17.596  0.00  0.00    +0.000 C 
ATOM     19  F   UNL     1       7.979   7.091  18.745  0.00  0.00    +0.000 F 
ATOM     20  F   UNL     1       8.145   7.595  16.644  0.00  0.00    +0.000 F 
ATOM     21  F   UNL     1       6.398   8.222  17.774  0.00  0.00    +0.000 F 
ENDBRANCH  15  18
ENDBRANCH   5   7
BRANCH   1  23
ATOM     22  C   UNL     1       1.676   8.860  22.227  0.00  0.00    +0.000 C 
ATOM     23  C   UNL     1       1.088   8.773  21.022  0.00  0.00    +0.000 C 
BRANCH  23  24
ATOM     24  C   UNL     1      -0.325   9.334  20.835  0.00  0.00    +0.000 C 
BRANCH  24  25
ATOM     25  C   UNL     1      -0.440  10.741  20.325  0.00  0.00    +0.000 A 
ATOM     26  N   UNL     1      -0.110  11.838  20.982  0.00  0.00    +0.000 NA
ATOM     27  N   UNL     1      -0.286  12.917  20.153  0.00  0.00    +0.000 NA
ATOM     28  C   UNL     1      -0.704  12.460  18.998  0.00  0.00    +0.000 A 
ATOM     29  N   UNL     1      -0.825  11.106  19.060  0.00  0.00    +0.000 N 
ATOM     30  C   UNL     1      -1.231  10.255  17.976  0.00  0.00    +0.000 C 
ENDBRANCH  24  25
ENDBRANCH  23  24
ENDBRANCH   1  23
TORSDOF 5
ENDMDL
MODEL 5
REMARK VINA RESULT:      -8.6      0.775      1.038
REMARK  Name = 
REMARK  7 active torsions:
REMARK  status: ('A' for Active; 'I' for Inactive)
REMARK    1  A    between atoms: C_2  and  C_3
REMARK    2  A    between atoms: C_2  and  C_10
REMARK    3  A    between atoms: C_3  and  C_4
REMARK    4  A    between atoms: N_8  and  C_9
REMARK    5  A    between atoms: C_14  and  N_15
REMARK    6  A    between atoms: C_20  and  C_21
REMARK    7  A    between atoms: C_23  and  C_24
REMARK                            x       y       z     vdW  Elec       q    Type
REMARK                         _______ _______ _______ _____ _____    ______ ____
ROOT
ATOM      1  C   UNL     1       2.551   4.173  18.771  0.00  0.00    +0.000 A 
ATOM      2  C   UNL     1       2.309   3.771  20.095  0.00  0.00    +0.000 A 
ATOM      3  C   UNL     1       1.725   4.624  21.031  0.00  0.00    +0.000 A 
ATOM      4  C   UNL     1       1.480   5.947  20.704  0.00  0.00    +0.000 A 
ATOM      5  C   UNL     1       1.936   6.428  19.474  0.00  0.00    +0.000 A 
ATOM      6  C   UNL     1       2.285   5.517  18.464  0.00  0.00    +0.000 A 
ENDROOT
BRANCH   5   7
ATOM      7  N   UNL     1       2.522   7.761  19.407  0.00  0.00    +0.000 N 
ATOM      8  C   UNL     1       2.139   8.561  20.596  0.00  0.00    +0.000 C 
ATOM      9  C   UNL     1       0.942   9.313  20.110  0.00  0.00    +0.000 A 
ATOM     10  C   UNL     1       1.051   9.425  18.722  0.00  0.00    +0.000 A 
ATOM     11  C   UNL     1       0.062   9.981  17.929  0.00  0.00    +0.000 A 
ATOM     12  C   UNL     1      -1.094  10.438  18.566  0.00  0.00    +0.000 A 
ATOM     13  C   UNL     1      -2.244  10.989  17.770  0.00  0.00    +0.000 C 
ATOM     14  C   UNL     1      -1.223  10.308  19.969  0.00  0.00    +0.000 A 
ATOM     15  C   UNL     1      -0.208   9.738  20.767  0.00  0.00    +0.000 A 
ATOM     16  C   UNL     1       2.158   8.543  18.280  0.00  0.00    +0.000 C 
ATOM     17  O   UNL     1       2.505   8.417  17.124  0.00  0.00    +0.000 OA
BRANCH  15  18
ATOM     18  C   UNL     1      -0.454   9.531  22.243  0.00  0.00    +0.000 C 
ATOM     19  F   UNL     1      -0.953   8.309  22.562  0.00  0.00    +0.000 F 
ATOM     20  F   UNL     1       0.690   9.663  22.971  0.00  0.00    +0.000 F 
ATOM     21  F   UNL     1      -1.328  10.440  22.758  0.00  0.00    +0.000 F 
ENDBRANCH  15  18
ENDBRANCH   5   7
BRANCH   1  23
ATOM     22  C   UNL     1       2.584   2.035  17.504  0.00  0.00    +0.000 C 
ATOM     23  C   UNL     1       3.131   3.234  17.765  0.00  0.00    +0.000 C 
BRANCH  23  24
ATOM     24  C   UNL     1       4.428   3.638  17.057  0.00  0.00    +0.000 C 
BRANCH  24  25
ATOM     25  C   UNL     1       5.408   4.459  17.842  0.00  0.00    +0.000 A 
ATOM     26  N   UNL     1       6.074   4.067  18.913  0.00  0.00    +0.000 NA
ATOM     27  N   UNL     1       6.926   5.073  19.293  0.00  0.00    +0.000 NA
ATOM     28  C   UNL     1       6.779   6.056  18.440  0.00  0.00    +0.000 A 
ATOM     29  N   UNL     1       5.832   5.723  17.520  0.00  0.00    +0.000 N 
ATOM     30  C   UNL     1       5.424   6.542  16.412  0.00  0.00    +0.000 C 
ENDBRANCH  24  25
ENDBRANCH  23  24
ENDBRANCH   1  23
TORSDOF 5
ENDMDL
MODEL 6
REMARK VINA RESULT:      -8.5      3.768      8.336
REMARK  Name = 
REMARK  7 active torsions:
REMARK  status: ('A' for Active; 'I' for Inactive)
REMARK    1  A    between atoms: C_2  and  C_3
REMARK    2  A    between atoms: C_2  and  C_10
REMARK    3  A    between atoms: C_3  and  C_4
REMARK    4  A    between atoms: N_8  and  C_9
REMARK    5  A    between atoms: C_14  and  N_15
REMARK    6  A    between atoms: C_20  and  C_21
REMARK    7  A    between atoms: C_23  and  C_24
REMARK                            x       y       z     vdW  Elec       q    Type
REMARK                         _______ _______ _______ _____ _____    ______ ____
ROOT
ATOM      1  C   UNL     1       1.766   8.154  19.807  0.00  0.00    +0.000 A 
ATOM      2  C   UNL     1       2.244   8.852  18.686  0.00  0.00    +0.000 A 
ATOM      3  C   UNL     1       2.792   8.196  17.584  0.00  0.00    +0.000 A 
ATOM      4  C   UNL     1       2.992   6.826  17.624  0.00  0.00    +0.000 A 
ATOM      5  C   UNL     1       2.749   6.148  18.821  0.00  0.00    +0.000 A 
ATOM      6  C   UNL     1       1.974   6.765  19.816  0.00  0.00    +0.000 A 
ENDROOT
BRANCH   5   7
ATOM      7  N   UNL     1       3.667   5.097  19.240  0.00  0.00    +0.000 N 
ATOM      8  C   UNL     1       5.053   5.618  19.327  0.00  0.00    +0.000 C 
ATOM      9  C   UNL     1       5.620   5.263  17.990  0.00  0.00    +0.000 A 
ATOM     10  C   UNL     1       4.908   4.160  17.512  0.00  0.00    +0.000 A 
ATOM     11  C   UNL     1       5.103   3.625  16.251  0.00  0.00    +0.000 A 
ATOM     12  C   UNL     1       6.056   4.235  15.431  0.00  0.00    +0.000 A 
ATOM     13  C   UNL     1       6.276   3.759  14.022  0.00  0.00    +0.000 C 
ATOM     14  C   UNL     1       6.764   5.367  15.900  0.00  0.00    +0.000 A 
ATOM     15  C   UNL     1       6.556   5.905  17.187  0.00  0.00    +0.000 A 
ATOM     16  C   UNL     1       3.733   3.958  18.395  0.00  0.00    +0.000 C 
ATOM     17  O   UNL     1       2.914   3.076  18.244  0.00  0.00    +0.000 OA
BRANCH  15  18
ATOM     18  C   UNL     1       7.267   7.177  17.584  0.00  0.00    +0.000 C 
ATOM     19  F   UNL     1       8.162   7.628  16.668  0.00  0.00    +0.000 F 
ATOM     20  F   UNL     1       6.395   8.205  17.783  0.00  0.00    +0.000 F 
ATOM     21  F   UNL     1       7.957   7.045  18.751  0.00  0.00    +0.000 F 
ENDBRANCH  15  18
ENDBRANCH   5   7
BRANCH   1  23
ATOM     22  C   UNL     1       1.542   8.679  22.226  0.00  0.00    +0.000 C 
ATOM     23  C   UNL     1       1.136   8.865  20.958  0.00  0.00    +0.000 C 
BRANCH  23  24
ATOM     24  C   UNL     1      -0.053   9.789  20.680  0.00  0.00    +0.000 C 
BRANCH  24  25
ATOM     25  C   UNL     1       0.112  11.239  21.026  0.00  0.00    +0.000 A 
ATOM     26  N   UNL     1       0.830  12.124  20.359  0.00  0.00    +0.000 NA
ATOM     27  N   UNL     1       0.666  13.354  20.943  0.00  0.00    +0.000 NA
ATOM     28  C   UNL     1      -0.161  13.205  21.948  0.00  0.00    +0.000 A 
ATOM     29  N   UNL     1      -0.527  11.897  22.046  0.00  0.00    +0.000 N 
ATOM     30  C   UNL     1      -1.446  11.360  23.011  0.00  0.00    +0.000 C 
ENDBRANCH  24  25
ENDBRANCH  23  24
ENDBRANCH   1  23
TORSDOF 5
ENDMDL
MODEL 7
REMARK VINA RESULT:      -8.4      4.678      7.352
REMARK  Name = 
REMARK  7 active torsions:
REMARK  status: ('A' for Active; 'I' for Inactive)
REMARK    1  A    between atoms: C_2  and  C_3
REMARK    2  A    between atoms: C_2  and  C_10
REMARK    3  A    between atoms: C_3  and  C_4
REMARK    4  A    between atoms: N_8  and  C_9
REMARK    5  A    between atoms: C_14  and  N_15
REMARK    6  A    between atoms: C_20  and  C_21
REMARK    7  A    between atoms: C_23  and  C_24
REMARK                            x       y       z     vdW  Elec       q    Type
REMARK                         _______ _______ _______ _____ _____    ______ ____
ROOT
ATOM      1  C   UNL     1       7.915   7.671  17.951  0.00  0.00    +0.000 A 
ATOM      2  C   UNL     1       7.944   6.793  19.047  0.00  0.00    +0.000 A 
ATOM      3  C   UNL     1       7.782   5.416  18.894  0.00  0.00    +0.000 A 
ATOM      4  C   UNL     1       7.462   4.889  17.655  0.00  0.00    +0.000 A 
ATOM      5  C   UNL     1       7.189   5.768  16.603  0.00  0.00    +0.000 A 
ATOM      6  C   UNL     1       7.596   7.109  16.704  0.00  0.00    +0.000 A 
ENDROOT
BRANCH   5   7
ATOM      7  N   UNL     1       6.093   5.466  15.692  0.00  0.00    +0.000 N 
ATOM      8  C   UNL     1       4.927   6.341  15.969  0.00  0.00    +0.000 C 
ATOM      9  C   UNL     1       4.096   5.497  16.882  0.00  0.00    +0.000 A 
ATOM     10  C   UNL     1       4.406   4.161  16.617  0.00  0.00    +0.000 A 
ATOM     11  C   UNL     1       3.892   3.107  17.351  0.00  0.00    +0.000 A 
ATOM     12  C   UNL     1       3.030   3.416  18.407  0.00  0.00    +0.000 A 
ATOM     13  C   UNL     1       2.486   2.333  19.297  0.00  0.00    +0.000 C 
ATOM     14  C   UNL     1       2.730   4.768  18.697  0.00  0.00    +0.000 A 
ATOM     15  C   UNL     1       3.262   5.835  17.942  0.00  0.00    +0.000 A 
ATOM     16  C   UNL     1       5.599   4.136  15.736  0.00  0.00    +0.000 C 
ATOM     17  O   UNL     1       6.118   3.120  15.324  0.00  0.00    +0.000 OA
BRANCH  15  18
ATOM     18  C   UNL     1       2.987   7.256  18.371  0.00  0.00    +0.000 C 
ATOM     19  F   UNL     1       3.987   8.131  18.089  0.00  0.00    +0.000 F 
ATOM     20  F   UNL     1       1.875   7.762  17.768  0.00  0.00    +0.000 F 
ATOM     21  F   UNL     1       2.762   7.361  19.711  0.00  0.00    +0.000 F 
ENDBRANCH  15  18
ENDBRANCH   5   7
BRANCH   1  23
ATOM     22  C   UNL     1       7.453  10.054  17.417  0.00  0.00    +0.000 C 
ATOM     23  C   UNL     1       8.139   9.137  18.121  0.00  0.00    +0.000 C 
BRANCH  23  24
ATOM     24  C   UNL     1       9.233   9.598  19.088  0.00  0.00    +0.000 C 
BRANCH  24  25
ATOM     25  C   UNL     1       9.816  10.961  18.860  0.00  0.00    +0.000 A 
ATOM     26  N   UNL     1      10.439  11.372  17.770  0.00  0.00    +0.000 NA
ATOM     27  N   UNL     1      10.754  12.699  17.917  0.00  0.00    +0.000 NA
ATOM     28  C   UNL     1      10.304  13.082  19.086  0.00  0.00    +0.000 A 
ATOM     29  N   UNL     1       9.719  12.028  19.718  0.00  0.00    +0.000 N 
ATOM     30  C   UNL     1       9.088  12.075  21.008  0.00  0.00    +0.000 C 
ENDBRANCH  24  25
ENDBRANCH  23  24
ENDBRANCH   1  23
TORSDOF 5
ENDMDL
MODEL 8
REMARK VINA RESULT:      -8.4      3.744      8.227
REMARK  Name = 
REMARK  7 active torsions:
REMARK  status: ('A' for Active; 'I' for Inactive)
REMARK    1  A    between atoms: C_2  and  C_3
REMARK    2  A    between atoms: C_2  and  C_10
REMARK    3  A    between atoms: C_3  and  C_4
REMARK    4  A    between atoms: N_8  and  C_9
REMARK    5  A    between atoms: C_14  and  N_15
REMARK    6  A    between atoms: C_20  and  C_21
REMARK    7  A    between atoms: C_23  and  C_24
REMARK                            x       y       z     vdW  Elec       q    Type
REMARK                         _______ _______ _______ _____ _____    ______ ____
ROOT
ATOM      1  C   UNL     1       1.723   8.194  19.821  0.00  0.00    +0.000 A 
ATOM      2  C   UNL     1       2.227   8.912  18.724  0.00  0.00    +0.000 A 
ATOM      3  C   UNL     1       2.797   8.275  17.622  0.00  0.00    +0.000 A 
ATOM      4  C   UNL     1       2.993   6.904  17.641  0.00  0.00    +0.000 A 
ATOM      5  C   UNL     1       2.722   6.204  18.819  0.00  0.00    +0.000 A 
ATOM      6  C   UNL     1       1.927   6.805  19.809  0.00  0.00    +0.000 A 
ENDROOT
BRANCH   5   7
ATOM      7  N   UNL     1       3.628   5.143  19.238  0.00  0.00    +0.000 N 
ATOM      8  C   UNL     1       5.019   5.649  19.329  0.00  0.00    +0.000 C 
ATOM      9  C   UNL     1       5.585   5.290  17.993  0.00  0.00    +0.000 A 
ATOM     10  C   UNL     1       4.863   4.195  17.511  0.00  0.00    +0.000 A 
ATOM     11  C   UNL     1       5.054   3.660  16.250  0.00  0.00    +0.000 A 
ATOM     12  C   UNL     1       6.015   4.262  15.433  0.00  0.00    +0.000 A 
ATOM     13  C   UNL     1       6.233   3.786  14.024  0.00  0.00    +0.000 C 
ATOM     14  C   UNL     1       6.735   5.385  15.904  0.00  0.00    +0.000 A 
ATOM     15  C   UNL     1       6.529   5.924  17.192  0.00  0.00    +0.000 A 
ATOM     16  C   UNL     1       3.684   4.005  18.391  0.00  0.00    +0.000 C 
ATOM     17  O   UNL     1       2.856   3.131  18.238  0.00  0.00    +0.000 OA
BRANCH  15  18
ATOM     18  C   UNL     1       7.253   7.188  17.592  0.00  0.00    +0.000 C 
ATOM     19  F   UNL     1       6.440   8.254  17.810  0.00  0.00    +0.000 F 
ATOM     20  F   UNL     1       7.961   7.024  18.744  0.00  0.00    +0.000 F 
ATOM     21  F   UNL     1       8.157   7.588  16.654  0.00  0.00    +0.000 F 
ENDBRANCH  15  18
ENDBRANCH   5   7
BRANCH   1  23
ATOM     22  C   UNL     1       1.435   8.660  22.245  0.00  0.00    +0.000 C 
ATOM     23  C   UNL     1       1.070   8.886  20.971  0.00  0.00    +0.000 C 
BRANCH  23  24
ATOM     24  C   UNL     1      -0.096   9.836  20.682  0.00  0.00    +0.000 C 
BRANCH  24  25
ATOM     25  C   UNL     1       0.164  11.305  20.840  0.00  0.00    +0.000 A 
ATOM     26  N   UNL     1       1.271  11.856  21.306  0.00  0.00    +0.000 NA
ATOM     27  N   UNL     1       1.152  13.220  21.221  0.00  0.00    +0.000 NA
ATOM     28  C   UNL     1      -0.016  13.481  20.690  0.00  0.00    +0.000 A 
ATOM     29  N   UNL     1      -0.675  12.315  20.443  0.00  0.00    +0.000 N 
ATOM     30  C   UNL     1      -1.974  12.204  19.837  0.00  0.00    +0.000 C 
ENDBRANCH  24  25
ENDBRANCH  23  24
ENDBRANCH   1  23
TORSDOF 5
ENDMDL
MODEL 9
REMARK VINA RESULT:      -8.4      2.488      3.293
REMARK  Name = 
REMARK  7 active torsions:
REMARK  status: ('A' for Active; 'I' for Inactive)
REMARK    1  A    between atoms: C_2  and  C_3
REMARK    2  A    between atoms: C_2  and  C_10
REMARK    3  A    between atoms: C_3  and  C_4
REMARK    4  A    between atoms: N_8  and  C_9
REMARK    5  A    between atoms: C_14  and  N_15
REMARK    6  A    between atoms: C_20  and  C_21
REMARK    7  A    between atoms: C_23  and  C_24
REMARK                            x       y       z     vdW  Elec       q    Type
REMARK                         _______ _______ _______ _____ _____    ______ ____
ROOT
ATOM      1  C   UNL     1       2.318   5.665  19.184  0.00  0.00    +0.000 A 
ATOM      2  C   UNL     1       2.348   6.366  17.966  0.00  0.00    +0.000 A 
ATOM      3  C   UNL     1       2.284   7.758  17.914  0.00  0.00    +0.000 A 
ATOM      4  C   UNL     1       2.062   8.485  19.071  0.00  0.00    +0.000 A 
ATOM      5  C   UNL     1       1.787   7.794  20.254  0.00  0.00    +0.000 A 
ATOM      6  C   UNL     1       2.101   6.428  20.342  0.00  0.00    +0.000 A 
ENDROOT
BRANCH   5   7
ATOM      7  N   UNL     1       0.761   8.306  21.153  0.00  0.00    +0.000 N 
ATOM      8  C   UNL     1      -0.479   8.625  20.403  0.00  0.00    +0.000 C 
ATOM      9  C   UNL     1      -0.322  10.085  20.120  0.00  0.00    +0.000 A 
ATOM     10  C   UNL     1       0.510  10.617  21.107  0.00  0.00    +0.000 A 
ATOM     11  C   UNL     1       0.949  11.929  21.098  0.00  0.00    +0.000 A 
ATOM     12  C   UNL     1       0.535  12.741  20.038  0.00  0.00    +0.000 A 
ATOM     13  C   UNL     1       1.026  14.156  19.916  0.00  0.00    +0.000 C 
ATOM     14  C   UNL     1      -0.290  12.203  19.022  0.00  0.00    +0.000 A 
ATOM     15  C   UNL     1      -0.730  10.862  19.041  0.00  0.00    +0.000 A 
ATOM     16  C   UNL     1       1.095   9.486  21.868  0.00  0.00    +0.000 C 
ATOM     17  O   UNL     1       1.865   9.619  22.797  0.00  0.00    +0.000 OA
BRANCH  15  18
ATOM     18  C   UNL     1      -1.518  10.323  17.871  0.00  0.00    +0.000 C 
ATOM     19  F   UNL     1      -0.853   9.407  17.121  0.00  0.00    +0.000 F 
ATOM     20  F   UNL     1      -2.665   9.708  18.273  0.00  0.00    +0.000 F 
ATOM     21  F   UNL     1      -1.907  11.305  17.010  0.00  0.00    +0.000 F 
ENDBRANCH  15  18
ENDBRANCH   5   7
BRANCH   1  23
ATOM     22  C   UNL     1       1.744   3.429  20.104  0.00  0.00    +0.000 C 
ATOM     23  C   UNL     1       2.437   4.177  19.230  0.00  0.00    +0.000 C 
BRANCH  23  24
ATOM     24  C   UNL     1       3.433   3.499  18.285  0.00  0.00    +0.000 C 
BRANCH  24  25
ATOM     25  C   UNL     1       4.840   4.021  18.285  0.00  0.00    +0.000 A 
ATOM     26  N   UNL     1       5.624   4.152  19.340  0.00  0.00    +0.000 NA
ATOM     27  N   UNL     1       6.856   4.586  18.922  0.00  0.00    +0.000 NA
ATOM     28  C   UNL     1       6.811   4.698  17.617  0.00  0.00    +0.000 A 
ATOM     29  N   UNL     1       5.567   4.365  17.174  0.00  0.00    +0.000 N 
ATOM     30  C   UNL     1       5.151   4.342  15.799  0.00  0.00    +0.000 C 
ENDBRANCH  24  25
ENDBRANCH  23  24
ENDBRANCH   1  23
TORSDOF 5
ENDMDL
