MODEL 1
REMARK VINA RESULT:      -7.7      0.000      0.000
REMARK  Name = 
REMARK  3 active torsions:
REMARK  status: ('A' for Active; 'I' for Inactive)
REMARK    1  A    between atoms: C_1  and  O_2
REMARK    2  A    between atoms: O_2  and  C_3
REMARK    3  A    between atoms: C_20  and  C_21
REMARK                            x       y       z     vdW  Elec       q    Type
REMARK                         _______ _______ _______ _____ _____    ______ ____
ROOT
ATOM      1  C   UNL     1       8.272   8.451  18.091  0.00  0.00    +0.000 A 
ATOM      2  C   UNL     1       8.602   7.635  19.173  0.00  0.00    +0.000 A 
ATOM      3  C   UNL     1       8.032   6.373  19.289  0.00  0.00    +0.000 A 
ATOM      4  C   UNL     1       7.101   5.922  18.344  0.00  0.00    +0.000 A 
ATOM      5  C   UNL     1       6.710   6.755  17.267  0.00  0.00    +0.000 A 
ATOM      6  C   UNL     1       7.324   8.014  17.153  0.00  0.00    +0.000 A 
ATOM      7  C   UNL     1       5.585   6.240  16.388  0.00  0.00    +0.000 C 
ATOM      8  C   UNL     1       4.752   6.949  15.343  0.00  0.00    +0.000 C 
ATOM      9  C   UNL     1       4.276   6.965  16.754  0.00  0.00    +0.000 C 
ATOM     10  C   UNL     1       5.667   4.731  16.215  0.00  0.00    +0.000 C 
ATOM     11  N   UNL     1       5.549   4.095  17.524  0.00  0.00    +0.000 N 
ATOM     12  C   UNL     1       4.308   3.647  17.936  0.00  0.00    +0.000 A 
ATOM     13  C   UNL     1       3.677   2.512  17.175  0.00  0.00    +0.000 A 
ATOM     14  C   UNL     1       2.489   2.042  17.573  0.00  0.00    +0.000 A 
ATOM     15  C   UNL     1       1.858   2.651  18.670  0.00  0.00    +0.000 A 
ATOM     16  N   UNL     1       0.701   2.448  19.261  0.00  0.00    +0.000 NA
ATOM     17  N   UNL     1       0.560   3.413  20.240  0.00  0.00    +0.000 NA
ATOM     18  C   UNL     1       1.635   4.180  20.214  0.00  0.00    +0.000 A 
ATOM     19  C   UNL     1       1.894   5.394  21.011  0.00  0.00    +0.000 C 
ATOM     20  N   UNL     1       2.508   3.708  19.268  0.00  0.00    +0.000 N 
ATOM     21  N   UNL     1       3.740   4.209  18.966  0.00  0.00    +0.000 NA
ATOM     22  C   UNL     1       6.552   4.514  18.510  0.00  0.00    +0.000 C 
ENDROOT
BRANCH   1  24
ATOM     23  C   UNL     1       9.288  10.365  19.047  0.00  0.00    +0.000 C 
ATOM     24  O   UNL     1       8.774   9.709  17.889  0.00  0.00    +0.000 OA
ENDBRANCH   1  24
TORSDOF 1
ENDMDL
MODEL 2
REMARK VINA RESULT:      -6.7      6.973      9.115
REMARK  Name = 
REMARK  3 active torsions:
REMARK  status: ('A' for Active; 'I' for Inactive)
REMARK    1  A    between atoms: C_1  and  O_2
REMARK    2  A    between atoms: O_2  and  C_3
REMARK    3  A    between atoms: C_20  and  C_21
REMARK                            x       y       z     vdW  Elec       q    Type
REMARK                         _______ _______ _______ _____ _____    ______ ____
ROOT
ATOM      1  C   UNL     1       2.573   7.099  18.974  0.00  0.00    +0.000 A 
ATOM      2  C   UNL     1       2.586   7.864  17.808  0.00  0.00    +0.000 A 
ATOM      3  C   UNL     1       2.046   9.145  17.813  0.00  0.00    +0.000 A 
ATOM      4  C   UNL     1       1.459   9.666  18.973  0.00  0.00    +0.000 A 
ATOM      5  C   UNL     1       1.386   8.886  20.153  0.00  0.00    +0.000 A 
ATOM      6  C   UNL     1       1.967   7.606  20.132  0.00  0.00    +0.000 A 
ATOM      7  C   UNL     1       0.594   9.477  21.306  0.00  0.00    +0.000 C 
ATOM      8  C   UNL     1       0.095   8.838  22.584  0.00  0.00    +0.000 C 
ATOM      9  C   UNL     1      -0.786   8.796  21.382  0.00  0.00    +0.000 C 
ATOM     10  C   UNL     1       0.771  10.985  21.380  0.00  0.00    +0.000 C 
ATOM     11  N   UNL     1       0.283  11.583  20.141  0.00  0.00    +0.000 N 
ATOM     12  C   UNL     1      -1.009  12.070  20.101  0.00  0.00    +0.000 A 
ATOM     13  C   UNL     1      -1.347  13.255  20.966  0.00  0.00    +0.000 A 
ATOM     14  C   UNL     1      -2.584  13.762  20.923  0.00  0.00    +0.000 A 
ATOM     15  C   UNL     1      -3.535  13.145  20.094  0.00  0.00    +0.000 A 
ATOM     16  N   UNL     1      -4.810  13.376  19.869  0.00  0.00    +0.000 NA
ATOM     17  N   UNL     1      -5.270  12.388  19.022  0.00  0.00    +0.000 NA
ATOM     18  C   UNL     1      -4.262  11.577  18.757  0.00  0.00    +0.000 A 
ATOM     19  C   UNL     1      -4.293  10.327  17.973  0.00  0.00    +0.000 C 
ATOM     20  N   UNL     1      -3.129  12.042  19.376  0.00  0.00    +0.000 N 
ATOM     21  N   UNL     1      -1.879  11.499  19.315  0.00  0.00    +0.000 NA
ATOM     22  C   UNL     1       0.928  11.089  18.918  0.00  0.00    +0.000 C 
ENDROOT
BRANCH   1  24
ATOM     23  C   UNL     1       3.094   5.075  17.859  0.00  0.00    +0.000 C 
ATOM     24  O   UNL     1       3.074   5.828  19.070  0.00  0.00    +0.000 OA
ENDBRANCH   1  24
TORSDOF 1
ENDMDL
MODEL 3
REMARK VINA RESULT:      -6.4      3.194      6.246
REMARK  Name = 
REMARK  3 active torsions:
REMARK  status: ('A' for Active; 'I' for Inactive)
REMARK    1  A    between atoms: C_1  and  O_2
REMARK    2  A    between atoms: O_2  and  C_3
REMARK    3  A    between atoms: C_20  and  C_21
REMARK                            x       y       z     vdW  Elec       q    Type
REMARK                         _______ _______ _______ _____ _____    ______ ____
ROOT
ATOM      1  C   UNL     1       0.608   8.427  21.556  0.00  0.00    +0.000 A 
ATOM      2  C   UNL     1       1.231   9.415  20.794  0.00  0.00    +0.000 A 
ATOM      3  C   UNL     1       1.929   9.067  19.643  0.00  0.00    +0.000 A 
ATOM      4  C   UNL     1       2.039   7.725  19.255  0.00  0.00    +0.000 A 
ATOM      5  C   UNL     1       1.461   6.700  20.044  0.00  0.00    +0.000 A 
ATOM      6  C   UNL     1       0.734   7.080  21.186  0.00  0.00    +0.000 A 
ATOM      7  C   UNL     1       1.767   5.273  19.628  0.00  0.00    +0.000 C 
ATOM      8  C   UNL     1       1.550   3.968  20.361  0.00  0.00    +0.000 C 
ATOM      9  C   UNL     1       2.839   4.685  20.565  0.00  0.00    +0.000 C 
ATOM     10  C   UNL     1       1.839   5.144  18.114  0.00  0.00    +0.000 C 
ATOM     11  N   UNL     1       2.908   6.003  17.613  0.00  0.00    +0.000 N 
ATOM     12  C   UNL     1       4.155   5.450  17.388  0.00  0.00    +0.000 A 
ATOM     13  C   UNL     1       4.286   4.420  16.298  0.00  0.00    +0.000 A 
ATOM     14  C   UNL     1       5.488   3.892  16.042  0.00  0.00    +0.000 A 
ATOM     15  C   UNL     1       6.581   4.296  16.826  0.00  0.00    +0.000 A 
ATOM     16  N   UNL     1       7.848   3.940  16.846  0.00  0.00    +0.000 NA
ATOM     17  N   UNL     1       8.448   4.602  17.898  0.00  0.00    +0.000 NA
ATOM     18  C   UNL     1       7.529   5.339  18.495  0.00  0.00    +0.000 A 
ATOM     19  C   UNL     1       7.679   6.147  19.721  0.00  0.00    +0.000 C 
ATOM     20  N   UNL     1       6.340   5.215  17.823  0.00  0.00    +0.000 N 
ATOM     21  N   UNL     1       5.165   5.845  18.111  0.00  0.00    +0.000 NA
ATOM     22  C   UNL     1       2.779   7.422  17.963  0.00  0.00    +0.000 C 
ENDROOT
BRANCH   1  24
ATOM     23  C   UNL     1      -0.377  10.036  22.988  0.00  0.00    +0.000 C 
ATOM     24  O   UNL     1      -0.097   8.666  22.705  0.00  0.00    +0.000 OA
ENDBRANCH   1  24
TORSDOF 1
ENDMDL
MODEL 4
REMARK VINA RESULT:      -6.0      3.643      5.504
REMARK  Name = 
REMARK  3 active torsions:
REMARK  status: ('A' for Active; 'I' for Inactive)
REMARK    1  A    between atoms: C_1  and  O_2
REMARK    2  A    between atoms: O_2  and  C_3
REMARK    3  A    between atoms: C_20  and  C_21
REMARK                            x       y       z     vdW  Elec       q    Type
REMARK                         _______ _______ _______ _____ _____    ______ ____
ROOT
ATOM      1  C   UNL     1       5.762   3.994  16.007  0.00  0.00    +0.000 A 
ATOM      2  C   UNL     1       6.587   4.926  16.635  0.00  0.00    +0.000 A 
ATOM      3  C   UNL     1       6.142   5.594  17.770  0.00  0.00    +0.000 A 
ATOM      4  C   UNL     1       4.856   5.362  18.274  0.00  0.00    +0.000 A 
ATOM      5  C   UNL     1       3.980   4.459  17.621  0.00  0.00    +0.000 A 
ATOM      6  C   UNL     1       4.465   3.773  16.494  0.00  0.00    +0.000 A 
ATOM      7  C   UNL     1       2.560   4.394  18.150  0.00  0.00    +0.000 C 
ATOM      8  C   UNL     1       1.318   3.764  17.556  0.00  0.00    +0.000 C 
ATOM      9  C   UNL     1       1.626   5.180  17.210  0.00  0.00    +0.000 C 
ATOM     10  C   UNL     1       2.527   4.553  19.662  0.00  0.00    +0.000 C 
ATOM     11  N   UNL     1       3.083   5.856  20.016  0.00  0.00    +0.000 N 
ATOM     12  C   UNL     1       2.219   6.915  20.217  0.00  0.00    +0.000 A 
ATOM     13  C   UNL     1       1.277   6.847  21.390  0.00  0.00    +0.000 A 
ATOM     14  C   UNL     1       0.452   7.874  21.622  0.00  0.00    +0.000 A 
ATOM     15  C   UNL     1       0.472   8.967  20.740  0.00  0.00    +0.000 A 
ATOM     16  N   UNL     1      -0.227  10.080  20.679  0.00  0.00    +0.000 NA
ATOM     17  N   UNL     1       0.159  10.750  19.535  0.00  0.00    +0.000 NA
ATOM     18  C   UNL     1       1.080  10.024  18.927  0.00  0.00    +0.000 A 
ATOM     19  C   UNL     1       1.721  10.287  17.624  0.00  0.00    +0.000 C 
ATOM     20  N   UNL     1       1.346   8.907  19.677  0.00  0.00    +0.000 N 
ATOM     21  N   UNL     1       2.259   7.931  19.402  0.00  0.00    +0.000 NA
ATOM     22  C   UNL     1       4.452   6.094  19.543  0.00  0.00    +0.000 C 
ENDROOT
BRANCH   1  24
ATOM     23  C   UNL     1       6.342   4.066  13.712  0.00  0.00    +0.000 C 
ATOM     24  O   UNL     1       6.105   3.289  14.884  0.00  0.00    +0.000 OA
ENDBRANCH   1  24
TORSDOF 1
ENDMDL
MODEL 5
REMARK VINA RESULT:      -5.9      2.483      4.097
REMARK  Name = 
REMARK  3 active torsions:
REMARK  status: ('A' for Active; 'I' for Inactive)
REMARK    1  A    between atoms: C_1  and  O_2
REMARK    2  A    between atoms: O_2  and  C_3
REMARK    3  A    between atoms: C_20  and  C_21
REMARK                            x       y       z     vdW  Elec       q    Type
REMARK                         _______ _______ _______ _____ _____    ______ ____
ROOT
ATOM      1  C   UNL     1       7.383   4.865  14.058  0.00  0.00    +0.000 A 
ATOM      2  C   UNL     1       6.380   3.966  13.695  0.00  0.00    +0.000 A 
ATOM      3  C   UNL     1       5.193   3.924  14.417  0.00  0.00    +0.000 A 
ATOM      4  C   UNL     1       5.005   4.755  15.529  0.00  0.00    +0.000 A 
ATOM      5  C   UNL     1       6.032   5.637  15.948  0.00  0.00    +0.000 A 
ATOM      6  C   UNL     1       7.210   5.685  15.183  0.00  0.00    +0.000 A 
ATOM      7  C   UNL     1       5.795   6.380  17.250  0.00  0.00    +0.000 C 
ATOM      8  C   UNL     1       6.749   7.176  18.114  0.00  0.00    +0.000 C 
ATOM      9  C   UNL     1       6.610   5.715  18.375  0.00  0.00    +0.000 C 
ATOM     10  C   UNL     1       4.331   6.759  17.409  0.00  0.00    +0.000 C 
ATOM     11  N   UNL     1       3.524   5.543  17.428  0.00  0.00    +0.000 N 
ATOM     12  C   UNL     1       3.173   4.996  18.647  0.00  0.00    +0.000 A 
ATOM     13  C   UNL     1       2.250   5.784  19.538  0.00  0.00    +0.000 A 
ATOM     14  C   UNL     1       1.873   5.263  20.710  0.00  0.00    +0.000 A 
ATOM     15  C   UNL     1       2.381   4.008  21.083  0.00  0.00    +0.000 A 
ATOM     16  N   UNL     1       2.234   3.268  22.161  0.00  0.00    +0.000 NA
ATOM     17  N   UNL     1       3.050   2.163  22.020  0.00  0.00    +0.000 NA
ATOM     18  C   UNL     1       3.677   2.263  20.862  0.00  0.00    +0.000 A 
ATOM     19  C   UNL     1       4.717   1.368  20.320  0.00  0.00    +0.000 C 
ATOM     20  N   UNL     1       3.250   3.392  20.211  0.00  0.00    +0.000 N 
ATOM     21  N   UNL     1       3.638   3.823  18.975  0.00  0.00    +0.000 NA
ATOM     22  C   UNL     1       3.666   4.686  16.244  0.00  0.00    +0.000 C 
ENDROOT
BRANCH   1  24
ATOM     23  C   UNL     1       8.709   6.084  12.519  0.00  0.00    +0.000 C 
ATOM     24  O   UNL     1       8.587   4.981  13.415  0.00  0.00    +0.000 OA
ENDBRANCH   1  24
TORSDOF 1
ENDMDL
MODEL 6
REMARK VINA RESULT:      -5.9     10.421     13.020
REMARK  Name = 
REMARK  3 active torsions:
REMARK  status: ('A' for Active; 'I' for Inactive)
REMARK    1  A    between atoms: C_1  and  O_2
REMARK    2  A    between atoms: O_2  and  C_3
REMARK    3  A    between atoms: C_20  and  C_21
REMARK                            x       y       z     vdW  Elec       q    Type
REMARK                         _______ _______ _______ _____ _____    ______ ____
ROOT
ATOM      1  C   UNL     1      -5.127  12.490  21.440  0.00  0.00    +0.000 A 
ATOM      2  C   UNL     1      -5.109  12.270  20.063  0.00  0.00    +0.000 A 
ATOM      3  C   UNL     1      -3.908  12.330  19.366  0.00  0.00    +0.000 A 
ATOM      4  C   UNL     1      -2.714  12.641  20.030  0.00  0.00    +0.000 A 
ATOM      5  C   UNL     1      -2.717  12.922  21.419  0.00  0.00    +0.000 A 
ATOM      6  C   UNL     1      -3.939  12.824  22.107  0.00  0.00    +0.000 A 
ATOM      7  C   UNL     1      -1.406  13.400  22.015  0.00  0.00    +0.000 C 
ATOM      8  C   UNL     1      -1.108  14.026  23.360  0.00  0.00    +0.000 C 
ATOM      9  C   UNL     1      -1.464  14.925  22.226  0.00  0.00    +0.000 C 
ATOM     10  C   UNL     1      -0.220  12.706  21.363  0.00  0.00    +0.000 C 
ATOM     11  N   UNL     1      -0.210  13.017  19.937  0.00  0.00    +0.000 N 
ATOM     12  C   UNL     1       0.577  14.060  19.489  0.00  0.00    +0.000 A 
ATOM     13  C   UNL     1       2.072  13.921  19.607  0.00  0.00    +0.000 A 
ATOM     14  C   UNL     1       2.856  14.905  19.153  0.00  0.00    +0.000 A 
ATOM     15  C   UNL     1       2.251  16.051  18.612  0.00  0.00    +0.000 A 
ATOM     16  N   UNL     1       2.736  17.176  18.132  0.00  0.00    +0.000 NA
ATOM     17  N   UNL     1       1.665  17.992  17.824  0.00  0.00    +0.000 NA
ATOM     18  C   UNL     1       0.556  17.343  18.130  0.00  0.00    +0.000 A 
ATOM     19  C   UNL     1      -0.829  17.846  18.063  0.00  0.00    +0.000 C 
ATOM     20  N   UNL     1       0.875  16.091  18.589  0.00  0.00    +0.000 N 
ATOM     21  N   UNL     1       0.005  15.112  18.973  0.00  0.00    +0.000 NA
ATOM     22  C   UNL     1      -1.432  12.646  19.214  0.00  0.00    +0.000 C 
ENDROOT
BRANCH   1  24
ATOM     23  C   UNL     1      -6.927  13.706  22.386  0.00  0.00    +0.000 C 
ATOM     24  O   UNL     1      -6.257  12.458  22.214  0.00  0.00    +0.000 OA
ENDBRANCH   1  24
TORSDOF 1
ENDMDL
MODEL 7
REMARK VINA RESULT:      -5.8      3.098      4.965
REMARK  Name = 
REMARK  3 active torsions:
REMARK  status: ('A' for Active; 'I' for Inactive)
REMARK    1  A    between atoms: C_1  and  O_2
REMARK    2  A    between atoms: O_2  and  C_3
REMARK    3  A    between atoms: C_20  and  C_21
REMARK                            x       y       z     vdW  Elec       q    Type
REMARK                         _______ _______ _______ _____ _____    ______ ____
ROOT
ATOM      1  C   UNL     1       6.455   4.047  14.814  0.00  0.00    +0.000 A 
ATOM      2  C   UNL     1       7.220   5.044  15.420  0.00  0.00    +0.000 A 
ATOM      3  C   UNL     1       6.864   5.525  16.675  0.00  0.00    +0.000 A 
ATOM      4  C   UNL     1       5.722   5.040  17.326  0.00  0.00    +0.000 A 
ATOM      5  C   UNL     1       4.900   4.068  16.705  0.00  0.00    +0.000 A 
ATOM      6  C   UNL     1       5.299   3.574  15.450  0.00  0.00    +0.000 A 
ATOM      7  C   UNL     1       3.606   3.722  17.418  0.00  0.00    +0.000 C 
ATOM      8  C   UNL     1       2.395   2.951  16.937  0.00  0.00    +0.000 C 
ATOM      9  C   UNL     1       2.429   4.424  16.714  0.00  0.00    +0.000 C 
ATOM     10  C   UNL     1       3.787   3.739  18.927  0.00  0.00    +0.000 C 
ATOM     11  N   UNL     1       4.191   5.078  19.344  0.00  0.00    +0.000 N 
ATOM     12  C   UNL     1       3.221   5.959  19.784  0.00  0.00    +0.000 A 
ATOM     13  C   UNL     1       2.494   5.632  21.061  0.00  0.00    +0.000 A 
ATOM     14  C   UNL     1       1.572   6.484  21.522  0.00  0.00    +0.000 A 
ATOM     15  C   UNL     1       1.290   7.639  20.775  0.00  0.00    +0.000 A 
ATOM     16  N   UNL     1       0.432   8.623  20.938  0.00  0.00    +0.000 NA
ATOM     17  N   UNL     1       0.529   9.447  19.834  0.00  0.00    +0.000 NA
ATOM     18  C   UNL     1       1.441   8.939  19.025  0.00  0.00    +0.000 A 
ATOM     19  C   UNL     1       1.823   9.420  17.683  0.00  0.00    +0.000 C 
ATOM     20  N   UNL     1       1.985   7.819  19.600  0.00  0.00    +0.000 N 
ATOM     21  N   UNL     1       2.980   7.036  19.090  0.00  0.00    +0.000 NA
ATOM     22  C   UNL     1       5.418   5.580  18.714  0.00  0.00    +0.000 C 
ENDROOT
BRANCH   1  24
ATOM     23  C   UNL     1       5.620   3.467  12.675  0.00  0.00    +0.000 C 
ATOM     24  O   UNL     1       6.720   3.512  13.582  0.00  0.00    +0.000 OA
ENDBRANCH   1  24
TORSDOF 1
ENDMDL
MODEL 8
REMARK VINA RESULT:      -5.8     10.620     12.928
REMARK  Name = 
REMARK  3 active torsions:
REMARK  status: ('A' for Active; 'I' for Inactive)
REMARK    1  A    between atoms: C_1  and  O_2
REMARK    2  A    between atoms: O_2  and  C_3
REMARK    3  A    between atoms: C_20  and  C_21
REMARK                            x       y       z     vdW  Elec       q    Type
REMARK                         _______ _______ _______ _____ _____    ______ ____
ROOT
ATOM      1  C   UNL     1      -1.574  15.942  25.525  0.00  0.00    +0.000 A 
ATOM      2  C   UNL     1      -1.167  16.708  24.433  0.00  0.00    +0.000 A 
ATOM      3  C   UNL     1      -1.759  16.514  23.190  0.00  0.00    +0.000 A 
ATOM      4  C   UNL     1      -2.742  15.531  23.015  0.00  0.00    +0.000 A 
ATOM      5  C   UNL     1      -3.132  14.705  24.098  0.00  0.00    +0.000 A 
ATOM      6  C   UNL     1      -2.542  14.941  25.351  0.00  0.00    +0.000 A 
ATOM      7  C   UNL     1      -4.086  13.570  23.772  0.00  0.00    +0.000 C 
ATOM      8  C   UNL     1      -4.497  12.366  24.592  0.00  0.00    +0.000 C 
ATOM      9  C   UNL     1      -3.304  12.245  23.708  0.00  0.00    +0.000 C 
ATOM     10  C   UNL     1      -5.090  13.983  22.707  0.00  0.00    +0.000 C 
ATOM     11  N   UNL     1      -4.372  14.336  21.487  0.00  0.00    +0.000 N 
ATOM     12  C   UNL     1      -4.222  13.378  20.502  0.00  0.00    +0.000 A 
ATOM     13  C   UNL     1      -5.459  12.890  19.796  0.00  0.00    +0.000 A 
ATOM     14  C   UNL     1      -5.336  11.984  18.819  0.00  0.00    +0.000 A 
ATOM     15  C   UNL     1      -4.055  11.495  18.512  0.00  0.00    +0.000 A 
ATOM     16  N   UNL     1      -3.623  10.596  17.654  0.00  0.00    +0.000 NA
ATOM     17  N   UNL     1      -2.265  10.452  17.853  0.00  0.00    +0.000 NA
ATOM     18  C   UNL     1      -1.906  11.265  18.830  0.00  0.00    +0.000 A 
ATOM     19  C   UNL     1      -0.575  11.391  19.454  0.00  0.00    +0.000 C 
ATOM     20  N   UNL     1      -2.998  11.982  19.248  0.00  0.00    +0.000 N 
ATOM     21  N   UNL     1      -3.027  12.945  20.214  0.00  0.00    +0.000 NA
ATOM     22  C   UNL     1      -3.377  15.404  21.640  0.00  0.00    +0.000 C 
ENDROOT
BRANCH   1  24
ATOM     23  C   UNL     1       0.237  16.661  26.872  0.00  0.00    +0.000 C 
ATOM     24  O   UNL     1      -1.051  16.053  26.786  0.00  0.00    +0.000 OA
ENDBRANCH   1  24
TORSDOF 1
ENDMDL
MODEL 9
REMARK VINA RESULT:      -5.8     10.027     12.533
REMARK  Name = 
REMARK  3 active torsions:
REMARK  status: ('A' for Active; 'I' for Inactive)
REMARK    1  A    between atoms: C_1  and  O_2
REMARK    2  A    between atoms: O_2  and  C_3
REMARK    3  A    between atoms: C_20  and  C_21
REMARK                            x       y       z     vdW  Elec       q    Type
REMARK                         _______ _______ _______ _____ _____    ______ ____
ROOT
ATOM      1  C   UNL     1      -4.897  11.322  17.909  0.00  0.00    +0.000 A 
ATOM      2  C   UNL     1      -4.039  11.214  16.814  0.00  0.00    +0.000 A 
ATOM      3  C   UNL     1      -2.683  11.477  16.967  0.00  0.00    +0.000 A 
ATOM      4  C   UNL     1      -2.170  11.880  18.207  0.00  0.00    +0.000 A 
ATOM      5  C   UNL     1      -3.032  12.050  19.319  0.00  0.00    +0.000 A 
ATOM      6  C   UNL     1      -4.394  11.748  19.148  0.00  0.00    +0.000 A 
ATOM      7  C   UNL     1      -2.410  12.639  20.572  0.00  0.00    +0.000 C 
ATOM      8  C   UNL     1      -3.057  13.190  21.824  0.00  0.00    +0.000 C 
ATOM      9  C   UNL     1      -2.803  14.123  20.690  0.00  0.00    +0.000 C 
ATOM     10  C   UNL     1      -0.982  12.150  20.760  0.00  0.00    +0.000 C 
ATOM     11  N   UNL     1      -0.180  12.570  19.615  0.00  0.00    +0.000 N 
ATOM     12  C   UNL     1       0.557  13.735  19.711  0.00  0.00    +0.000 A 
ATOM     13  C   UNL     1       1.696  13.773  20.695  0.00  0.00    +0.000 A 
ATOM     14  C   UNL     1       2.442  14.879  20.785  0.00  0.00    +0.000 A 
ATOM     15  C   UNL     1       2.113  15.981  19.978  0.00  0.00    +0.000 A 
ATOM     16  N   UNL     1       2.617  17.191  19.867  0.00  0.00    +0.000 NA
ATOM     17  N   UNL     1       1.828  17.889  18.974  0.00  0.00    +0.000 NA
ATOM     18  C   UNL     1       0.861  17.086  18.569  0.00  0.00    +0.000 A 
ATOM     19  C   UNL     1      -0.274  17.416  17.686  0.00  0.00    +0.000 C 
ATOM     20  N   UNL     1       1.027  15.851  19.141  0.00  0.00    +0.000 N 
ATOM     21  N   UNL     1       0.253  14.744  18.944  0.00  0.00    +0.000 NA
ATOM     22  C   UNL     1      -0.671  12.108  18.311  0.00  0.00    +0.000 C 
ENDROOT
BRANCH   1  24
ATOM     23  C   UNL     1      -6.792  10.373  18.966  0.00  0.00    +0.000 C 
ATOM     24  O   UNL     1      -6.246  11.090  17.861  0.00  0.00    +0.000 OA
ENDBRANCH   1  24
TORSDOF 1
ENDMDL
