MODEL 1
REMARK VINA RESULT:      -7.8      0.000      0.000
REMARK  Name = 
REMARK  5 active torsions:
REMARK  status: ('A' for Active; 'I' for Inactive)
REMARK    1  A    between atoms: C_1  and  N_2
REMARK    2  A    between atoms: C_6  and  C_7
REMARK    3  A    between atoms: C_7  and  C_8
REMARK    4  A    between atoms: C_8  and  C_9
REMARK    5  A    between atoms: C_13  and  N_14
REMARK                            x       y       z     vdW  Elec       q    Type
REMARK                         _______ _______ _______ _____ _____    ______ ____
ROOT
ATOM      1  C   UNL     1       5.329   6.392  18.085  0.00  0.00    +0.000 A 
ATOM      2  C   UNL     1       4.637   7.442  17.456  0.00  0.00    +0.000 A 
ATOM      3  C   UNL     1       3.240   7.507  17.469  0.00  0.00    +0.000 A 
ATOM      4  C   UNL     1       2.493   6.516  18.098  0.00  0.00    +0.000 A 
ATOM      5  C   UNL     1       3.132   5.469  18.761  0.00  0.00    +0.000 A 
ATOM      6  C   UNL     1       4.534   5.450  18.770  0.00  0.00    +0.000 A 
ENDROOT
BRANCH   5   7
ATOM      7  N   UNL     1       2.391   4.374  19.289  0.00  0.00    +0.000 N 
ATOM      8  C   UNL     1       2.750   3.752  20.586  0.00  0.00    +0.000 C 
ATOM      9  N   UNL     1       2.896   2.317  20.318  0.00  0.00    +0.000 N 
ATOM     10  C   UNL     1       4.170   1.734  19.956  0.00  0.00    +0.000 C 
ATOM     11  C   UNL     1       3.474   1.377  18.654  0.00  0.00    +0.000 C 
ATOM     12  C   UNL     1       2.476   2.181  19.082  0.00  0.00    +0.000 C 
ATOM     13  C   UNL     1       1.963   3.384  18.365  0.00  0.00    +0.000 C 
ATOM     14  O   UNL     1       1.531   3.505  17.230  0.00  0.00    +0.000 OA
ENDBRANCH   5   7
BRANCH   1  15
ATOM     15  C   UNL     1       6.927   6.180  17.970  0.00  0.00    +0.000 C 
ATOM     16  C   UNL     1       7.772   7.398  17.480  0.00  0.00    +0.000 C 
ATOM     17  O   UNL     1       8.533   7.439  18.705  0.00  0.00    +0.000 OA
ATOM     18  C   UNL     1       7.730   6.397  19.284  0.00  0.00    +0.000 C 
BRANCH  15  19
ATOM     19  C   UNL     1       7.283   4.848  17.276  0.00  0.00    +0.000 C 
BRANCH  19  25
ATOM     20  C   UNL     1       4.813   3.482  15.883  0.00  0.00    +0.000 C 
ATOM     21  N   UNL     1       5.879   4.201  15.239  0.00  0.00    +0.000 N 
ATOM     22  C   UNL     1       5.999   4.388  13.897  0.00  0.00    +0.000 A 
ATOM     23  N   UNL     1       7.096   5.063  13.645  0.00  0.00    +0.000 NA
ATOM     24  N   UNL     1       7.715   5.311  14.846  0.00  0.00    +0.000 NA
ATOM     25  C   UNL     1       6.970   4.809  15.813  0.00  0.00    +0.000 A 
ENDBRANCH  19  25
ENDBRANCH  15  19
ENDBRANCH   1  15
TORSDOF 4
ENDMDL
MODEL 2
REMARK VINA RESULT:      -7.8      1.113      1.395
REMARK  Name = 
REMARK  5 active torsions:
REMARK  status: ('A' for Active; 'I' for Inactive)
REMARK    1  A    between atoms: C_1  and  N_2
REMARK    2  A    between atoms: C_6  and  C_7
REMARK    3  A    between atoms: C_7  and  C_8
REMARK    4  A    between atoms: C_8  and  C_9
REMARK    5  A    between atoms: C_13  and  N_14
REMARK                            x       y       z     vdW  Elec       q    Type
REMARK                         _______ _______ _______ _____ _____    ______ ____
ROOT
ATOM      1  C   UNL     1       5.456   6.224  18.265  0.00  0.00    +0.000 A 
ATOM      2  C   UNL     1       4.579   7.005  17.492  0.00  0.00    +0.000 A 
ATOM      3  C   UNL     1       3.191   6.917  17.648  0.00  0.00    +0.000 A 
ATOM      4  C   UNL     1       2.640   6.033  18.570  0.00  0.00    +0.000 A 
ATOM      5  C   UNL     1       3.467   5.258  19.382  0.00  0.00    +0.000 A 
ATOM      6  C   UNL     1       4.855   5.397  19.236  0.00  0.00    +0.000 A 
ENDROOT
BRANCH   5   7
ATOM      7  N   UNL     1       2.926   4.250  20.230  0.00  0.00    +0.000 N 
ATOM      8  C   UNL     1       3.383   2.842  20.144  0.00  0.00    +0.000 C 
ATOM      9  N   UNL     1       2.170   2.035  19.972  0.00  0.00    +0.000 N 
ATOM     10  C   UNL     1       1.656   1.700  18.661  0.00  0.00    +0.000 C 
ATOM     11  C   UNL     1       0.438   2.498  19.091  0.00  0.00    +0.000 C 
ATOM     12  C   UNL     1       1.191   2.893  20.142  0.00  0.00    +0.000 C 
ATOM     13  C   UNL     1       1.530   4.305  20.484  0.00  0.00    +0.000 C 
ATOM     14  O   UNL     1       0.807   5.267  20.682  0.00  0.00    +0.000 OA
ENDBRANCH   5   7
BRANCH   1  15
ATOM     15  C   UNL     1       7.052   6.169  18.023  0.00  0.00    +0.000 C 
ATOM     16  C   UNL     1       7.733   7.462  17.471  0.00  0.00    +0.000 C 
ATOM     17  O   UNL     1       8.581   7.582  18.631  0.00  0.00    +0.000 OA
ATOM     18  C   UNL     1       7.932   6.469  19.269  0.00  0.00    +0.000 C 
BRANCH  15  19
ATOM     19  C   UNL     1       7.480   4.874  17.299  0.00  0.00    +0.000 C 
BRANCH  19  25
ATOM     20  C   UNL     1       4.910   3.465  16.153  0.00  0.00    +0.000 C 
ATOM     21  N   UNL     1       5.917   4.168  15.403  0.00  0.00    +0.000 N 
ATOM     22  C   UNL     1       5.925   4.317  14.052  0.00  0.00    +0.000 A 
ATOM     23  N   UNL     1       6.994   4.988  13.691  0.00  0.00    +0.000 NA
ATOM     24  N   UNL     1       7.709   5.271  14.830  0.00  0.00    +0.000 NA
ATOM     25  C   UNL     1       7.048   4.794  15.868  0.00  0.00    +0.000 A 
ENDBRANCH  19  25
ENDBRANCH  15  19
ENDBRANCH   1  15
TORSDOF 4
ENDMDL
MODEL 3
REMARK VINA RESULT:      -7.6      2.120      3.295
REMARK  Name = 
REMARK  5 active torsions:
REMARK  status: ('A' for Active; 'I' for Inactive)
REMARK    1  A    between atoms: C_1  and  N_2
REMARK    2  A    between atoms: C_6  and  C_7
REMARK    3  A    between atoms: C_7  and  C_8
REMARK    4  A    between atoms: C_8  and  C_9
REMARK    5  A    between atoms: C_13  and  N_14
REMARK                            x       y       z     vdW  Elec       q    Type
REMARK                         _______ _______ _______ _____ _____    ______ ____
ROOT
ATOM      1  C   UNL     1       4.642   5.953  16.831  0.00  0.00    +0.000 A 
ATOM      2  C   UNL     1       4.394   7.333  16.734  0.00  0.00    +0.000 A 
ATOM      3  C   UNL     1       3.376   7.946  17.473  0.00  0.00    +0.000 A 
ATOM      4  C   UNL     1       2.567   7.193  18.318  0.00  0.00    +0.000 A 
ATOM      5  C   UNL     1       2.792   5.826  18.472  0.00  0.00    +0.000 A 
ATOM      6  C   UNL     1       3.846   5.244  17.753  0.00  0.00    +0.000 A 
ENDROOT
BRANCH   5   7
ATOM      7  N   UNL     1       1.892   5.014  19.221  0.00  0.00    +0.000 N 
ATOM      8  C   UNL     1       2.118   4.736  20.660  0.00  0.00    +0.000 C 
ATOM      9  N   UNL     1       2.081   3.276  20.798  0.00  0.00    +0.000 N 
ATOM     10  C   UNL     1       3.278   2.469  20.697  0.00  0.00    +0.000 C 
ATOM     11  C   UNL     1       2.588   1.852  19.493  0.00  0.00    +0.000 C 
ATOM     12  C   UNL     1       1.691   2.855  19.617  0.00  0.00    +0.000 C 
ATOM     13  C   UNL     1       1.369   3.866  18.569  0.00  0.00    +0.000 C 
ATOM     14  O   UNL     1       0.998   3.721  17.416  0.00  0.00    +0.000 OA
ENDBRANCH   5   7
BRANCH   1  15
ATOM     15  C   UNL     1       5.696   5.167  15.890  0.00  0.00    +0.000 C 
ATOM     16  C   UNL     1       5.532   3.618  15.779  0.00  0.00    +0.000 C 
ATOM     17  O   UNL     1       5.321   3.684  14.354  0.00  0.00    +0.000 OA
ATOM     18  C   UNL     1       5.341   5.121  14.378  0.00  0.00    +0.000 C 
BRANCH  15  19
ATOM     19  C   UNL     1       7.147   5.631  16.141  0.00  0.00    +0.000 C 
BRANCH  19  25
ATOM     20  C   UNL     1       7.897   8.203  17.793  0.00  0.00    +0.000 C 
ATOM     21  N   UNL     1       7.855   6.848  18.274  0.00  0.00    +0.000 N 
ATOM     22  C   UNL     1       8.161   6.458  19.541  0.00  0.00    +0.000 A 
ATOM     23  N   UNL     1       8.044   5.154  19.638  0.00  0.00    +0.000 NA
ATOM     24  N   UNL     1       7.668   4.679  18.405  0.00  0.00    +0.000 NA
ATOM     25  C   UNL     1       7.533   5.704  17.584  0.00  0.00    +0.000 A 
ENDBRANCH  19  25
ENDBRANCH  15  19
ENDBRANCH   1  15
TORSDOF 4
ENDMDL
MODEL 4
REMARK VINA RESULT:      -7.6      2.230      3.458
REMARK  Name = 
REMARK  5 active torsions:
REMARK  status: ('A' for Active; 'I' for Inactive)
REMARK    1  A    between atoms: C_1  and  N_2
REMARK    2  A    between atoms: C_6  and  C_7
REMARK    3  A    between atoms: C_7  and  C_8
REMARK    4  A    between atoms: C_8  and  C_9
REMARK    5  A    between atoms: C_13  and  N_14
REMARK                            x       y       z     vdW  Elec       q    Type
REMARK                         _______ _______ _______ _____ _____    ______ ____
ROOT
ATOM      1  C   UNL     1       4.713   5.524  16.724  0.00  0.00    +0.000 A 
ATOM      2  C   UNL     1       4.388   6.880  16.904  0.00  0.00    +0.000 A 
ATOM      3  C   UNL     1       3.299   7.273  17.689  0.00  0.00    +0.000 A 
ATOM      4  C   UNL     1       2.493   6.320  18.305  0.00  0.00    +0.000 A 
ATOM      5  C   UNL     1       2.790   4.964  18.182  0.00  0.00    +0.000 A 
ATOM      6  C   UNL     1       3.913   4.598  17.425  0.00  0.00    +0.000 A 
ENDROOT
BRANCH   5   7
ATOM      7  N   UNL     1       1.903   3.970  18.685  0.00  0.00    +0.000 N 
ATOM      8  C   UNL     1       0.961   4.265  19.792  0.00  0.00    +0.000 C 
ATOM      9  N   UNL     1       1.200   3.235  20.810  0.00  0.00    +0.000 N 
ATOM     10  C   UNL     1       2.151   3.430  21.883  0.00  0.00    +0.000 C 
ATOM     11  C   UNL     1       2.876   2.248  21.264  0.00  0.00    +0.000 C 
ATOM     12  C   UNL     1       2.025   2.397  20.225  0.00  0.00    +0.000 C 
ATOM     13  C   UNL     1       2.418   2.653  18.810  0.00  0.00    +0.000 C 
ATOM     14  O   UNL     1       3.162   2.029  18.069  0.00  0.00    +0.000 OA
ENDBRANCH   5   7
BRANCH   1  15
ATOM     15  C   UNL     1       5.858   5.007  15.708  0.00  0.00    +0.000 C 
ATOM     16  C   UNL     1       5.910   3.475  15.415  0.00  0.00    +0.000 C 
ATOM     17  O   UNL     1       5.681   3.676  14.005  0.00  0.00    +0.000 OA
ATOM     18  C   UNL     1       5.502   5.090  14.197  0.00  0.00    +0.000 C 
BRANCH  15  19
ATOM     19  C   UNL     1       7.233   5.635  16.024  0.00  0.00    +0.000 C 
BRANCH  19  25
ATOM     20  C   UNL     1       7.885   8.194  17.736  0.00  0.00    +0.000 C 
ATOM     21  N   UNL     1       7.847   6.832  18.198  0.00  0.00    +0.000 N 
ATOM     22  C   UNL     1       8.113   6.428  19.469  0.00  0.00    +0.000 A 
ATOM     23  N   UNL     1       8.011   5.122  19.545  0.00  0.00    +0.000 NA
ATOM     24  N   UNL     1       7.687   4.658  18.293  0.00  0.00    +0.000 NA
ATOM     25  C   UNL     1       7.566   5.693  17.481  0.00  0.00    +0.000 A 
ENDBRANCH  19  25
ENDBRANCH  15  19
ENDBRANCH   1  15
TORSDOF 4
ENDMDL
MODEL 5
REMARK VINA RESULT:      -7.5      2.019      3.143
REMARK  Name = 
REMARK  5 active torsions:
REMARK  status: ('A' for Active; 'I' for Inactive)
REMARK    1  A    between atoms: C_1  and  N_2
REMARK    2  A    between atoms: C_6  and  C_7
REMARK    3  A    between atoms: C_7  and  C_8
REMARK    4  A    between atoms: C_8  and  C_9
REMARK    5  A    between atoms: C_13  and  N_14
REMARK                            x       y       z     vdW  Elec       q    Type
REMARK                         _______ _______ _______ _____ _____    ______ ____
ROOT
ATOM      1  C   UNL     1       4.573   5.755  17.118  0.00  0.00    +0.000 A 
ATOM      2  C   UNL     1       4.323   7.125  16.921  0.00  0.00    +0.000 A 
ATOM      3  C   UNL     1       3.283   7.780  17.589  0.00  0.00    +0.000 A 
ATOM      4  C   UNL     1       2.454   7.082  18.462  0.00  0.00    +0.000 A 
ATOM      5  C   UNL     1       2.679   5.731  18.714  0.00  0.00    +0.000 A 
ATOM      6  C   UNL     1       3.754   5.106  18.065  0.00  0.00    +0.000 A 
ENDROOT
BRANCH   5   7
ATOM      7  N   UNL     1       1.763   4.967  19.492  0.00  0.00    +0.000 N 
ATOM      8  C   UNL     1       1.962   4.771  20.948  0.00  0.00    +0.000 C 
ATOM      9  N   UNL     1       1.915   3.321  21.170  0.00  0.00    +0.000 N 
ATOM     10  C   UNL     1       3.110   2.505  21.137  0.00  0.00    +0.000 C 
ATOM     11  C   UNL     1       2.438   1.822  19.958  0.00  0.00    +0.000 C 
ATOM     12  C   UNL     1       1.544   2.835  20.008  0.00  0.00    +0.000 C 
ATOM     13  C   UNL     1       1.246   3.785  18.898  0.00  0.00    +0.000 C 
ATOM     14  O   UNL     1       0.895   3.575  17.748  0.00  0.00    +0.000 OA
ENDBRANCH   5   7
BRANCH   1  15
ATOM     15  C   UNL     1       5.654   4.913  16.261  0.00  0.00    +0.000 C 
ATOM     16  C   UNL     1       5.187   3.542  15.678  0.00  0.00    +0.000 C 
ATOM     17  O   UNL     1       5.432   3.969  14.322  0.00  0.00    +0.000 OA
ATOM     18  C   UNL     1       5.767   5.297  14.759  0.00  0.00    +0.000 C 
BRANCH  15  19
ATOM     19  C   UNL     1       7.030   4.864  16.961  0.00  0.00    +0.000 C 
BRANCH  19  25
ATOM     20  C   UNL     1       7.920   5.669  19.870  0.00  0.00    +0.000 C 
ATOM     21  N   UNL     1       7.917   6.510  18.704  0.00  0.00    +0.000 N 
ATOM     22  C   UNL     1       8.286   7.819  18.682  0.00  0.00    +0.000 A 
ATOM     23  N   UNL     1       8.142   8.295  17.467  0.00  0.00    +0.000 NA
ATOM     24  N   UNL     1       7.654   7.280  16.680  0.00  0.00    +0.000 NA
ATOM     25  C   UNL     1       7.537   6.194  17.421  0.00  0.00    +0.000 A 
ENDBRANCH  19  25
ENDBRANCH  15  19
ENDBRANCH   1  15
TORSDOF 4
ENDMDL
MODEL 6
REMARK VINA RESULT:      -7.3      1.404      1.751
REMARK  Name = 
REMARK  5 active torsions:
REMARK  status: ('A' for Active; 'I' for Inactive)
REMARK    1  A    between atoms: C_1  and  N_2
REMARK    2  A    between atoms: C_6  and  C_7
REMARK    3  A    between atoms: C_7  and  C_8
REMARK    4  A    between atoms: C_8  and  C_9
REMARK    5  A    between atoms: C_13  and  N_14
REMARK                            x       y       z     vdW  Elec       q    Type
REMARK                         _______ _______ _______ _____ _____    ______ ____
ROOT
ATOM      1  C   UNL     1       4.757   5.892  17.441  0.00  0.00    +0.000 A 
ATOM      2  C   UNL     1       4.447   7.204  17.042  0.00  0.00    +0.000 A 
ATOM      3  C   UNL     1       3.260   7.828  17.442  0.00  0.00    +0.000 A 
ATOM      4  C   UNL     1       2.342   7.152  18.240  0.00  0.00    +0.000 A 
ATOM      5  C   UNL     1       2.616   5.861  18.686  0.00  0.00    +0.000 A 
ATOM      6  C   UNL     1       3.831   5.273  18.307  0.00  0.00    +0.000 A 
ENDROOT
BRANCH   5   7
ATOM      7  N   UNL     1       1.633   5.102  19.384  0.00  0.00    +0.000 N 
ATOM      8  C   UNL     1       1.666   4.969  20.860  0.00  0.00    +0.000 C 
ATOM      9  N   UNL     1       1.627   3.528  21.136  0.00  0.00    +0.000 N 
ATOM     10  C   UNL     1       2.837   2.746  21.275  0.00  0.00    +0.000 C 
ATOM     11  C   UNL     1       2.324   1.999  20.056  0.00  0.00    +0.000 C 
ATOM     12  C   UNL     1       1.406   2.987  19.960  0.00  0.00    +0.000 C 
ATOM     13  C   UNL     1       1.217   3.885  18.784  0.00  0.00    +0.000 C 
ATOM     14  O   UNL     1       1.008   3.620  17.611  0.00  0.00    +0.000 OA
ENDBRANCH   5   7
BRANCH   1  15
ATOM     15  C   UNL     1       6.031   5.067  16.886  0.00  0.00    +0.000 C 
ATOM     16  C   UNL     1       7.417   5.785  16.932  0.00  0.00    +0.000 C 
ATOM     17  O   UNL     1       7.977   4.775  17.796  0.00  0.00    +0.000 OA
ATOM     18  C   UNL     1       6.708   4.110  17.907  0.00  0.00    +0.000 C 
BRANCH  15  19
ATOM     19  C   UNL     1       5.725   4.373  15.542  0.00  0.00    +0.000 C 
BRANCH  19  25
ATOM     20  C   UNL     1       5.646   3.354  12.565  0.00  0.00    +0.000 C 
ATOM     21  N   UNL     1       6.580   4.288  13.134  0.00  0.00    +0.000 N 
ATOM     22  C   UNL     1       7.609   4.872  12.464  0.00  0.00    +0.000 A 
ATOM     23  N   UNL     1       8.279   5.651  13.281  0.00  0.00    +0.000 NA
ATOM     24  N   UNL     1       7.685   5.562  14.517  0.00  0.00    +0.000 NA
ATOM     25  C   UNL     1       6.644   4.755  14.425  0.00  0.00    +0.000 A 
ENDBRANCH  19  25
ENDBRANCH  15  19
ENDBRANCH   1  15
TORSDOF 4
ENDMDL
MODEL 7
REMARK VINA RESULT:      -7.2      4.562      7.022
REMARK  Name = 
REMARK  5 active torsions:
REMARK  status: ('A' for Active; 'I' for Inactive)
REMARK    1  A    between atoms: C_1  and  N_2
REMARK    2  A    between atoms: C_6  and  C_7
REMARK    3  A    between atoms: C_7  and  C_8
REMARK    4  A    between atoms: C_8  and  C_9
REMARK    5  A    between atoms: C_13  and  N_14
REMARK                            x       y       z     vdW  Elec       q    Type
REMARK                         _______ _______ _______ _____ _____    ______ ____
ROOT
ATOM      1  C   UNL     1       1.657   8.249  19.763  0.00  0.00    +0.000 A 
ATOM      2  C   UNL     1       2.153   8.614  18.499  0.00  0.00    +0.000 A 
ATOM      3  C   UNL     1       2.895   7.721  17.719  0.00  0.00    +0.000 A 
ATOM      4  C   UNL     1       3.175   6.441  18.187  0.00  0.00    +0.000 A 
ATOM      5  C   UNL     1       2.681   6.020  19.420  0.00  0.00    +0.000 A 
ATOM      6  C   UNL     1       1.904   6.920  20.164  0.00  0.00    +0.000 A 
ENDROOT
BRANCH   5   7
ATOM      7  N   UNL     1       3.071   4.769  19.979  0.00  0.00    +0.000 N 
ATOM      8  C   UNL     1       4.338   4.109  19.584  0.00  0.00    +0.000 C 
ATOM      9  N   UNL     1       3.971   2.750  19.167  0.00  0.00    +0.000 N 
ATOM     10  C   UNL     1       3.652   2.434  17.791  0.00  0.00    +0.000 C 
ATOM     11  C   UNL     1       2.282   2.076  18.340  0.00  0.00    +0.000 C 
ATOM     12  C   UNL     1       2.702   2.652  19.489  0.00  0.00    +0.000 C 
ATOM     13  C   UNL     1       2.047   3.805  20.171  0.00  0.00    +0.000 C 
ATOM     14  O   UNL     1       0.897   3.948  20.557  0.00  0.00    +0.000 OA
ENDBRANCH   5   7
BRANCH   1  15
ATOM     15  C   UNL     1       0.931   9.283  20.770  0.00  0.00    +0.000 C 
ATOM     16  C   UNL     1      -0.373   8.793  21.475  0.00  0.00    +0.000 C 
ATOM     17  O   UNL     1       0.206   8.952  22.787  0.00  0.00    +0.000 OA
ATOM     18  C   UNL     1       1.481   9.303  22.224  0.00  0.00    +0.000 C 
BRANCH  15  19
ATOM     19  C   UNL     1       0.824  10.698  20.163  0.00  0.00    +0.000 C 
BRANCH  19  25
ATOM     20  C   UNL     1      -1.546  12.478  21.220  0.00  0.00    +0.000 C 
ATOM     21  N   UNL     1      -1.491  11.765  19.972  0.00  0.00    +0.000 N 
ATOM     22  C   UNL     1      -2.486  11.731  19.045  0.00  0.00    +0.000 A 
ATOM     23  N   UNL     1      -2.122  10.972  18.038  0.00  0.00    +0.000 NA
ATOM     24  N   UNL     1      -0.868  10.486  18.319  0.00  0.00    +0.000 NA
ATOM     25  C   UNL     1      -0.476  10.981  19.478  0.00  0.00    +0.000 A 
ENDBRANCH  19  25
ENDBRANCH  15  19
ENDBRANCH   1  15
TORSDOF 4
ENDMDL
MODEL 8
REMARK VINA RESULT:      -7.2      5.136      7.699
REMARK  Name = 
REMARK  5 active torsions:
REMARK  status: ('A' for Active; 'I' for Inactive)
REMARK    1  A    between atoms: C_1  and  N_2
REMARK    2  A    between atoms: C_6  and  C_7
REMARK    3  A    between atoms: C_7  and  C_8
REMARK    4  A    between atoms: C_8  and  C_9
REMARK    5  A    between atoms: C_13  and  N_14
REMARK                            x       y       z     vdW  Elec       q    Type
REMARK                         _______ _______ _______ _____ _____    ______ ____
ROOT
ATOM      1  C   UNL     1       1.359   8.797  19.993  0.00  0.00    +0.000 A 
ATOM      2  C   UNL     1       1.517   9.265  18.677  0.00  0.00    +0.000 A 
ATOM      3  C   UNL     1       2.176   8.504  17.705  0.00  0.00    +0.000 A 
ATOM      4  C   UNL     1       2.709   7.260  18.025  0.00  0.00    +0.000 A 
ATOM      5  C   UNL     1       2.553   6.738  19.308  0.00  0.00    +0.000 A 
ATOM      6  C   UNL     1       1.852   7.502  20.252  0.00  0.00    +0.000 A 
ENDROOT
BRANCH   5   7
ATOM      7  N   UNL     1       3.209   5.535  19.695  0.00  0.00    +0.000 N 
ATOM      8  C   UNL     1       4.621   5.272  19.326  0.00  0.00    +0.000 C 
ATOM      9  N   UNL     1       4.627   3.963  18.664  0.00  0.00    +0.000 N 
ATOM     10  C   UNL     1       4.476   3.833  17.230  0.00  0.00    +0.000 C 
ATOM     11  C   UNL     1       3.209   3.071  17.576  0.00  0.00    +0.000 C 
ATOM     12  C   UNL     1       3.406   3.513  18.838  0.00  0.00    +0.000 C 
ATOM     13  C   UNL     1       2.447   4.338  19.628  0.00  0.00    +0.000 C 
ATOM     14  O   UNL     1       1.279   4.136  19.916  0.00  0.00    +0.000 OA
ENDBRANCH   5   7
BRANCH   1  15
ATOM     15  C   UNL     1       0.748   9.692  21.192  0.00  0.00    +0.000 C 
ATOM     16  C   UNL     1      -0.545   9.162  21.887  0.00  0.00    +0.000 C 
ATOM     17  O   UNL     1       0.108   9.080  23.171  0.00  0.00    +0.000 OA
ATOM     18  C   UNL     1       1.372   9.451  22.595  0.00  0.00    +0.000 C 
BRANCH  15  19
ATOM     19  C   UNL     1       0.695  11.190  20.821  0.00  0.00    +0.000 C 
BRANCH  19  25
ATOM     20  C   UNL     1      -1.158  12.754  22.828  0.00  0.00    +0.000 C 
ATOM     21  N   UNL     1      -1.465  12.395  21.470  0.00  0.00    +0.000 N 
ATOM     22  C   UNL     1      -2.637  12.663  20.835  0.00  0.00    +0.000 A 
ATOM     23  N   UNL     1      -2.597  12.180  19.615  0.00  0.00    +0.000 NA
ATOM     24  N   UNL     1      -1.377  11.568  19.453  0.00  0.00    +0.000 NA
ATOM     25  C   UNL     1      -0.683  11.715  20.566  0.00  0.00    +0.000 A 
ENDBRANCH  19  25
ENDBRANCH  15  19
ENDBRANCH   1  15
TORSDOF 4
ENDMDL
MODEL 9
REMARK VINA RESULT:      -7.1      1.113      1.694
REMARK  Name = 
REMARK  5 active torsions:
REMARK  status: ('A' for Active; 'I' for Inactive)
REMARK    1  A    between atoms: C_1  and  N_2
REMARK    2  A    between atoms: C_6  and  C_7
REMARK    3  A    between atoms: C_7  and  C_8
REMARK    4  A    between atoms: C_8  and  C_9
REMARK    5  A    between atoms: C_13  and  N_14
REMARK                            x       y       z     vdW  Elec       q    Type
REMARK                         _______ _______ _______ _____ _____    ______ ____
ROOT
ATOM      1  C   UNL     1       4.994   6.379  17.754  0.00  0.00    +0.000 A 
ATOM      2  C   UNL     1       4.434   7.570  17.259  0.00  0.00    +0.000 A 
ATOM      3  C   UNL     1       3.103   7.914  17.517  0.00  0.00    +0.000 A 
ATOM      4  C   UNL     1       2.288   7.069  18.264  0.00  0.00    +0.000 A 
ATOM      5  C   UNL     1       2.803   5.892  18.802  0.00  0.00    +0.000 A 
ATOM      6  C   UNL     1       4.152   5.590  18.565  0.00  0.00    +0.000 A 
ENDROOT
BRANCH   5   7
ATOM      7  N   UNL     1       1.955   4.948  19.449  0.00  0.00    +0.000 N 
ATOM      8  C   UNL     1       2.211   4.507  20.841  0.00  0.00    +0.000 C 
ATOM      9  N   UNL     1       2.250   3.041  20.799  0.00  0.00    +0.000 N 
ATOM     10  C   UNL     1       3.486   2.317  20.594  0.00  0.00    +0.000 C 
ATOM     11  C   UNL     1       2.816   1.817  19.326  0.00  0.00    +0.000 C 
ATOM     12  C   UNL     1       1.870   2.749  19.577  0.00  0.00    +0.000 C 
ATOM     13  C   UNL     1       1.485   3.863  18.663  0.00  0.00    +0.000 C 
ATOM     14  O   UNL     1       1.110   3.841  17.502  0.00  0.00    +0.000 OA
ENDBRANCH   5   7
BRANCH   1  15
ATOM     15  C   UNL     1       6.471   5.855  17.360  0.00  0.00    +0.000 C 
ATOM     16  C   UNL     1       7.621   6.140  18.377  0.00  0.00    +0.000 C 
ATOM     17  O   UNL     1       7.892   4.734  18.555  0.00  0.00    +0.000 OA
ATOM     18  C   UNL     1       6.777   4.374  17.721  0.00  0.00    +0.000 C 
BRANCH  15  19
ATOM     19  C   UNL     1       6.829   6.190  15.896  0.00  0.00    +0.000 C 
BRANCH  19  25
ATOM     20  C   UNL     1       8.227   5.461  13.172  0.00  0.00    +0.000 C 
ATOM     21  N   UNL     1       7.039   4.863  13.720  0.00  0.00    +0.000 N 
ATOM     22  C   UNL     1       6.309   3.884  13.124  0.00  0.00    +0.000 A 
ATOM     23  N   UNL     1       5.278   3.583  13.879  0.00  0.00    +0.000 NA
ATOM     24  N   UNL     1       5.326   4.394  14.987  0.00  0.00    +0.000 NA
ATOM     25  C   UNL     1       6.402   5.154  14.903  0.00  0.00    +0.000 A 
ENDBRANCH  19  25
ENDBRANCH  15  19
ENDBRANCH   1  15
TORSDOF 4
ENDMDL
