MODEL 1
REMARK VINA RESULT:      -8.9      0.000      0.000
REMARK  Name = 
REMARK  2 active torsions:
REMARK  status: ('A' for Active; 'I' for Inactive)
REMARK    1  A    between atoms: N_16  and  C_17
REMARK    2  A    between atoms: C_17  and  C_18
REMARK                            x       y       z     vdW  Elec       q    Type
REMARK                         _______ _______ _______ _____ _____    ______ ____
ROOT
ATOM      1  O   UNL     1       4.707   7.138  15.975  0.00  0.00    +0.000 OA
ATOM      2  C   UNL     1       4.495   6.655  17.075  0.00  0.00    +0.000 C 
ATOM      3  N   UNL     1       3.246   6.624  17.650  0.00  0.00    +0.000 N 
ATOM      4  C   UNL     1       3.200   5.783  18.829  0.00  0.00    +0.000 C 
ATOM      5  C   UNL     1       2.534   6.558  19.967  0.00  0.00    +0.000 C 
ATOM      6  C   UNL     1       2.265   5.689  21.188  0.00  0.00    +0.000 C 
ATOM      7  C   UNL     1       1.392   4.488  20.843  0.00  0.00    +0.000 C 
ATOM      8  C   UNL     1       1.788   3.784  19.569  0.00  0.00    +0.000 A 
ATOM      9  C   UNL     1       1.328   2.469  19.372  0.00  0.00    +0.000 A 
ATOM     10  C   UNL     1       1.637   1.770  18.207  0.00  0.00    +0.000 A 
ATOM     11  C   UNL     1       2.384   2.386  17.212  0.00  0.00    +0.000 A 
ATOM     12  C   UNL     1       2.835   3.695  17.387  0.00  0.00    +0.000 A 
ATOM     13  C   UNL     1       2.556   4.416  18.570  0.00  0.00    +0.000 A 
ATOM     14  C   UNL     1       4.734   5.573  19.020  0.00  0.00    +0.000 C 
ATOM     15  O   UNL     1       5.263   4.995  19.962  0.00  0.00    +0.000 OA
ATOM     16  N   UNL     1       5.371   6.017  17.895  0.00  0.00    +0.000 N 
ATOM     17  H   UNL     1       2.436   6.946  17.136  0.00  0.00    +0.000 HD
ENDROOT
BRANCH  16  18
ATOM     18  C   UNL     1       6.629   5.462  17.437  0.00  0.00    +0.000 C 
BRANCH  18  19
ATOM     19  C   UNL     1       6.607   4.983  16.032  0.00  0.00    +0.000 A 
ATOM     20  C   UNL     1       5.900   3.967  15.417  0.00  0.00    +0.000 A 
ATOM     21  N   UNL     1       6.311   3.968  14.105  0.00  0.00    +0.000 N 
ATOM     22  C   UNL     1       5.972   3.115  13.056  0.00  0.00    +0.000 A 
ATOM     23  C   UNL     1       6.573   3.273  11.862  0.00  0.00    +0.000 A 
ATOM     24  C   UNL     1       7.553   4.338  11.699  0.00  0.00    +0.000 A 
ATOM     25  C   UNL     1       7.847   5.182  12.707  0.00  0.00    +0.000 A 
ATOM     26  C   UNL     1       7.220   5.011  13.972  0.00  0.00    +0.000 A 
ATOM     27  N   UNL     1       7.377   5.657  15.104  0.00  0.00    +0.000 NA
ENDBRANCH  18  19
ENDBRANCH  16  18
TORSDOF 2
ENDMDL
MODEL 2
REMARK VINA RESULT:      -8.1      0.582      1.171
REMARK  Name = 
REMARK  2 active torsions:
REMARK  status: ('A' for Active; 'I' for Inactive)
REMARK    1  A    between atoms: N_16  and  C_17
REMARK    2  A    between atoms: C_17  and  C_18
REMARK                            x       y       z     vdW  Elec       q    Type
REMARK                         _______ _______ _______ _____ _____    ______ ____
ROOT
ATOM      1  O   UNL     1       4.833   7.081  15.800  0.00  0.00    +0.000 OA
ATOM      2  C   UNL     1       4.566   6.679  16.920  0.00  0.00    +0.000 C 
ATOM      3  N   UNL     1       3.291   6.695  17.437  0.00  0.00    +0.000 N 
ATOM      4  C   UNL     1       3.183   5.940  18.669  0.00  0.00    +0.000 C 
ATOM      5  C   UNL     1       2.471   6.797  19.717  0.00  0.00    +0.000 C 
ATOM      6  C   UNL     1       2.138   6.019  20.981  0.00  0.00    +0.000 C 
ATOM      7  C   UNL     1       1.271   4.802  20.681  0.00  0.00    +0.000 C 
ATOM      8  C   UNL     1       1.719   4.007  19.480  0.00  0.00    +0.000 A 
ATOM      9  C   UNL     1       1.257   2.684  19.354  0.00  0.00    +0.000 A 
ATOM     10  C   UNL     1       1.613   1.903  18.258  0.00  0.00    +0.000 A 
ATOM     11  C   UNL     1       2.411   2.442  17.257  0.00  0.00    +0.000 A 
ATOM     12  C   UNL     1       2.866   3.758  17.361  0.00  0.00    +0.000 A 
ATOM     13  C   UNL     1       2.539   4.562  18.476  0.00  0.00    +0.000 A 
ATOM     14  C   UNL     1       4.704   5.735  18.946  0.00  0.00    +0.000 C 
ATOM     15  O   UNL     1       5.183   5.222  19.950  0.00  0.00    +0.000 OA
ATOM     16  N   UNL     1       5.397   6.094  17.824  0.00  0.00    +0.000 N 
ATOM     17  H   UNL     1       2.509   6.986  16.864  0.00  0.00    +0.000 HD
ENDROOT
BRANCH  16  18
ATOM     18  C   UNL     1       6.670   5.501  17.466  0.00  0.00    +0.000 C 
BRANCH  18  19
ATOM     19  C   UNL     1       6.768   5.084  16.045  0.00  0.00    +0.000 A 
ATOM     20  C   UNL     1       7.633   5.460  15.033  0.00  0.00    +0.000 A 
ATOM     21  N   UNL     1       7.225   4.765  13.918  0.00  0.00    +0.000 N 
ATOM     22  C   UNL     1       7.699   4.811  12.608  0.00  0.00    +0.000 A 
ATOM     23  C   UNL     1       7.079   4.082  11.661  0.00  0.00    +0.000 A 
ATOM     24  C   UNL     1       5.938   3.260  12.036  0.00  0.00    +0.000 A 
ATOM     25  C   UNL     1       5.511   3.191  13.312  0.00  0.00    +0.000 A 
ATOM     26  C   UNL     1       6.158   3.967  14.312  0.00  0.00    +0.000 A 
ATOM     27  N   UNL     1       5.898   4.112  15.591  0.00  0.00    +0.000 NA
ENDBRANCH  18  19
ENDBRANCH  16  18
TORSDOF 2
ENDMDL
MODEL 3
REMARK VINA RESULT:      -7.6      4.948      8.192
REMARK  Name = 
REMARK  2 active torsions:
REMARK  status: ('A' for Active; 'I' for Inactive)
REMARK    1  A    between atoms: N_16  and  C_17
REMARK    2  A    between atoms: C_17  and  C_18
REMARK                            x       y       z     vdW  Elec       q    Type
REMARK                         _______ _______ _______ _____ _____    ______ ____
ROOT
ATOM      1  O   UNL     1       0.463   8.674  22.417  0.00  0.00    +0.000 OA
ATOM      2  C   UNL     1       0.343   9.180  21.314  0.00  0.00    +0.000 C 
ATOM      3  N   UNL     1      -0.492  10.244  21.065  0.00  0.00    +0.000 N 
ATOM      4  C   UNL     1      -0.275  10.826  19.756  0.00  0.00    +0.000 C 
ATOM      5  C   UNL     1      -1.623  10.977  19.048  0.00  0.00    +0.000 C 
ATOM      6  C   UNL     1      -1.516  11.758  17.747  0.00  0.00    +0.000 C 
ATOM      7  C   UNL     1      -0.928  13.146  17.970  0.00  0.00    +0.000 C 
ATOM      8  C   UNL     1       0.269  13.168  18.887  0.00  0.00    +0.000 A 
ATOM      9  C   UNL     1       1.113  14.293  18.845  0.00  0.00    +0.000 A 
ATOM     10  C   UNL     1       2.222  14.388  19.682  0.00  0.00    +0.000 A 
ATOM     11  C   UNL     1       2.486  13.375  20.594  0.00  0.00    +0.000 A 
ATOM     12  C   UNL     1       1.649  12.259  20.658  0.00  0.00    +0.000 A 
ATOM     13  C   UNL     1       0.534  12.128  19.802  0.00  0.00    +0.000 A 
ATOM     14  C   UNL     1       0.633   9.707  19.156  0.00  0.00    +0.000 C 
ATOM     15  O   UNL     1       1.032   9.657  18.000  0.00  0.00    +0.000 OA
ATOM     16  N   UNL     1       1.017   8.876  20.172  0.00  0.00    +0.000 N 
ATOM     17  H   UNL     1      -0.992  10.692  21.823  0.00  0.00    +0.000 HD
ENDROOT
BRANCH  16  18
ATOM     18  C   UNL     1       2.270   8.150  20.157  0.00  0.00    +0.000 C 
BRANCH  18  19
ATOM     19  C   UNL     1       2.145   6.729  19.747  0.00  0.00    +0.000 A 
ATOM     20  C   UNL     1       2.439   6.084  18.559  0.00  0.00    +0.000 A 
ATOM     21  N   UNL     1       2.088   4.769  18.753  0.00  0.00    +0.000 N 
ATOM     22  C   UNL     1       2.111   3.693  17.867  0.00  0.00    +0.000 A 
ATOM     23  C   UNL     1       1.640   2.499  18.273  0.00  0.00    +0.000 A 
ATOM     24  C   UNL     1       1.129   2.366  19.630  0.00  0.00    +0.000 A 
ATOM     25  C   UNL     1       1.147   3.401  20.492  0.00  0.00    +0.000 A 
ATOM     26  C   UNL     1       1.635   4.665  20.062  0.00  0.00    +0.000 A 
ATOM     27  N   UNL     1       1.703   5.818  20.686  0.00  0.00    +0.000 NA
ENDBRANCH  18  19
ENDBRANCH  16  18
TORSDOF 2
ENDMDL
MODEL 4
REMARK VINA RESULT:      -7.5      3.021      7.296
REMARK  Name = 
REMARK  2 active torsions:
REMARK  status: ('A' for Active; 'I' for Inactive)
REMARK    1  A    between atoms: N_16  and  C_17
REMARK    2  A    between atoms: C_17  and  C_18
REMARK                            x       y       z     vdW  Elec       q    Type
REMARK                         _______ _______ _______ _____ _____    ______ ____
ROOT
ATOM      1  O   UNL     1       1.457   4.650  18.365  0.00  0.00    +0.000 OA
ATOM      2  C   UNL     1       2.593   5.093  18.341  0.00  0.00    +0.000 C 
ATOM      3  N   UNL     1       3.709   4.301  18.476  0.00  0.00    +0.000 N 
ATOM      4  C   UNL     1       4.933   5.010  18.161  0.00  0.00    +0.000 C 
ATOM      5  C   UNL     1       5.944   4.781  19.286  0.00  0.00    +0.000 C 
ATOM      6  C   UNL     1       7.325   5.325  18.952  0.00  0.00    +0.000 C 
ATOM      7  C   UNL     1       7.877   4.711  17.670  0.00  0.00    +0.000 C 
ATOM      8  C   UNL     1       6.877   4.630  16.545  0.00  0.00    +0.000 A 
ATOM      9  C   UNL     1       7.367   4.464  15.237  0.00  0.00    +0.000 A 
ATOM     10  C   UNL     1       6.497   4.359  14.154  0.00  0.00    +0.000 A 
ATOM     11  C   UNL     1       5.125   4.387  14.367  0.00  0.00    +0.000 A 
ATOM     12  C   UNL     1       4.624   4.536  15.661  0.00  0.00    +0.000 A 
ATOM     13  C   UNL     1       5.486   4.672  16.772  0.00  0.00    +0.000 A 
ATOM     14  C   UNL     1       4.354   6.459  18.117  0.00  0.00    +0.000 C 
ATOM     15  O   UNL     1       5.009   7.484  17.980  0.00  0.00    +0.000 OA
ATOM     16  N   UNL     1       2.989   6.375  18.117  0.00  0.00    +0.000 N 
ATOM     17  H   UNL     1       3.620   3.295  18.532  0.00  0.00    +0.000 HD
ENDROOT
BRANCH  16  18
ATOM     18  C   UNL     1       2.145   7.371  17.489  0.00  0.00    +0.000 C 
BRANCH  18  19
ATOM     19  C   UNL     1       1.670   8.434  18.410  0.00  0.00    +0.000 A 
ATOM     20  C   UNL     1       1.562   8.477  19.788  0.00  0.00    +0.000 A 
ATOM     21  N   UNL     1       1.027   9.710  20.081  0.00  0.00    +0.000 N 
ATOM     22  C   UNL     1       0.649  10.257  21.306  0.00  0.00    +0.000 A 
ATOM     23  C   UNL     1       0.071  11.472  21.330  0.00  0.00    +0.000 A 
ATOM     24  C   UNL     1      -0.134  12.183  20.076  0.00  0.00    +0.000 A 
ATOM     25  C   UNL     1       0.270  11.663  18.900  0.00  0.00    +0.000 A 
ATOM     26  C   UNL     1       0.873  10.376  18.871  0.00  0.00    +0.000 A 
ATOM     27  N   UNL     1       1.292   9.645  17.865  0.00  0.00    +0.000 NA
ENDBRANCH  18  19
ENDBRANCH  16  18
TORSDOF 2
ENDMDL
MODEL 5
REMARK VINA RESULT:      -7.5      2.885      7.394
REMARK  Name = 
REMARK  2 active torsions:
REMARK  status: ('A' for Active; 'I' for Inactive)
REMARK    1  A    between atoms: N_16  and  C_17
REMARK    2  A    between atoms: C_17  and  C_18
REMARK                            x       y       z     vdW  Elec       q    Type
REMARK                         _______ _______ _______ _____ _____    ______ ____
ROOT
ATOM      1  O   UNL     1       1.485   4.810  18.353  0.00  0.00    +0.000 OA
ATOM      2  C   UNL     1       2.633   5.221  18.326  0.00  0.00    +0.000 C 
ATOM      3  N   UNL     1       3.727   4.398  18.466  0.00  0.00    +0.000 N 
ATOM      4  C   UNL     1       4.970   5.070  18.147  0.00  0.00    +0.000 C 
ATOM      5  C   UNL     1       5.974   4.818  19.273  0.00  0.00    +0.000 C 
ATOM      6  C   UNL     1       7.371   5.321  18.936  0.00  0.00    +0.000 C 
ATOM      7  C   UNL     1       7.905   4.683  17.658  0.00  0.00    +0.000 C 
ATOM      8  C   UNL     1       6.902   4.625  16.533  0.00  0.00    +0.000 A 
ATOM      9  C   UNL     1       7.387   4.437  15.226  0.00  0.00    +0.000 A 
ATOM     10  C   UNL     1       6.515   4.349  14.144  0.00  0.00    +0.000 A 
ATOM     11  C   UNL     1       5.144   4.419  14.357  0.00  0.00    +0.000 A 
ATOM     12  C   UNL     1       4.647   4.590  15.650  0.00  0.00    +0.000 A 
ATOM     13  C   UNL     1       5.513   4.707  16.760  0.00  0.00    +0.000 A 
ATOM     14  C   UNL     1       4.433   6.534  18.094  0.00  0.00    +0.000 C 
ATOM     15  O   UNL     1       5.117   7.540  17.951  0.00  0.00    +0.000 OA
ATOM     16  N   UNL     1       3.066   6.489  18.094  0.00  0.00    +0.000 N 
ATOM     17  H   UNL     1       3.609   3.395  18.528  0.00  0.00    +0.000 HD
ENDROOT
BRANCH  16  18
ATOM     18  C   UNL     1       2.250   7.505  17.460  0.00  0.00    +0.000 C 
BRANCH  18  19
ATOM     19  C   UNL     1       1.606   8.448  18.410  0.00  0.00    +0.000 A 
ATOM     20  C   UNL     1       0.950   9.648  18.211  0.00  0.00    +0.000 A 
ATOM     21  N   UNL     1       0.592  10.088  19.464  0.00  0.00    +0.000 N 
ATOM     22  C   UNL     1      -0.033  11.271  19.857  0.00  0.00    +0.000 A 
ATOM     23  C   UNL     1      -0.213  11.513  21.169  0.00  0.00    +0.000 A 
ATOM     24  C   UNL     1       0.243  10.527  22.138  0.00  0.00    +0.000 A 
ATOM     25  C   UNL     1       0.811   9.369  21.748  0.00  0.00    +0.000 A 
ATOM     26  C   UNL     1       1.010   9.115  20.364  0.00  0.00    +0.000 A 
ATOM     27  N   UNL     1       1.580   8.106  19.747  0.00  0.00    +0.000 NA
ENDBRANCH  18  19
ENDBRANCH  16  18
TORSDOF 2
ENDMDL
MODEL 6
REMARK VINA RESULT:      -7.4      9.032     12.064
REMARK  Name = 
REMARK  2 active torsions:
REMARK  status: ('A' for Active; 'I' for Inactive)
REMARK    1  A    between atoms: N_16  and  C_17
REMARK    2  A    between atoms: C_17  and  C_18
REMARK                            x       y       z     vdW  Elec       q    Type
REMARK                         _______ _______ _______ _____ _____    ______ ____
ROOT
ATOM      1  O   UNL     1      -2.770  15.862  21.144  0.00  0.00    +0.000 OA
ATOM      2  C   UNL     1      -3.585  14.955  21.125  0.00  0.00    +0.000 C 
ATOM      3  N   UNL     1      -4.422  14.724  20.058  0.00  0.00    +0.000 N 
ATOM      4  C   UNL     1      -5.113  13.454  20.161  0.00  0.00    +0.000 C 
ATOM      5  C   UNL     1      -6.606  13.679  19.912  0.00  0.00    +0.000 C 
ATOM      6  C   UNL     1      -7.384  12.375  19.806  0.00  0.00    +0.000 C 
ATOM      7  C   UNL     1      -6.836  11.481  18.700  0.00  0.00    +0.000 C 
ATOM      8  C   UNL     1      -5.331  11.390  18.669  0.00  0.00    +0.000 A 
ATOM      9  C   UNL     1      -4.750  10.313  17.976  0.00  0.00    +0.000 A 
ATOM     10  C   UNL     1      -3.366  10.183  17.887  0.00  0.00    +0.000 A 
ATOM     11  C   UNL     1      -2.545  11.142  18.465  0.00  0.00    +0.000 A 
ATOM     12  C   UNL     1      -3.108  12.224  19.143  0.00  0.00    +0.000 A 
ATOM     13  C   UNL     1      -4.507  12.365  19.268  0.00  0.00    +0.000 A 
ATOM     14  C   UNL     1      -4.762  13.122  21.645  0.00  0.00    +0.000 C 
ATOM     15  O   UNL     1      -5.195  12.171  22.283  0.00  0.00    +0.000 OA
ATOM     16  N   UNL     1      -3.789  13.989  22.059  0.00  0.00    +0.000 N 
ATOM     17  H   UNL     1      -4.335  15.270  19.211  0.00  0.00    +0.000 HD
ENDROOT
BRANCH  16  18
ATOM     18  C   UNL     1      -2.812  13.641  23.071  0.00  0.00    +0.000 C 
BRANCH  18  19
ATOM     19  C   UNL     1      -1.806  12.643  22.628  0.00  0.00    +0.000 A 
ATOM     20  C   UNL     1      -0.759  12.728  21.729  0.00  0.00    +0.000 A 
ATOM     21  N   UNL     1      -0.189  11.477  21.701  0.00  0.00    +0.000 N 
ATOM     22  C   UNL     1       0.857  10.983  20.923  0.00  0.00    +0.000 A 
ATOM     23  C   UNL     1       1.190   9.683  21.023  0.00  0.00    +0.000 A 
ATOM     24  C   UNL     1       0.454   8.833  21.949  0.00  0.00    +0.000 A 
ATOM     25  C   UNL     1      -0.529   9.328  22.726  0.00  0.00    +0.000 A 
ATOM     26  C   UNL     1      -0.889  10.699  22.615  0.00  0.00    +0.000 A 
ATOM     27  N   UNL     1      -1.832  11.392  23.211  0.00  0.00    +0.000 NA
ENDBRANCH  18  19
ENDBRANCH  16  18
TORSDOF 2
ENDMDL
MODEL 7
REMARK VINA RESULT:      -7.4      4.863      7.990
REMARK  Name = 
REMARK  2 active torsions:
REMARK  status: ('A' for Active; 'I' for Inactive)
REMARK    1  A    between atoms: N_16  and  C_17
REMARK    2  A    between atoms: C_17  and  C_18
REMARK                            x       y       z     vdW  Elec       q    Type
REMARK                         _______ _______ _______ _____ _____    ______ ____
ROOT
ATOM      1  O   UNL     1       0.592   8.549  22.298  0.00  0.00    +0.000 OA
ATOM      2  C   UNL     1       0.428   9.079  21.211  0.00  0.00    +0.000 C 
ATOM      3  N   UNL     1      -0.408  10.155  21.023  0.00  0.00    +0.000 N 
ATOM      4  C   UNL     1      -0.244  10.761  19.716  0.00  0.00    +0.000 C 
ATOM      5  C   UNL     1      -1.621  10.938  19.074  0.00  0.00    +0.000 C 
ATOM      6  C   UNL     1      -1.566  11.745  17.785  0.00  0.00    +0.000 C 
ATOM      7  C   UNL     1      -0.954  13.123  18.009  0.00  0.00    +0.000 C 
ATOM      8  C   UNL     1       0.284  13.115  18.870  0.00  0.00    +0.000 A 
ATOM      9  C   UNL     1       1.136  14.233  18.811  0.00  0.00    +0.000 A 
ATOM     10  C   UNL     1       2.282  14.301  19.599  0.00  0.00    +0.000 A 
ATOM     11  C   UNL     1       2.577  13.267  20.478  0.00  0.00    +0.000 A 
ATOM     12  C   UNL     1       1.734  12.158  20.558  0.00  0.00    +0.000 A 
ATOM     13  C   UNL     1       0.579  12.054  19.751  0.00  0.00    +0.000 A 
ATOM     14  C   UNL     1       0.624   9.647  19.054  0.00  0.00    +0.000 C 
ATOM     15  O   UNL     1       0.970   9.616  17.880  0.00  0.00    +0.000 OA
ATOM     16  N   UNL     1       1.045   8.792  20.034  0.00  0.00    +0.000 N 
ATOM     17  H   UNL     1      -0.868  10.592  21.811  0.00  0.00    +0.000 HD
ENDROOT
BRANCH  16  18
ATOM     18  C   UNL     1       2.289   8.055  19.948  0.00  0.00    +0.000 C 
BRANCH  18  19
ATOM     19  C   UNL     1       2.119   6.598  19.718  0.00  0.00    +0.000 A 
ATOM     20  C   UNL     1       1.719   5.574  20.558  0.00  0.00    +0.000 A 
ATOM     21  N   UNL     1       1.780   4.427  19.801  0.00  0.00    +0.000 N 
ATOM     22  C   UNL     1       1.548   3.100  20.160  0.00  0.00    +0.000 A 
ATOM     23  C   UNL     1       1.747   2.130  19.249  0.00  0.00    +0.000 A 
ATOM     24  C   UNL     1       2.190   2.497  17.911  0.00  0.00    +0.000 A 
ATOM     25  C   UNL     1       2.375   3.785  17.561  0.00  0.00    +0.000 A 
ATOM     26  C   UNL     1       2.174   4.811  18.525  0.00  0.00    +0.000 A 
ATOM     27  N   UNL     1       2.339   6.111  18.445  0.00  0.00    +0.000 NA
ENDBRANCH  18  19
ENDBRANCH  16  18
TORSDOF 2
ENDMDL
MODEL 8
REMARK VINA RESULT:      -7.4      4.499      6.409
REMARK  Name = 
REMARK  2 active torsions:
REMARK  status: ('A' for Active; 'I' for Inactive)
REMARK    1  A    between atoms: N_16  and  C_17
REMARK    2  A    between atoms: C_17  and  C_18
REMARK                            x       y       z     vdW  Elec       q    Type
REMARK                         _______ _______ _______ _____ _____    ______ ____
ROOT
ATOM      1  O   UNL     1       2.817   8.784  17.055  0.00  0.00    +0.000 OA
ATOM      2  C   UNL     1       2.156   9.248  17.969  0.00  0.00    +0.000 C 
ATOM      3  N   UNL     1       1.696  10.544  17.977  0.00  0.00    +0.000 N 
ATOM      4  C   UNL     1       0.732  10.783  19.033  0.00  0.00    +0.000 C 
ATOM      5  C   UNL     1       1.132  12.048  19.794  0.00  0.00    +0.000 C 
ATOM      6  C   UNL     1       0.073  12.488  20.795  0.00  0.00    +0.000 C 
ATOM      7  C   UNL     1      -1.272  12.732  20.120  0.00  0.00    +0.000 C 
ATOM      8  C   UNL     1      -1.664  11.670  19.124  0.00  0.00    +0.000 A 
ATOM      9  C   UNL     1      -3.018  11.579  18.755  0.00  0.00    +0.000 A 
ATOM     10  C   UNL     1      -3.444  10.637  17.822  0.00  0.00    +0.000 A 
ATOM     11  C   UNL     1      -2.518   9.793  17.224  0.00  0.00    +0.000 A 
ATOM     12  C   UNL     1      -1.169   9.881  17.569  0.00  0.00    +0.000 A 
ATOM     13  C   UNL     1      -0.716  10.811  18.531  0.00  0.00    +0.000 A 
ATOM     14  C   UNL     1       0.945   9.465  19.840  0.00  0.00    +0.000 C 
ATOM     15  O   UNL     1       0.426   9.197  20.916  0.00  0.00    +0.000 OA
ATOM     16  N   UNL     1       1.693   8.612  19.078  0.00  0.00    +0.000 N 
ATOM     17  H   UNL     1       1.838  11.144  17.175  0.00  0.00    +0.000 HD
ENDROOT
BRANCH  16  18
ATOM     18  C   UNL     1       1.584   7.171  19.181  0.00  0.00    +0.000 C 
BRANCH  18  19
ATOM     19  C   UNL     1       2.817   6.438  18.799  0.00  0.00    +0.000 A 
ATOM     20  C   UNL     1       4.063   6.361  19.394  0.00  0.00    +0.000 A 
ATOM     21  N   UNL     1       4.818   5.556  18.573  0.00  0.00    +0.000 N 
ATOM     22  C   UNL     1       6.162   5.195  18.657  0.00  0.00    +0.000 A 
ATOM     23  C   UNL     1       6.702   4.447  17.678  0.00  0.00    +0.000 A 
ATOM     24  C   UNL     1       5.864   4.029  16.563  0.00  0.00    +0.000 A 
ATOM     25  C   UNL     1       4.556   4.349  16.509  0.00  0.00    +0.000 A 
ATOM     26  C   UNL     1       3.986   5.148  17.538  0.00  0.00    +0.000 A 
ATOM     27  N   UNL     1       2.773   5.630  17.680  0.00  0.00    +0.000 NA
ENDBRANCH  18  19
ENDBRANCH  16  18
TORSDOF 2
ENDMDL
MODEL 9
REMARK VINA RESULT:      -7.4      3.955      7.091
REMARK  Name = 
REMARK  2 active torsions:
REMARK  status: ('A' for Active; 'I' for Inactive)
REMARK    1  A    between atoms: N_16  and  C_17
REMARK    2  A    between atoms: C_17  and  C_18
REMARK                            x       y       z     vdW  Elec       q    Type
REMARK                         _______ _______ _______ _____ _____    ______ ____
ROOT
ATOM      1  O   UNL     1       1.458   8.029  20.741  0.00  0.00    +0.000 OA
ATOM      2  C   UNL     1       2.225   7.493  19.958  0.00  0.00    +0.000 C 
ATOM      3  N   UNL     1       3.067   6.467  20.318  0.00  0.00    +0.000 N 
ATOM      4  C   UNL     1       3.688   5.831  19.173  0.00  0.00    +0.000 C 
ATOM      5  C   UNL     1       5.194   5.729  19.418  0.00  0.00    +0.000 C 
ATOM      6  C   UNL     1       5.904   4.900  18.356  0.00  0.00    +0.000 C 
ATOM      7  C   UNL     1       5.329   3.491  18.266  0.00  0.00    +0.000 C 
ATOM      8  C   UNL     1       3.822   3.436  18.289  0.00  0.00    +0.000 A 
ATOM      9  C   UNL     1       3.197   2.268  17.818  0.00  0.00    +0.000 A 
ATOM     10  C   UNL     1       1.810   2.143  17.834  0.00  0.00    +0.000 A 
ATOM     11  C   UNL     1       1.031   3.171  18.348  0.00  0.00    +0.000 A 
ATOM     12  C   UNL     1       1.638   4.330  18.833  0.00  0.00    +0.000 A 
ATOM     13  C   UNL     1       3.041   4.491  18.804  0.00  0.00    +0.000 A 
ATOM     14  C   UNL     1       3.293   6.880  18.087  0.00  0.00    +0.000 C 
ATOM     15  O   UNL     1       3.663   6.871  16.920  0.00  0.00    +0.000 OA
ATOM     16  N   UNL     1       2.360   7.723  18.624  0.00  0.00    +0.000 N 
ATOM     17  H   UNL     1       3.024   6.072  21.249  0.00  0.00    +0.000 HD
ENDROOT
BRANCH  16  18
ATOM     18  C   UNL     1       1.348   8.382  17.824  0.00  0.00    +0.000 C 
BRANCH  18  19
ATOM     19  C   UNL     1       1.132   9.809  18.170  0.00  0.00    +0.000 A 
ATOM     20  C   UNL     1       0.015  10.488  18.623  0.00  0.00    +0.000 A 
ATOM     21  N   UNL     1       0.401  11.802  18.741  0.00  0.00    +0.000 N 
ATOM     22  C   UNL     1      -0.341  12.929  19.094  0.00  0.00    +0.000 A 
ATOM     23  C   UNL     1       0.249  14.138  19.065  0.00  0.00    +0.000 A 
ATOM     24  C   UNL     1       1.649  14.232  18.675  0.00  0.00    +0.000 A 
ATOM     25  C   UNL     1       2.370  13.134  18.373  0.00  0.00    +0.000 A 
ATOM     26  C   UNL     1       1.745  11.857  18.394  0.00  0.00    +0.000 A 
ATOM     27  N   UNL     1       2.211  10.667  18.091  0.00  0.00    +0.000 NA
ENDBRANCH  18  19
ENDBRANCH  16  18
TORSDOF 2
ENDMDL
