MODEL 1
REMARK VINA RESULT:      -9.0      0.000      0.000
REMARK  Name = 
REMARK  5 active torsions:
REMARK  status: ('A' for Active; 'I' for Inactive)
REMARK    1  A    between atoms: C_1  and  C_2
REMARK    2  A    between atoms: C_4  and  N_5
REMARK    3  A    between atoms: N_5  and  C_6
REMARK    4  A    between atoms: C_12  and  C_13
REMARK    5  A    between atoms: C_13  and  C_14
REMARK                            x       y       z     vdW  Elec       q    Type
REMARK                         _______ _______ _______ _____ _____    ______ ____
ROOT
ATOM      1  C   UNL     1       1.549   5.636  19.778  0.00  0.00    +0.000 C 
ATOM      2  C   UNL     1       0.887   4.469  20.519  0.00  0.00    +0.000 C 
ATOM      3  C   UNL     1       1.876   3.552  21.230  0.00  0.00    +0.000 C 
ATOM      4  C   UNL     1       3.108   3.324  20.437  0.00  0.00    +0.000 A 
ATOM      5  N   UNL     1       4.016   2.392  20.626  0.00  0.00    +0.000 NA
ATOM      6  N   UNL     1       4.961   2.524  19.639  0.00  0.00    +0.000 NA
ATOM      7  C   UNL     1       4.621   3.536  18.863  0.00  0.00    +0.000 A 
ATOM      8  N   UNL     1       3.473   4.091  19.366  0.00  0.00    +0.000 N 
ATOM      9  C   UNL     1       2.678   5.173  18.832  0.00  0.00    +0.000 C 
ENDROOT
BRANCH   1  10
ATOM     10  N   UNL     1       1.995   6.672  20.720  0.00  0.00    +0.000 N 
ATOM     11  H   UNL     1       3.001   6.693  20.934  0.00  0.00    +0.000 HD
BRANCH  10  15
ATOM     12  C   UNL     1      -0.716  10.115  23.028  0.00  0.00    +0.000 C 
ATOM     13  C   UNL     1       0.149   9.742  21.850  0.00  0.00    +0.000 A 
ATOM     14  C   UNL     1       0.853   8.431  21.942  0.00  0.00    +0.000 A 
ATOM     15  C   UNL     1       1.429   7.954  20.823  0.00  0.00    +0.000 A 
ATOM     16  N   UNL     1       1.473   8.827  19.702  0.00  0.00    +0.000 N 
ATOM     17  N   UNL     1       2.034   8.622  18.480  0.00  0.00    +0.000 NA
ATOM     18  C   UNL     1       1.819   9.796  17.884  0.00  0.00    +0.000 A 
ATOM     19  N   UNL     1       1.134  10.720  18.609  0.00  0.00    +0.000 NA
ATOM     20  C   UNL     1       0.897  10.105  19.748  0.00  0.00    +0.000 A 
ATOM     21  N   UNL     1       0.190  10.544  20.830  0.00  0.00    +0.000 NA
ENDBRANCH  10  15
ENDBRANCH   1  10
BRANCH   7  22
ATOM     22  C   UNL     1       5.320   3.934  17.605  0.00  0.00    +0.000 C 
BRANCH  22  23
ATOM     23  C   UNL     1       6.217   5.145  17.736  0.00  0.00    +0.000 A 
ATOM     24  C   UNL     1       6.003   6.284  16.944  0.00  0.00    +0.000 A 
ATOM     25  C   UNL     1       6.798   7.421  17.102  0.00  0.00    +0.000 A 
ATOM     26  C   UNL     1       7.811   7.436  18.059  0.00  0.00    +0.000 A 
ATOM     27  C   UNL     1       8.025   6.318  18.862  0.00  0.00    +0.000 A 
ATOM     28  C   UNL     1       7.229   5.180  18.705  0.00  0.00    +0.000 A 
ENDBRANCH  22  23
ENDBRANCH   7  22
TORSDOF 4
ENDMDL
MODEL 2
REMARK VINA RESULT:      -8.9      2.639      6.448
REMARK  Name = 
REMARK  5 active torsions:
REMARK  status: ('A' for Active; 'I' for Inactive)
REMARK    1  A    between atoms: C_1  and  C_2
REMARK    2  A    between atoms: C_4  and  N_5
REMARK    3  A    between atoms: N_5  and  C_6
REMARK    4  A    between atoms: C_12  and  C_13
REMARK    5  A    between atoms: C_13  and  C_14
REMARK                            x       y       z     vdW  Elec       q    Type
REMARK                         _______ _______ _______ _____ _____    ______ ____
ROOT
ATOM      1  C   UNL     1       4.816   3.164  19.208  0.00  0.00    +0.000 C 
ATOM      2  C   UNL     1       4.150   1.803  19.436  0.00  0.00    +0.000 C 
ATOM      3  C   UNL     1       2.654   1.793  19.142  0.00  0.00    +0.000 C 
ATOM      4  C   UNL     1       1.980   3.033  19.596  0.00  0.00    +0.000 A 
ATOM      5  N   UNL     1       0.689   3.229  19.745  0.00  0.00    +0.000 NA
ATOM      6  N   UNL     1       0.513   4.504  20.222  0.00  0.00    +0.000 NA
ATOM      7  C   UNL     1       1.696   5.071  20.355  0.00  0.00    +0.000 A 
ATOM      8  N   UNL     1       2.646   4.180  19.927  0.00  0.00    +0.000 N 
ATOM      9  C   UNL     1       4.084   4.310  19.940  0.00  0.00    +0.000 C 
ENDROOT
BRANCH   1  10
ATOM     10  N   UNL     1       4.988   3.433  17.774  0.00  0.00    +0.000 N 
ATOM     11  H   UNL     1       4.144   3.357  17.190  0.00  0.00    +0.000 HD
BRANCH  10  15
ATOM     12  C   UNL     1       7.839   7.472  18.084  0.00  0.00    +0.000 C 
ATOM     13  C   UNL     1       7.345   6.312  17.256  0.00  0.00    +0.000 A 
ATOM     14  C   UNL     1       6.551   5.280  17.981  0.00  0.00    +0.000 A 
ATOM     15  C   UNL     1       5.891   4.369  17.241  0.00  0.00    +0.000 A 
ATOM     16  N   UNL     1       6.160   4.361  15.845  0.00  0.00    +0.000 N 
ATOM     17  N   UNL     1       5.677   3.525  14.887  0.00  0.00    +0.000 NA
ATOM     18  C   UNL     1       6.324   3.957  13.802  0.00  0.00    +0.000 A 
ATOM     19  N   UNL     1       7.148   5.023  13.980  0.00  0.00    +0.000 NA
ATOM     20  C   UNL     1       7.032   5.292  15.263  0.00  0.00    +0.000 A 
ATOM     21  N   UNL     1       7.597   6.306  15.983  0.00  0.00    +0.000 NA
ENDBRANCH  10  15
ENDBRANCH   1  10
BRANCH   7  22
ATOM     22  C   UNL     1       1.950   6.414  20.958  0.00  0.00    +0.000 C 
BRANCH  22  23
ATOM     23  C   UNL     1       1.875   7.569  19.984  0.00  0.00    +0.000 A 
ATOM     24  C   UNL     1       2.459   7.471  18.711  0.00  0.00    +0.000 A 
ATOM     25  C   UNL     1       2.346   8.517  17.793  0.00  0.00    +0.000 A 
ATOM     26  C   UNL     1       1.640   9.669  18.132  0.00  0.00    +0.000 A 
ATOM     27  C   UNL     1       1.042   9.773  19.387  0.00  0.00    +0.000 A 
ATOM     28  C   UNL     1       1.155   8.727  20.306  0.00  0.00    +0.000 A 
ENDBRANCH  22  23
ENDBRANCH   7  22
TORSDOF 4
ENDMDL
MODEL 3
REMARK VINA RESULT:      -8.8      2.402      6.708
REMARK  Name = 
REMARK  5 active torsions:
REMARK  status: ('A' for Active; 'I' for Inactive)
REMARK    1  A    between atoms: C_1  and  C_2
REMARK    2  A    between atoms: C_4  and  N_5
REMARK    3  A    between atoms: N_5  and  C_6
REMARK    4  A    between atoms: C_12  and  C_13
REMARK    5  A    between atoms: C_13  and  C_14
REMARK                            x       y       z     vdW  Elec       q    Type
REMARK                         _______ _______ _______ _____ _____    ______ ____
ROOT
ATOM      1  C   UNL     1       4.764   3.910  19.835  0.00  0.00    +0.000 C 
ATOM      2  C   UNL     1       3.731   2.779  19.884  0.00  0.00    +0.000 C 
ATOM      3  C   UNL     1       2.771   2.771  18.700  0.00  0.00    +0.000 C 
ATOM      4  C   UNL     1       2.357   4.136  18.298  0.00  0.00    +0.000 A 
ATOM      5  N   UNL     1       1.352   4.467  17.517  0.00  0.00    +0.000 NA
ATOM      6  N   UNL     1       1.311   5.837  17.447  0.00  0.00    +0.000 NA
ATOM      7  C   UNL     1       2.292   6.326  18.182  0.00  0.00    +0.000 A 
ATOM      8  N   UNL     1       3.000   5.273  18.701  0.00  0.00    +0.000 N 
ATOM      9  C   UNL     1       4.117   5.294  19.617  0.00  0.00    +0.000 C 
ENDROOT
BRANCH   1  10
ATOM     10  N   UNL     1       5.815   3.620  18.849  0.00  0.00    +0.000 N 
ATOM     11  H   UNL     1       5.738   2.725  18.349  0.00  0.00    +0.000 HD
BRANCH  10  15
ATOM     12  C   UNL     1       8.173   7.930  18.219  0.00  0.00    +0.000 C 
ATOM     13  C   UNL     1       7.640   6.659  17.606  0.00  0.00    +0.000 A 
ATOM     14  C   UNL     1       7.158   5.622  18.562  0.00  0.00    +0.000 A 
ATOM     15  C   UNL     1       6.456   4.590  18.059  0.00  0.00    +0.000 A 
ATOM     16  N   UNL     1       6.396   4.485  16.643  0.00  0.00    +0.000 N 
ATOM     17  N   UNL     1       5.806   3.525  15.881  0.00  0.00    +0.000 NA
ATOM     18  C   UNL     1       6.132   3.921  14.649  0.00  0.00    +0.000 A 
ATOM     19  N   UNL     1       6.846   5.074  14.559  0.00  0.00    +0.000 NA
ATOM     20  C   UNL     1       6.997   5.442  15.813  0.00  0.00    +0.000 A 
ATOM     21  N   UNL     1       7.591   6.566  16.312  0.00  0.00    +0.000 NA
ENDBRANCH  10  15
ENDBRANCH   1  10
BRANCH   7  22
ATOM     22  C   UNL     1       2.521   7.774  18.467  0.00  0.00    +0.000 C 
BRANCH  22  23
ATOM     23  C   UNL     1       1.551   8.385  19.454  0.00  0.00    +0.000 A 
ATOM     24  C   UNL     1       1.452   7.887  20.763  0.00  0.00    +0.000 A 
ATOM     25  C   UNL     1       0.595   8.484  21.689  0.00  0.00    +0.000 A 
ATOM     26  C   UNL     1      -0.167   9.591  21.322  0.00  0.00    +0.000 A 
ATOM     27  C   UNL     1      -0.067  10.105  20.030  0.00  0.00    +0.000 A 
ATOM     28  C   UNL     1       0.790   9.509  19.103  0.00  0.00    +0.000 A 
ENDBRANCH  22  23
ENDBRANCH   7  22
TORSDOF 4
ENDMDL
MODEL 4
REMARK VINA RESULT:      -8.7      2.481      6.733
REMARK  Name = 
REMARK  5 active torsions:
REMARK  status: ('A' for Active; 'I' for Inactive)
REMARK    1  A    between atoms: C_1  and  C_2
REMARK    2  A    between atoms: C_4  and  N_5
REMARK    3  A    between atoms: N_5  and  C_6
REMARK    4  A    between atoms: C_12  and  C_13
REMARK    5  A    between atoms: C_13  and  C_14
REMARK                            x       y       z     vdW  Elec       q    Type
REMARK                         _______ _______ _______ _____ _____    ______ ____
ROOT
ATOM      1  C   UNL     1       4.769   3.881  19.808  0.00  0.00    +0.000 C 
ATOM      2  C   UNL     1       3.719   2.774  19.955  0.00  0.00    +0.000 C 
ATOM      3  C   UNL     1       2.723   2.714  18.802  0.00  0.00    +0.000 C 
ATOM      4  C   UNL     1       2.319   4.061  18.333  0.00  0.00    +0.000 A 
ATOM      5  N   UNL     1       1.296   4.363  17.565  0.00  0.00    +0.000 NA
ATOM      6  N   UNL     1       1.275   5.728  17.416  0.00  0.00    +0.000 NA
ATOM      7  C   UNL     1       2.286   6.241  18.091  0.00  0.00    +0.000 A 
ATOM      8  N   UNL     1       2.993   5.208  18.650  0.00  0.00    +0.000 N 
ATOM      9  C   UNL     1       4.137   5.262  19.529  0.00  0.00    +0.000 C 
ENDROOT
BRANCH   1  10
ATOM     10  N   UNL     1       5.783   3.516  18.810  0.00  0.00    +0.000 N 
ATOM     11  H   UNL     1       5.954   2.510  18.679  0.00  0.00    +0.000 HD
BRANCH  10  15
ATOM     12  C   UNL     1       5.701   4.044  13.886  0.00  0.00    +0.000 C 
ATOM     13  C   UNL     1       6.034   4.636  15.233  0.00  0.00    +0.000 A 
ATOM     14  C   UNL     1       5.550   3.876  16.421  0.00  0.00    +0.000 A 
ATOM     15  C   UNL     1       6.032   4.232  17.626  0.00  0.00    +0.000 A 
ATOM     16  N   UNL     1       6.815   5.417  17.680  0.00  0.00    +0.000 N 
ATOM     17  N   UNL     1       7.374   6.024  18.760  0.00  0.00    +0.000 NA
ATOM     18  C   UNL     1       7.921   7.108  18.207  0.00  0.00    +0.000 A 
ATOM     19  N   UNL     1       7.792   7.223  16.859  0.00  0.00    +0.000 NA
ATOM     20  C   UNL     1       7.112   6.149  16.521  0.00  0.00    +0.000 A 
ATOM     21  N   UNL     1       6.745   5.721  15.277  0.00  0.00    +0.000 NA
ENDBRANCH  10  15
ENDBRANCH   1  10
BRANCH   7  22
ATOM     22  C   UNL     1       2.546   7.699  18.284  0.00  0.00    +0.000 C 
BRANCH  22  23
ATOM     23  C   UNL     1       1.646   8.374  19.295  0.00  0.00    +0.000 A 
ATOM     24  C   UNL     1       1.567   7.898  20.613  0.00  0.00    +0.000 A 
ATOM     25  C   UNL     1       0.776   8.553  21.560  0.00  0.00    +0.000 A 
ATOM     26  C   UNL     1       0.062   9.695  21.203  0.00  0.00    +0.000 A 
ATOM     27  C   UNL     1       0.143  10.186  19.901  0.00  0.00    +0.000 A 
ATOM     28  C   UNL     1       0.934   9.532  18.954  0.00  0.00    +0.000 A 
ENDBRANCH  22  23
ENDBRANCH   7  22
TORSDOF 4
ENDMDL
MODEL 5
REMARK VINA RESULT:      -8.4      2.740      6.751
REMARK  Name = 
REMARK  5 active torsions:
REMARK  status: ('A' for Active; 'I' for Inactive)
REMARK    1  A    between atoms: C_1  and  C_2
REMARK    2  A    between atoms: C_4  and  N_5
REMARK    3  A    between atoms: N_5  and  C_6
REMARK    4  A    between atoms: C_12  and  C_13
REMARK    5  A    between atoms: C_13  and  C_14
REMARK                            x       y       z     vdW  Elec       q    Type
REMARK                         _______ _______ _______ _____ _____    ______ ____
ROOT
ATOM      1  C   UNL     1       4.477   3.292  18.299  0.00  0.00    +0.000 C 
ATOM      2  C   UNL     1       3.908   1.908  18.629  0.00  0.00    +0.000 C 
ATOM      3  C   UNL     1       2.388   1.879  18.740  0.00  0.00    +0.000 C 
ATOM      4  C   UNL     1       1.847   3.083  19.414  0.00  0.00    +0.000 A 
ATOM      5  N   UNL     1       0.638   3.245  19.907  0.00  0.00    +0.000 NA
ATOM      6  N   UNL     1       0.583   4.495  20.473  0.00  0.00    +0.000 NA
ATOM      7  C   UNL     1       1.754   5.081  20.316  0.00  0.00    +0.000 A 
ATOM      8  N   UNL     1       2.565   4.230  19.611  0.00  0.00    +0.000 N 
ATOM      9  C   UNL     1       3.955   4.390  19.251  0.00  0.00    +0.000 C 
ENDROOT
BRANCH   1  10
ATOM     10  N   UNL     1       4.262   3.627  16.885  0.00  0.00    +0.000 N 
ATOM     11  H   UNL     1       3.317   3.943  16.628  0.00  0.00    +0.000 HD
BRANCH  10  15
ATOM     12  C   UNL     1       6.868   3.827  12.677  0.00  0.00    +0.000 C 
ATOM     13  C   UNL     1       6.565   4.428  14.027  0.00  0.00    +0.000 A 
ATOM     14  C   UNL     1       5.388   3.864  14.747  0.00  0.00    +0.000 A 
ATOM     15  C   UNL     1       5.233   4.195  16.042  0.00  0.00    +0.000 A 
ATOM     16  N   UNL     1       6.099   5.198  16.556  0.00  0.00    +0.000 N 
ATOM     17  N   UNL     1       6.126   5.751  17.798  0.00  0.00    +0.000 NA
ATOM     18  C   UNL     1       7.092   6.662  17.667  0.00  0.00    +0.000 A 
ATOM     19  N   UNL     1       7.711   6.710  16.458  0.00  0.00    +0.000 NA
ATOM     20  C   UNL     1       7.101   5.775  15.762  0.00  0.00    +0.000 A 
ATOM     21  N   UNL     1       7.356   5.347  14.490  0.00  0.00    +0.000 NA
ENDBRANCH  10  15
ENDBRANCH   1  10
BRANCH   7  22
ATOM     22  C   UNL     1       2.145   6.402  20.893  0.00  0.00    +0.000 C 
BRANCH  22  23
ATOM     23  C   UNL     1       1.921   7.584  19.977  0.00  0.00    +0.000 A 
ATOM     24  C   UNL     1       2.401   7.569  18.658  0.00  0.00    +0.000 A 
ATOM     25  C   UNL     1       2.149   8.638  17.796  0.00  0.00    +0.000 A 
ATOM     26  C   UNL     1       1.406   9.731  18.239  0.00  0.00    +0.000 A 
ATOM     27  C   UNL     1       0.911   9.752  19.541  0.00  0.00    +0.000 A 
ATOM     28  C   UNL     1       1.163   8.683  20.404  0.00  0.00    +0.000 A 
ENDBRANCH  22  23
ENDBRANCH   7  22
TORSDOF 4
ENDMDL
MODEL 6
REMARK VINA RESULT:      -8.0      1.201      1.573
REMARK  Name = 
REMARK  5 active torsions:
REMARK  status: ('A' for Active; 'I' for Inactive)
REMARK    1  A    between atoms: C_1  and  C_2
REMARK    2  A    between atoms: C_4  and  N_5
REMARK    3  A    between atoms: N_5  and  C_6
REMARK    4  A    between atoms: C_12  and  C_13
REMARK    5  A    between atoms: C_13  and  C_14
REMARK                            x       y       z     vdW  Elec       q    Type
REMARK                         _______ _______ _______ _____ _____    ______ ____
ROOT
ATOM      1  C   UNL     1       1.315   5.148  20.176  0.00  0.00    +0.000 C 
ATOM      2  C   UNL     1       1.182   4.040  21.226  0.00  0.00    +0.000 C 
ATOM      3  C   UNL     1       2.474   3.271  21.476  0.00  0.00    +0.000 C 
ATOM      4  C   UNL     1       3.235   3.022  20.229  0.00  0.00    +0.000 A 
ATOM      5  N   UNL     1       4.223   2.172  20.054  0.00  0.00    +0.000 NA
ATOM      6  N   UNL     1       4.605   2.241  18.738  0.00  0.00    +0.000 NA
ATOM      7  C   UNL     1       3.850   3.134  18.126  0.00  0.00    +0.000 A 
ATOM      8  N   UNL     1       2.998   3.678  19.053  0.00  0.00    +0.000 N 
ATOM      9  C   UNL     1       1.941   4.642  18.858  0.00  0.00    +0.000 C 
ENDROOT
BRANCH   1  10
ATOM     10  N   UNL     1       2.026   6.311  20.725  0.00  0.00    +0.000 N 
ATOM     11  H   UNL     1       3.047   6.325  20.599  0.00  0.00    +0.000 HD
BRANCH  10  15
ATOM     12  C   UNL     1      -0.591   9.930  22.868  0.00  0.00    +0.000 C 
ATOM     13  C   UNL     1       0.275   9.484  21.716  0.00  0.00    +0.000 A 
ATOM     14  C   UNL     1       0.931   8.154  21.866  0.00  0.00    +0.000 A 
ATOM     15  C   UNL     1       1.504   7.616  20.773  0.00  0.00    +0.000 A 
ATOM     16  N   UNL     1       1.594   8.444  19.622  0.00  0.00    +0.000 N 
ATOM     17  N   UNL     1       2.162   8.175  18.416  0.00  0.00    +0.000 NA
ATOM     18  C   UNL     1       1.997   9.333  17.775  0.00  0.00    +0.000 A 
ATOM     19  N   UNL     1       1.336  10.307  18.456  0.00  0.00    +0.000 NA
ATOM     20  C   UNL     1       1.063   9.743  19.613  0.00  0.00    +0.000 A 
ATOM     21  N   UNL     1       0.358  10.246  20.669  0.00  0.00    +0.000 NA
ENDBRANCH  10  15
ENDBRANCH   1  10
BRANCH   7  22
ATOM     22  C   UNL     1       3.864   3.421  16.661  0.00  0.00    +0.000 C 
BRANCH  22  23
ATOM     23  C   UNL     1       5.124   4.090  16.160  0.00  0.00    +0.000 A 
ATOM     24  C   UNL     1       5.590   3.857  14.856  0.00  0.00    +0.000 A 
ATOM     25  C   UNL     1       6.724   4.515  14.377  0.00  0.00    +0.000 A 
ATOM     26  C   UNL     1       7.402   5.421  15.190  0.00  0.00    +0.000 A 
ATOM     27  C   UNL     1       6.942   5.673  16.482  0.00  0.00    +0.000 A 
ATOM     28  C   UNL     1       5.807   5.015  16.962  0.00  0.00    +0.000 A 
ENDBRANCH  22  23
ENDBRANCH   7  22
TORSDOF 4
ENDMDL
MODEL 7
REMARK VINA RESULT:      -8.0      0.978      1.435
REMARK  Name = 
REMARK  5 active torsions:
REMARK  status: ('A' for Active; 'I' for Inactive)
REMARK    1  A    between atoms: C_1  and  C_2
REMARK    2  A    between atoms: C_4  and  N_5
REMARK    3  A    between atoms: N_5  and  C_6
REMARK    4  A    between atoms: C_12  and  C_13
REMARK    5  A    between atoms: C_13  and  C_14
REMARK                            x       y       z     vdW  Elec       q    Type
REMARK                         _______ _______ _______ _____ _____    ______ ____
ROOT
ATOM      1  C   UNL     1       1.382   5.121  20.154  0.00  0.00    +0.000 C 
ATOM      2  C   UNL     1       1.117   4.085  21.253  0.00  0.00    +0.000 C 
ATOM      3  C   UNL     1       2.356   3.300  21.669  0.00  0.00    +0.000 C 
ATOM      4  C   UNL     1       3.220   2.953  20.515  0.00  0.00    +0.000 A 
ATOM      5  N   UNL     1       4.192   2.068  20.486  0.00  0.00    +0.000 NA
ATOM      6  N   UNL     1       4.695   2.044  19.209  0.00  0.00    +0.000 NA
ATOM      7  C   UNL     1       4.028   2.915  18.476  0.00  0.00    +0.000 A 
ATOM      8  N   UNL     1       3.113   3.539  19.285  0.00  0.00    +0.000 N 
ATOM      9  C   UNL     1       2.110   4.516  18.934  0.00  0.00    +0.000 C 
ENDROOT
BRANCH   1  10
ATOM     10  N   UNL     1       2.076   6.297  20.696  0.00  0.00    +0.000 N 
ATOM     11  H   UNL     1       3.097   6.322  20.575  0.00  0.00    +0.000 HD
BRANCH  10  15
ATOM     12  C   UNL     1      -0.580   9.909  22.802  0.00  0.00    +0.000 C 
ATOM     13  C   UNL     1       0.288   9.460  21.653  0.00  0.00    +0.000 A 
ATOM     14  C   UNL     1       0.961   8.140  21.817  0.00  0.00    +0.000 A 
ATOM     15  C   UNL     1       1.538   7.596  20.729  0.00  0.00    +0.000 A 
ATOM     16  N   UNL     1       1.614   8.412  19.568  0.00  0.00    +0.000 N 
ATOM     17  N   UNL     1       2.183   8.134  18.365  0.00  0.00    +0.000 NA
ATOM     18  C   UNL     1       2.003   9.283  17.710  0.00  0.00    +0.000 A 
ATOM     19  N   UNL     1       1.331  10.256  18.381  0.00  0.00    +0.000 NA
ATOM     20  C   UNL     1       1.068   9.703  19.545  0.00  0.00    +0.000 A 
ATOM     21  N   UNL     1       0.359  10.210  20.597  0.00  0.00    +0.000 NA
ENDBRANCH  10  15
ENDBRANCH   1  10
BRANCH   7  22
ATOM     22  C   UNL     1       4.186   3.109  17.004  0.00  0.00    +0.000 C 
BRANCH  22  23
ATOM     23  C   UNL     1       5.254   4.104  16.608  0.00  0.00    +0.000 A 
ATOM     24  C   UNL     1       5.658   5.113  17.497  0.00  0.00    +0.000 A 
ATOM     25  C   UNL     1       6.680   6.000  17.152  0.00  0.00    +0.000 A 
ATOM     26  C   UNL     1       7.317   5.883  15.918  0.00  0.00    +0.000 A 
ATOM     27  C   UNL     1       6.936   4.877  15.032  0.00  0.00    +0.000 A 
ATOM     28  C   UNL     1       5.914   3.990  15.377  0.00  0.00    +0.000 A 
ENDBRANCH  22  23
ENDBRANCH   7  22
TORSDOF 4
ENDMDL
MODEL 8
REMARK VINA RESULT:      -7.9      0.905      2.147
REMARK  Name = 
REMARK  5 active torsions:
REMARK  status: ('A' for Active; 'I' for Inactive)
REMARK    1  A    between atoms: C_1  and  C_2
REMARK    2  A    between atoms: C_4  and  N_5
REMARK    3  A    between atoms: N_5  and  C_6
REMARK    4  A    between atoms: C_12  and  C_13
REMARK    5  A    between atoms: C_13  and  C_14
REMARK                            x       y       z     vdW  Elec       q    Type
REMARK                         _______ _______ _______ _____ _____    ______ ____
ROOT
ATOM      1  C   UNL     1       1.448   5.613  19.671  0.00  0.00    +0.000 C 
ATOM      2  C   UNL     1       0.839   4.445  20.456  0.00  0.00    +0.000 C 
ATOM      3  C   UNL     1       1.865   3.621  21.226  0.00  0.00    +0.000 C 
ATOM      4  C   UNL     1       3.122   3.427  20.465  0.00  0.00    +0.000 A 
ATOM      5  N   UNL     1       4.078   2.559  20.713  0.00  0.00    +0.000 NA
ATOM      6  N   UNL     1       5.032   2.699  19.736  0.00  0.00    +0.000 NA
ATOM      7  C   UNL     1       4.650   3.652  18.907  0.00  0.00    +0.000 A 
ATOM      8  N   UNL     1       3.463   4.163  19.364  0.00  0.00    +0.000 N 
ATOM      9  C   UNL     1       2.619   5.171  18.767  0.00  0.00    +0.000 C 
ENDROOT
BRANCH   1  10
ATOM     10  N   UNL     1       1.817   6.715  20.569  0.00  0.00    +0.000 N 
ATOM     11  H   UNL     1       2.703   6.610  21.083  0.00  0.00    +0.000 HD
BRANCH  10  15
ATOM     12  C   UNL     1       2.064  10.861  17.871  0.00  0.00    +0.000 C 
ATOM     13  C   UNL     1       1.547  10.163  19.104  0.00  0.00    +0.000 A 
ATOM     14  C   UNL     1       1.749   8.688  19.155  0.00  0.00    +0.000 A 
ATOM     15  C   UNL     1       1.527   8.070  20.331  0.00  0.00    +0.000 A 
ATOM     16  N   UNL     1       0.944   8.850  21.365  0.00  0.00    +0.000 N 
ATOM     17  N   UNL     1       0.572   8.470  22.617  0.00  0.00    +0.000 NA
ATOM     18  C   UNL     1       0.038   9.596  23.094  0.00  0.00    +0.000 A 
ATOM     19  N   UNL     1       0.074  10.674  22.266  0.00  0.00    +0.000 NA
ATOM     20  C   UNL     1       0.662  10.212  21.183  0.00  0.00    +0.000 A 
ATOM     21  N   UNL     1       1.011  10.880  20.044  0.00  0.00    +0.000 NA
ENDBRANCH  10  15
ENDBRANCH   1  10
BRANCH   7  22
ATOM     22  C   UNL     1       5.349   4.030  17.643  0.00  0.00    +0.000 C 
BRANCH  22  23
ATOM     23  C   UNL     1       6.256   5.235  17.758  0.00  0.00    +0.000 A 
ATOM     24  C   UNL     1       6.053   6.364  16.949  0.00  0.00    +0.000 A 
ATOM     25  C   UNL     1       6.858   7.497  17.091  0.00  0.00    +0.000 A 
ATOM     26  C   UNL     1       7.868   7.518  18.050  0.00  0.00    +0.000 A 
ATOM     27  C   UNL     1       8.071   6.410  18.871  0.00  0.00    +0.000 A 
ATOM     28  C   UNL     1       7.266   5.277  18.729  0.00  0.00    +0.000 A 
ENDBRANCH  22  23
ENDBRANCH   7  22
TORSDOF 4
ENDMDL
MODEL 9
REMARK VINA RESULT:      -7.9      1.801      2.448
REMARK  Name = 
REMARK  5 active torsions:
REMARK  status: ('A' for Active; 'I' for Inactive)
REMARK    1  A    between atoms: C_1  and  C_2
REMARK    2  A    between atoms: C_4  and  N_5
REMARK    3  A    between atoms: N_5  and  C_6
REMARK    4  A    between atoms: C_12  and  C_13
REMARK    5  A    between atoms: C_13  and  C_14
REMARK                            x       y       z     vdW  Elec       q    Type
REMARK                         _______ _______ _______ _____ _____    ______ ____
ROOT
ATOM      1  C   UNL     1       2.045   6.115  19.320  0.00  0.00    +0.000 C 
ATOM      2  C   UNL     1       1.785   4.687  19.812  0.00  0.00    +0.000 C 
ATOM      3  C   UNL     1       3.039   3.964  20.292  0.00  0.00    +0.000 C 
ATOM      4  C   UNL     1       4.218   4.252  19.441  0.00  0.00    +0.000 A 
ATOM      5  N   UNL     1       5.357   3.594  19.409  0.00  0.00    +0.000 NA
ATOM      6  N   UNL     1       6.148   4.178  18.451  0.00  0.00    +0.000 NA
ATOM      7  C   UNL     1       5.486   5.185  17.914  0.00  0.00    +0.000 A 
ATOM      8  N   UNL     1       4.275   5.286  18.548  0.00  0.00    +0.000 N 
ATOM      9  C   UNL     1       3.178   6.183  18.273  0.00  0.00    +0.000 C 
ENDROOT
BRANCH   1  10
ATOM     10  N   UNL     1       2.269   7.029  20.449  0.00  0.00    +0.000 N 
ATOM     11  H   UNL     1       3.240   7.125  20.774  0.00  0.00    +0.000 HD
BRANCH  10  15
ATOM     12  C   UNL     1      -0.752   9.884  23.143  0.00  0.00    +0.000 C 
ATOM     13  C   UNL     1       0.087   9.720  21.900  0.00  0.00    +0.000 A 
ATOM     14  C   UNL     1       0.968   8.519  21.856  0.00  0.00    +0.000 A 
ATOM     15  C   UNL     1       1.538   8.208  20.678  0.00  0.00    +0.000 A 
ATOM     16  N   UNL     1       1.399   9.155  19.628  0.00  0.00    +0.000 N 
ATOM     17  N   UNL     1       1.911   9.118  18.368  0.00  0.00    +0.000 NA
ATOM     18  C   UNL     1       1.504  10.290  17.877  0.00  0.00    +0.000 A 
ATOM     19  N   UNL     1       0.741  11.054  18.703  0.00  0.00    +0.000 NA
ATOM     20  C   UNL     1       0.657  10.333  19.800  0.00  0.00    +0.000 A 
ATOM     21  N   UNL     1      -0.041  10.591  20.945  0.00  0.00    +0.000 NA
ENDBRANCH  10  15
ENDBRANCH   1  10
BRANCH   7  22
ATOM     22  C   UNL     1       5.948   6.003  16.753  0.00  0.00    +0.000 C 
BRANCH  22  23
ATOM     23  C   UNL     1       6.126   5.230  15.465  0.00  0.00    +0.000 A 
ATOM     24  C   UNL     1       5.088   4.430  14.962  0.00  0.00    +0.000 A 
ATOM     25  C   UNL     1       5.232   3.757  13.747  0.00  0.00    +0.000 A 
ATOM     26  C   UNL     1       6.412   3.883  13.016  0.00  0.00    +0.000 A 
ATOM     27  C   UNL     1       7.445   4.686  13.497  0.00  0.00    +0.000 A 
ATOM     28  C   UNL     1       7.301   5.359  14.712  0.00  0.00    +0.000 A 
ENDBRANCH  22  23
ENDBRANCH   7  22
TORSDOF 4
ENDMDL
