MODEL 1
REMARK VINA RESULT:      -8.9      0.000      0.000
REMARK  Name = 
REMARK  7 active torsions:
REMARK  status: ('A' for Active; 'I' for Inactive)
REMARK    1  A    between atoms: C_2  and  C_18
REMARK    2  A    between atoms: N_3  and  C_4
REMARK    3  A    between atoms: C_8  and  C_9
REMARK    4  A    between atoms: N_13  and  C_14
REMARK    5  A    between atoms: C_21  and  C_22
REMARK    6  A    between atoms: C_22  and  O_23
REMARK    7  A    between atoms: O_23  and  C_24
REMARK                            x       y       z     vdW  Elec       q    Type
REMARK                         _______ _______ _______ _____ _____    ______ ____
ROOT
ATOM      1  O   UNL     1       2.394   8.557  17.300  0.00  0.00    +0.000 OA
ATOM      2  C   UNL     1       1.921   8.351  18.414  0.00  0.00    +0.000 C 
ATOM      3  N   UNL     1       1.887   7.100  19.022  0.00  0.00    +0.000 N 
ATOM      4  H   UNL     1       1.338   7.032  19.872  0.00  0.00    +0.000 HD
ENDROOT
BRANCH   3   5
ATOM      5  C   UNL     1       2.450   5.910  18.486  0.00  0.00    +0.000 A 
ATOM      6  C   UNL     1       1.664   4.853  18.017  0.00  0.00    +0.000 A 
ATOM      7  C   UNL     1       2.243   3.705  17.481  0.00  0.00    +0.000 A 
ATOM      8  C   UNL     1       3.628   3.592  17.398  0.00  0.00    +0.000 A 
ATOM      9  C   UNL     1       4.458   4.606  17.885  0.00  0.00    +0.000 A 
ATOM     10  C   UNL     1       3.846   5.780  18.400  0.00  0.00    +0.000 A 
BRANCH   9  11
ATOM     11  C   UNL     1       5.927   4.528  17.813  0.00  0.00    +0.000 A 
ATOM     12  N   UNL     1       6.724   4.668  18.864  0.00  0.00    +0.000 NA
ATOM     13  N   UNL     1       8.013   4.627  18.407  0.00  0.00    +0.000 NA
ATOM     14  N   UNL     1       8.045   4.448  17.100  0.00  0.00    +0.000 NA
ATOM     15  N   UNL     1       6.760   4.333  16.718  0.00  0.00    +0.000 N 
BRANCH  15  16
ATOM     16  C   UNL     1       6.411   4.020  15.340  0.00  0.00    +0.000 C 
ATOM     17  C   UNL     1       7.000   4.775  14.156  0.00  0.00    +0.000 C 
ATOM     18  C   UNL     1       5.575   4.999  14.521  0.00  0.00    +0.000 C 
ENDBRANCH  15  16
ENDBRANCH   9  11
ENDBRANCH   3   5
BRANCH   2  19
ATOM     19  C   UNL     1       1.331   9.454  19.156  0.00  0.00    +0.000 A 
ATOM     20  C   UNL     1       1.308  10.794  18.811  0.00  0.00    +0.000 A 
ATOM     21  C   UNL     1       0.668  11.483  19.857  0.00  0.00    +0.000 A 
ATOM     22  C   UNL     1       0.355  10.534  20.808  0.00  0.00    +0.000 A 
ATOM     23  O   UNL     1       0.735   9.285  20.381  0.00  0.00    +0.000 OA
BRANCH  22  24
ATOM     24  C   UNL     1      -0.210  10.668  22.178  0.00  0.00    +0.000 C 
BRANCH  24  25
ATOM     25  O   UNL     1      -0.139  12.042  22.552  0.00  0.00    +0.000 OA
BRANCH  25  26
ATOM     26  C   UNL     1      -1.295  12.586  23.055  0.00  0.00    +0.000 A 
ATOM     27  C   UNL     1      -2.522  11.929  23.180  0.00  0.00    +0.000 A 
ATOM     28  C   UNL     1      -3.627  12.591  23.721  0.00  0.00    +0.000 A 
ATOM     29  C   UNL     1      -3.518  13.918  24.134  0.00  0.00    +0.000 A 
ATOM     30  C   UNL     1      -2.300  14.581  24.007  0.00  0.00    +0.000 A 
ATOM     31  C   UNL     1      -1.195  13.918  23.469  0.00  0.00    +0.000 A 
ENDBRANCH  25  26
ENDBRANCH  24  25
ENDBRANCH  22  24
ENDBRANCH   2  19
TORSDOF 7
ENDMDL
MODEL 2
REMARK VINA RESULT:      -8.9      2.538      3.737
REMARK  Name = 
REMARK  7 active torsions:
REMARK  status: ('A' for Active; 'I' for Inactive)
REMARK    1  A    between atoms: C_2  and  C_18
REMARK    2  A    between atoms: N_3  and  C_4
REMARK    3  A    between atoms: C_8  and  C_9
REMARK    4  A    between atoms: N_13  and  C_14
REMARK    5  A    between atoms: C_21  and  C_22
REMARK    6  A    between atoms: C_22  and  O_23
REMARK    7  A    between atoms: O_23  and  C_24
REMARK                            x       y       z     vdW  Elec       q    Type
REMARK                         _______ _______ _______ _____ _____    ______ ____
ROOT
ATOM      1  O   UNL     1       1.638   6.291  21.063  0.00  0.00    +0.000 OA
ATOM      2  C   UNL     1       1.664   7.245  20.291  0.00  0.00    +0.000 C 
ATOM      3  N   UNL     1       2.157   7.179  18.991  0.00  0.00    +0.000 N 
ATOM      4  H   UNL     1       2.263   8.064  18.509  0.00  0.00    +0.000 HD
ENDROOT
BRANCH   3   5
ATOM      5  C   UNL     1       2.626   6.000  18.351  0.00  0.00    +0.000 A 
ATOM      6  C   UNL     1       1.948   4.780  18.433  0.00  0.00    +0.000 A 
ATOM      7  C   UNL     1       2.422   3.645  17.781  0.00  0.00    +0.000 A 
ATOM      8  C   UNL     1       3.589   3.707  17.024  0.00  0.00    +0.000 A 
ATOM      9  C   UNL     1       4.323   4.895  16.939  0.00  0.00    +0.000 A 
ATOM     10  C   UNL     1       3.805   6.047  17.587  0.00  0.00    +0.000 A 
BRANCH   9  11
ATOM     11  C   UNL     1       5.559   5.004  16.147  0.00  0.00    +0.000 A 
ATOM     12  N   UNL     1       5.579   5.163  14.830  0.00  0.00    +0.000 NA
ATOM     13  N   UNL     1       6.888   5.132  14.434  0.00  0.00    +0.000 NA
ATOM     14  N   UNL     1       7.691   4.973  15.470  0.00  0.00    +0.000 NA
ATOM     15  N   UNL     1       6.888   4.942  16.550  0.00  0.00    +0.000 N 
BRANCH  15  16
ATOM     16  C   UNL     1       7.441   4.882  17.895  0.00  0.00    +0.000 C 
ATOM     17  C   UNL     1       6.664   5.345  19.120  0.00  0.00    +0.000 C 
ATOM     18  C   UNL     1       7.804   6.167  18.631  0.00  0.00    +0.000 C 
ENDBRANCH  15  16
ENDBRANCH   9  11
ENDBRANCH   3   5
BRANCH   2  19
ATOM     19  C   UNL     1       1.183   8.542  20.741  0.00  0.00    +0.000 A 
ATOM     20  C   UNL     1       0.753   8.896  22.008  0.00  0.00    +0.000 A 
ATOM     21  C   UNL     1       0.341  10.241  21.949  0.00  0.00    +0.000 A 
ATOM     22  C   UNL     1       0.513  10.638  20.639  0.00  0.00    +0.000 A 
ATOM     23  O   UNL     1       1.048   9.614  19.895  0.00  0.00    +0.000 OA
BRANCH  22  24
ATOM     24  C   UNL     1       0.139  11.896  19.939  0.00  0.00    +0.000 C 
BRANCH  24  25
ATOM     25  O   UNL     1      -0.167  11.574  18.584  0.00  0.00    +0.000 OA
BRANCH  25  26
ATOM     26  C   UNL     1      -1.484  11.293  18.319  0.00  0.00    +0.000 A 
ATOM     27  C   UNL     1      -2.587  11.993  18.815  0.00  0.00    +0.000 A 
ATOM     28  C   UNL     1      -3.885  11.613  18.460  0.00  0.00    +0.000 A 
ATOM     29  C   UNL     1      -4.091  10.526  17.614  0.00  0.00    +0.000 A 
ATOM     30  C   UNL     1      -2.997   9.819  17.120  0.00  0.00    +0.000 A 
ATOM     31  C   UNL     1      -1.700  10.201  17.472  0.00  0.00    +0.000 A 
ENDBRANCH  25  26
ENDBRANCH  24  25
ENDBRANCH  22  24
ENDBRANCH   2  19
TORSDOF 7
ENDMDL
MODEL 3
REMARK VINA RESULT:      -8.7      2.468      3.368
REMARK  Name = 
REMARK  7 active torsions:
REMARK  status: ('A' for Active; 'I' for Inactive)
REMARK    1  A    between atoms: C_2  and  C_18
REMARK    2  A    between atoms: N_3  and  C_4
REMARK    3  A    between atoms: C_8  and  C_9
REMARK    4  A    between atoms: N_13  and  C_14
REMARK    5  A    between atoms: C_21  and  C_22
REMARK    6  A    between atoms: C_22  and  O_23
REMARK    7  A    between atoms: O_23  and  C_24
REMARK                            x       y       z     vdW  Elec       q    Type
REMARK                         _______ _______ _______ _____ _____    ______ ____
ROOT
ATOM      1  O   UNL     1       1.853   6.999  21.106  0.00  0.00    +0.000 OA
ATOM      2  C   UNL     1       1.704   7.725  20.128  0.00  0.00    +0.000 C 
ATOM      3  N   UNL     1       2.042   7.357  18.829  0.00  0.00    +0.000 N 
ATOM      4  H   UNL     1       2.014   8.094  18.134  0.00  0.00    +0.000 HD
ENDROOT
BRANCH   3   5
ATOM      5  C   UNL     1       2.532   6.080  18.439  0.00  0.00    +0.000 A 
ATOM      6  C   UNL     1       1.686   4.996  18.191  0.00  0.00    +0.000 A 
ATOM      7  C   UNL     1       2.192   3.760  17.793  0.00  0.00    +0.000 A 
ATOM      8  C   UNL     1       3.563   3.585  17.630  0.00  0.00    +0.000 A 
ATOM      9  C   UNL     1       4.454   4.629  17.899  0.00  0.00    +0.000 A 
ATOM     10  C   UNL     1       3.914   5.887  18.274  0.00  0.00    +0.000 A 
BRANCH   9  11
ATOM     11  C   UNL     1       5.910   4.486  17.735  0.00  0.00    +0.000 A 
ATOM     12  N   UNL     1       6.774   4.544  18.741  0.00  0.00    +0.000 NA
ATOM     13  N   UNL     1       8.030   4.464  18.206  0.00  0.00    +0.000 NA
ATOM     14  N   UNL     1       7.977   4.340  16.892  0.00  0.00    +0.000 NA
ATOM     15  N   UNL     1       6.667   4.301  16.584  0.00  0.00    +0.000 N 
BRANCH  15  16
ATOM     16  C   UNL     1       6.224   4.065  15.219  0.00  0.00    +0.000 C 
ATOM     17  C   UNL     1       7.002   4.563  14.009  0.00  0.00    +0.000 C 
ATOM     18  C   UNL     1       5.718   5.224  14.367  0.00  0.00    +0.000 C 
ENDBRANCH  15  16
ENDBRANCH   9  11
ENDBRANCH   3   5
BRANCH   2  19
ATOM     19  C   UNL     1       1.170   9.066  20.307  0.00  0.00    +0.000 A 
ATOM     20  C   UNL     1       0.874   9.710  21.495  0.00  0.00    +0.000 A 
ATOM     21  C   UNL     1       0.340  10.970  21.165  0.00  0.00    +0.000 A 
ATOM     22  C   UNL     1       0.309  11.026  19.787  0.00  0.00    +0.000 A 
ATOM     23  O   UNL     1       0.835   9.875  19.250  0.00  0.00    +0.000 OA
BRANCH  22  24
ATOM     24  C   UNL     1      -0.261  12.039  18.859  0.00  0.00    +0.000 C 
BRANCH  24  25
ATOM     25  O   UNL     1      -0.869  11.349  17.770  0.00  0.00    +0.000 OA
BRANCH  25  26
ATOM     26  C   UNL     1      -2.240  11.396  17.723  0.00  0.00    +0.000 A 
ATOM     27  C   UNL     1      -3.083  11.773  18.772  0.00  0.00    +0.000 A 
ATOM     28  C   UNL     1      -4.469  11.791  18.594  0.00  0.00    +0.000 A 
ATOM     29  C   UNL     1      -5.025  11.427  17.370  0.00  0.00    +0.000 A 
ATOM     30  C   UNL     1      -4.192  11.045  16.321  0.00  0.00    +0.000 A 
ATOM     31  C   UNL     1      -2.806  11.030  16.498  0.00  0.00    +0.000 A 
ENDBRANCH  25  26
ENDBRANCH  24  25
ENDBRANCH  22  24
ENDBRANCH   2  19
TORSDOF 7
ENDMDL
MODEL 4
REMARK VINA RESULT:      -8.7      2.214      3.012
REMARK  Name = 
REMARK  7 active torsions:
REMARK  status: ('A' for Active; 'I' for Inactive)
REMARK    1  A    between atoms: C_2  and  C_18
REMARK    2  A    between atoms: N_3  and  C_4
REMARK    3  A    between atoms: C_8  and  C_9
REMARK    4  A    between atoms: N_13  and  C_14
REMARK    5  A    between atoms: C_21  and  C_22
REMARK    6  A    between atoms: C_22  and  O_23
REMARK    7  A    between atoms: O_23  and  C_24
REMARK                            x       y       z     vdW  Elec       q    Type
REMARK                         _______ _______ _______ _____ _____    ______ ____
ROOT
ATOM      1  O   UNL     1       2.251   8.312  17.655  0.00  0.00    +0.000 OA
ATOM      2  C   UNL     1       1.851   8.093  18.795  0.00  0.00    +0.000 C 
ATOM      3  N   UNL     1       1.900   6.844  19.407  0.00  0.00    +0.000 N 
ATOM      4  H   UNL     1       1.404   6.759  20.287  0.00  0.00    +0.000 HD
ENDROOT
BRANCH   3   5
ATOM      5  C   UNL     1       2.477   5.674  18.842  0.00  0.00    +0.000 A 
ATOM      6  C   UNL     1       1.709   4.577  18.440  0.00  0.00    +0.000 A 
ATOM      7  C   UNL     1       2.299   3.450  17.874  0.00  0.00    +0.000 A 
ATOM      8  C   UNL     1       3.679   3.398  17.692  0.00  0.00    +0.000 A 
ATOM      9  C   UNL     1       4.495   4.454  18.110  0.00  0.00    +0.000 A 
ATOM     10  C   UNL     1       3.868   5.605  18.656  0.00  0.00    +0.000 A 
BRANCH   9  11
ATOM     11  C   UNL     1       5.956   4.441  17.933  0.00  0.00    +0.000 A 
ATOM     12  N   UNL     1       6.820   4.571  18.931  0.00  0.00    +0.000 NA
ATOM     13  N   UNL     1       8.073   4.603  18.385  0.00  0.00    +0.000 NA
ATOM     14  N   UNL     1       8.020   4.480  17.072  0.00  0.00    +0.000 NA
ATOM     15  N   UNL     1       6.716   4.327  16.775  0.00  0.00    +0.000 N 
BRANCH  15  16
ATOM     16  C   UNL     1       6.283   4.057  15.412  0.00  0.00    +0.000 C 
ATOM     17  C   UNL     1       6.917   4.734  14.204  0.00  0.00    +0.000 C 
ATOM     18  C   UNL     1       5.543   5.129  14.618  0.00  0.00    +0.000 C 
ENDBRANCH  15  16
ENDBRANCH   9  11
ENDBRANCH   3   5
BRANCH   2  19
ATOM     19  C   UNL     1       1.263   9.175  19.566  0.00  0.00    +0.000 A 
ATOM     20  C   UNL     1       0.741   9.120  20.847  0.00  0.00    +0.000 A 
ATOM     21  C   UNL     1       0.247  10.402  21.153  0.00  0.00    +0.000 A 
ATOM     22  C   UNL     1       0.465  11.175  20.031  0.00  0.00    +0.000 A 
ATOM     23  O   UNL     1       1.107  10.442  19.062  0.00  0.00    +0.000 OA
BRANCH  22  24
ATOM     24  C   UNL     1       0.050  12.566  19.704  0.00  0.00    +0.000 C 
BRANCH  24  25
ATOM     25  O   UNL     1      -0.525  12.559  18.399  0.00  0.00    +0.000 OA
BRANCH  25  26
ATOM     26  C   UNL     1      -1.769  11.988  18.297  0.00  0.00    +0.000 A 
ATOM     27  C   UNL     1      -2.893  12.333  19.054  0.00  0.00    +0.000 A 
ATOM     28  C   UNL     1      -4.112  11.682  18.846  0.00  0.00    +0.000 A 
ATOM     29  C   UNL     1      -4.218  10.677  17.887  0.00  0.00    +0.000 A 
ATOM     30  C   UNL     1      -3.101  10.323  17.133  0.00  0.00    +0.000 A 
ATOM     31  C   UNL     1      -1.883  10.976  17.339  0.00  0.00    +0.000 A 
ENDBRANCH  25  26
ENDBRANCH  24  25
ENDBRANCH  22  24
ENDBRANCH   2  19
TORSDOF 7
ENDMDL
MODEL 5
REMARK VINA RESULT:      -8.6      1.286      2.102
REMARK  Name = 
REMARK  7 active torsions:
REMARK  status: ('A' for Active; 'I' for Inactive)
REMARK    1  A    between atoms: C_2  and  C_18
REMARK    2  A    between atoms: N_3  and  C_4
REMARK    3  A    between atoms: C_8  and  C_9
REMARK    4  A    between atoms: N_13  and  C_14
REMARK    5  A    between atoms: C_21  and  C_22
REMARK    6  A    between atoms: C_22  and  O_23
REMARK    7  A    between atoms: O_23  and  C_24
REMARK                            x       y       z     vdW  Elec       q    Type
REMARK                         _______ _______ _______ _____ _____    ______ ____
ROOT
ATOM      1  O   UNL     1       2.014   8.178  17.979  0.00  0.00    +0.000 OA
ATOM      2  C   UNL     1       1.877   7.767  19.127  0.00  0.00    +0.000 C 
ATOM      3  N   UNL     1       2.125   6.453  19.515  0.00  0.00    +0.000 N 
ATOM      4  H   UNL     1       1.831   6.203  20.452  0.00  0.00    +0.000 HD
ENDROOT
BRANCH   3   5
ATOM      5  C   UNL     1       2.635   5.430  18.671  0.00  0.00    +0.000 A 
ATOM      6  C   UNL     1       2.044   4.166  18.582  0.00  0.00    +0.000 A 
ATOM      7  C   UNL     1       2.555   3.187  17.733  0.00  0.00    +0.000 A 
ATOM      8  C   UNL     1       3.674   3.455  16.948  0.00  0.00    +0.000 A 
ATOM      9  C   UNL     1       4.323   4.691  17.027  0.00  0.00    +0.000 A 
ATOM     10  C   UNL     1       3.766   5.684  17.876  0.00  0.00    +0.000 A 
BRANCH   9  11
ATOM     11  C   UNL     1       5.505   5.016  16.212  0.00  0.00    +0.000 A 
ATOM     12  N   UNL     1       5.455   5.274  14.912  0.00  0.00    +0.000 NA
ATOM     13  N   UNL     1       6.741   5.439  14.478  0.00  0.00    +0.000 NA
ATOM     14  N   UNL     1       7.597   5.308  15.475  0.00  0.00    +0.000 NA
ATOM     15  N   UNL     1       6.845   5.095  16.572  0.00  0.00    +0.000 N 
BRANCH  15  16
ATOM     16  C   UNL     1       7.451   5.005  17.891  0.00  0.00    +0.000 C 
ATOM     17  C   UNL     1       6.723   5.438  19.157  0.00  0.00    +0.000 C 
ATOM     18  C   UNL     1       7.841   6.275  18.642  0.00  0.00    +0.000 C 
ENDBRANCH  15  16
ENDBRANCH   9  11
ENDBRANCH   3   5
BRANCH   2  19
ATOM     19  C   UNL     1       1.404   8.674  20.160  0.00  0.00    +0.000 A 
ATOM     20  C   UNL     1       1.306   8.437  21.520  0.00  0.00    +0.000 A 
ATOM     21  C   UNL     1       0.754   9.591  22.106  0.00  0.00    +0.000 A 
ATOM     22  C   UNL     1       0.513  10.471  21.071  0.00  0.00    +0.000 A 
ATOM     23  O   UNL     1       0.928   9.930  19.878  0.00  0.00    +0.000 OA
BRANCH  22  24
ATOM     24  C   UNL     1      -0.170  11.791  21.047  0.00  0.00    +0.000 C 
BRANCH  24  25
ATOM     25  O   UNL     1      -0.036  12.382  22.338  0.00  0.00    +0.000 OA
BRANCH  25  26
ATOM     26  C   UNL     1      -1.207  12.742  22.956  0.00  0.00    +0.000 A 
ATOM     27  C   UNL     1      -2.353  11.949  23.064  0.00  0.00    +0.000 A 
ATOM     28  C   UNL     1      -3.485  12.428  23.731  0.00  0.00    +0.000 A 
ATOM     29  C   UNL     1      -3.483  13.704  24.290  0.00  0.00    +0.000 A 
ATOM     30  C   UNL     1      -2.347  14.503  24.181  0.00  0.00    +0.000 A 
ATOM     31  C   UNL     1      -1.215  14.023  23.517  0.00  0.00    +0.000 A 
ENDBRANCH  25  26
ENDBRANCH  24  25
ENDBRANCH  22  24
ENDBRANCH   2  19
TORSDOF 7
ENDMDL
MODEL 6
REMARK VINA RESULT:      -8.5      2.749      4.004
REMARK  Name = 
REMARK  7 active torsions:
REMARK  status: ('A' for Active; 'I' for Inactive)
REMARK    1  A    between atoms: C_2  and  C_18
REMARK    2  A    between atoms: N_3  and  C_4
REMARK    3  A    between atoms: C_8  and  C_9
REMARK    4  A    between atoms: N_13  and  C_14
REMARK    5  A    between atoms: C_21  and  C_22
REMARK    6  A    between atoms: C_22  and  O_23
REMARK    7  A    between atoms: O_23  and  C_24
REMARK                            x       y       z     vdW  Elec       q    Type
REMARK                         _______ _______ _______ _____ _____    ______ ____
ROOT
ATOM      1  O   UNL     1       1.996   6.510  21.088  0.00  0.00    +0.000 OA
ATOM      2  C   UNL     1       1.710   7.350  20.240  0.00  0.00    +0.000 C 
ATOM      3  N   UNL     1       1.976   7.203  18.881  0.00  0.00    +0.000 N 
ATOM      4  H   UNL     1       1.831   8.025  18.307  0.00  0.00    +0.000 HD
ENDROOT
BRANCH   3   5
ATOM      5  C   UNL     1       2.541   6.047  18.276  0.00  0.00    +0.000 A 
ATOM      6  C   UNL     1       1.959   4.781  18.388  0.00  0.00    +0.000 A 
ATOM      7  C   UNL     1       2.525   3.669  17.769  0.00  0.00    +0.000 A 
ATOM      8  C   UNL     1       3.689   3.802  17.017  0.00  0.00    +0.000 A 
ATOM      9  C   UNL     1       4.329   5.040  16.904  0.00  0.00    +0.000 A 
ATOM     10  C   UNL     1       3.718   6.165  17.517  0.00  0.00    +0.000 A 
BRANCH   9  11
ATOM     11  C   UNL     1       5.559   5.224  16.116  0.00  0.00    +0.000 A 
ATOM     12  N   UNL     1       5.823   4.562  14.997  0.00  0.00    +0.000 NA
ATOM     13  N   UNL     1       7.081   4.921  14.598  0.00  0.00    +0.000 NA
ATOM     14  N   UNL     1       7.607   5.802  15.427  0.00  0.00    +0.000 NA
ATOM     15  N   UNL     1       6.658   6.043  16.351  0.00  0.00    +0.000 N 
BRANCH  15  16
ATOM     16  C   UNL     1       6.850   7.053  17.380  0.00  0.00    +0.000 C 
ATOM     17  C   UNL     1       8.122   7.884  17.482  0.00  0.00    +0.000 C 
ATOM     18  C   UNL     1       7.864   6.826  18.496  0.00  0.00    +0.000 C 
ENDBRANCH  15  16
ENDBRANCH   9  11
ENDBRANCH   3   5
BRANCH   2  19
ATOM     19  C   UNL     1       1.079   8.594  20.650  0.00  0.00    +0.000 A 
ATOM     20  C   UNL     1       0.773   9.008  21.934  0.00  0.00    +0.000 A 
ATOM     21  C   UNL     1       0.132  10.257  21.829  0.00  0.00    +0.000 A 
ATOM     22  C   UNL     1       0.051  10.535  20.480  0.00  0.00    +0.000 A 
ATOM     23  O   UNL     1       0.648   9.536  19.749  0.00  0.00    +0.000 OA
BRANCH  22  24
ATOM     24  C   UNL     1      -0.625  11.637  19.745  0.00  0.00    +0.000 C 
BRANCH  24  25
ATOM     25  O   UNL     1      -2.013  11.322  19.658  0.00  0.00    +0.000 OA
BRANCH  25  26
ATOM     26  C   UNL     1      -2.488  11.060  18.397  0.00  0.00    +0.000 A 
ATOM     27  C   UNL     1      -1.865  10.255  17.439  0.00  0.00    +0.000 A 
ATOM     28  C   UNL     1      -2.459  10.055  16.189  0.00  0.00    +0.000 A 
ATOM     29  C   UNL     1      -3.676  10.662  15.884  0.00  0.00    +0.000 A 
ATOM     30  C   UNL     1      -4.300  11.470  16.832  0.00  0.00    +0.000 A 
ATOM     31  C   UNL     1      -3.708  11.667  18.082  0.00  0.00    +0.000 A 
ENDBRANCH  25  26
ENDBRANCH  24  25
ENDBRANCH  22  24
ENDBRANCH   2  19
TORSDOF 7
ENDMDL
MODEL 7
REMARK VINA RESULT:      -8.5      2.384      3.709
REMARK  Name = 
REMARK  7 active torsions:
REMARK  status: ('A' for Active; 'I' for Inactive)
REMARK    1  A    between atoms: C_2  and  C_18
REMARK    2  A    between atoms: N_3  and  C_4
REMARK    3  A    between atoms: C_8  and  C_9
REMARK    4  A    between atoms: N_13  and  C_14
REMARK    5  A    between atoms: C_21  and  C_22
REMARK    6  A    between atoms: C_22  and  O_23
REMARK    7  A    between atoms: O_23  and  C_24
REMARK                            x       y       z     vdW  Elec       q    Type
REMARK                         _______ _______ _______ _____ _____    ______ ____
ROOT
ATOM      1  O   UNL     1       1.651   8.456  17.610  0.00  0.00    +0.000 OA
ATOM      2  C   UNL     1       1.699   8.334  18.831  0.00  0.00    +0.000 C 
ATOM      3  N   UNL     1       2.100   7.169  19.478  0.00  0.00    +0.000 N 
ATOM      4  H   UNL     1       1.953   7.143  20.481  0.00  0.00    +0.000 HD
ENDROOT
BRANCH   3   5
ATOM      5  C   UNL     1       2.576   5.994  18.835  0.00  0.00    +0.000 A 
ATOM      6  C   UNL     1       1.717   5.007  18.344  0.00  0.00    +0.000 A 
ATOM      7  C   UNL     1       2.210   3.873  17.703  0.00  0.00    +0.000 A 
ATOM      8  C   UNL     1       3.582   3.705  17.534  0.00  0.00    +0.000 A 
ATOM      9  C   UNL     1       4.485   4.646  18.039  0.00  0.00    +0.000 A 
ATOM     10  C   UNL     1       3.958   5.808  18.662  0.00  0.00    +0.000 A 
BRANCH   9  11
ATOM     11  C   UNL     1       5.942   4.508  17.879  0.00  0.00    +0.000 A 
ATOM     12  N   UNL     1       6.803   4.575  18.886  0.00  0.00    +0.000 NA
ATOM     13  N   UNL     1       8.060   4.496  18.353  0.00  0.00    +0.000 NA
ATOM     14  N   UNL     1       8.011   4.364  17.041  0.00  0.00    +0.000 NA
ATOM     15  N   UNL     1       6.702   4.318  16.730  0.00  0.00    +0.000 N 
BRANCH  15  16
ATOM     16  C   UNL     1       6.262   4.072  15.366  0.00  0.00    +0.000 C 
ATOM     17  C   UNL     1       6.914   4.741  14.163  0.00  0.00    +0.000 C 
ATOM     18  C   UNL     1       5.551   5.169  14.581  0.00  0.00    +0.000 C 
ENDBRANCH  15  16
ENDBRANCH   9  11
ENDBRANCH   3   5
BRANCH   2  19
ATOM     19  C   UNL     1       1.294   9.444  19.677  0.00  0.00    +0.000 A 
ATOM     20  C   UNL     1       0.664   9.389  20.908  0.00  0.00    +0.000 A 
ATOM     21  C   UNL     1       0.435  10.715  21.320  0.00  0.00    +0.000 A 
ATOM     22  C   UNL     1       0.910  11.521  20.306  0.00  0.00    +0.000 A 
ATOM     23  O   UNL     1       1.459  10.756  19.305  0.00  0.00    +0.000 OA
BRANCH  22  24
ATOM     24  C   UNL     1       0.835  12.992  20.106  0.00  0.00    +0.000 C 
BRANCH  24  25
ATOM     25  O   UNL     1       2.161  13.514  20.166  0.00  0.00    +0.000 OA
BRANCH  25  26
ATOM     26  C   UNL     1       2.456  14.501  19.259  0.00  0.00    +0.000 A 
ATOM     27  C   UNL     1       3.396  14.410  18.228  0.00  0.00    +0.000 A 
ATOM     28  C   UNL     1       3.598  15.486  17.358  0.00  0.00    +0.000 A 
ATOM     29  C   UNL     1       2.869  16.663  17.516  0.00  0.00    +0.000 A 
ATOM     30  C   UNL     1       1.935  16.763  18.544  0.00  0.00    +0.000 A 
ATOM     31  C   UNL     1       1.731  15.687  19.412  0.00  0.00    +0.000 A 
ENDBRANCH  25  26
ENDBRANCH  24  25
ENDBRANCH  22  24
ENDBRANCH   2  19
TORSDOF 7
ENDMDL
MODEL 8
REMARK VINA RESULT:      -8.5      2.192      3.517
REMARK  Name = 
REMARK  7 active torsions:
REMARK  status: ('A' for Active; 'I' for Inactive)
REMARK    1  A    between atoms: C_2  and  C_18
REMARK    2  A    between atoms: N_3  and  C_4
REMARK    3  A    between atoms: C_8  and  C_9
REMARK    4  A    between atoms: N_13  and  C_14
REMARK    5  A    between atoms: C_21  and  C_22
REMARK    6  A    between atoms: C_22  and  O_23
REMARK    7  A    between atoms: O_23  and  C_24
REMARK                            x       y       z     vdW  Elec       q    Type
REMARK                         _______ _______ _______ _____ _____    ______ ____
ROOT
ATOM      1  O   UNL     1       1.852   8.195  18.516  0.00  0.00    +0.000 OA
ATOM      2  C   UNL     1       1.676   8.031  19.720  0.00  0.00    +0.000 C 
ATOM      3  N   UNL     1       1.935   6.837  20.387  0.00  0.00    +0.000 N 
ATOM      4  H   UNL     1       1.607   6.782  21.345  0.00  0.00    +0.000 HD
ENDROOT
BRANCH   3   5
ATOM      5  C   UNL     1       2.502   5.674  19.799  0.00  0.00    +0.000 A 
ATOM      6  C   UNL     1       1.754   4.521  19.546  0.00  0.00    +0.000 A 
ATOM      7  C   UNL     1       2.331   3.401  18.953  0.00  0.00    +0.000 A 
ATOM      8  C   UNL     1       3.676   3.413  18.593  0.00  0.00    +0.000 A 
ATOM      9  C   UNL     1       4.476   4.530  18.857  0.00  0.00    +0.000 A 
ATOM     10  C   UNL     1       3.859   5.670  19.435  0.00  0.00    +0.000 A 
BRANCH   9  11
ATOM     11  C   UNL     1       5.900   4.585  18.490  0.00  0.00    +0.000 A 
ATOM     12  N   UNL     1       6.873   4.851  19.352  0.00  0.00    +0.000 NA
ATOM     13  N   UNL     1       8.042   4.908  18.644  0.00  0.00    +0.000 NA
ATOM     14  N   UNL     1       7.831   4.668  17.363  0.00  0.00    +0.000 NA
ATOM     15  N   UNL     1       6.513   4.415  17.254  0.00  0.00    +0.000 N 
BRANCH  15  16
ATOM     16  C   UNL     1       5.930   4.003  15.986  0.00  0.00    +0.000 C 
ATOM     17  C   UNL     1       6.601   4.283  14.648  0.00  0.00    +0.000 C 
ATOM     18  C   UNL     1       5.381   5.049  15.021  0.00  0.00    +0.000 C 
ENDBRANCH  15  16
ENDBRANCH   9  11
ENDBRANCH   3   5
BRANCH   2  19
ATOM     19  C   UNL     1       1.141   9.122  20.519  0.00  0.00    +0.000 A 
ATOM     20  C   UNL     1       0.427   9.039  21.702  0.00  0.00    +0.000 A 
ATOM     21  C   UNL     1       0.085  10.352  22.077  0.00  0.00    +0.000 A 
ATOM     22  C   UNL     1       0.582  11.176  21.088  0.00  0.00    +0.000 A 
ATOM     23  O   UNL     1       1.250  10.437  20.140  0.00  0.00    +0.000 OA
BRANCH  22  24
ATOM     24  C   UNL     1       0.429  12.638  20.862  0.00  0.00    +0.000 C 
BRANCH  24  25
ATOM     25  O   UNL     1       0.395  12.866  19.455  0.00  0.00    +0.000 OA
BRANCH  25  26
ATOM     26  C   UNL     1       1.095  13.959  19.009  0.00  0.00    +0.000 A 
ATOM     27  C   UNL     1       0.647  15.283  19.030  0.00  0.00    +0.000 A 
ATOM     28  C   UNL     1       1.463  16.314  18.555  0.00  0.00    +0.000 A 
ATOM     29  C   UNL     1       2.730  16.030  18.049  0.00  0.00    +0.000 A 
ATOM     30  C   UNL     1       3.181  14.712  18.019  0.00  0.00    +0.000 A 
ATOM     31  C   UNL     1       2.366  13.683  18.496  0.00  0.00    +0.000 A 
ENDBRANCH  25  26
ENDBRANCH  24  25
ENDBRANCH  22  24
ENDBRANCH   2  19
TORSDOF 7
ENDMDL
MODEL 9
REMARK VINA RESULT:      -8.4      0.933      1.231
REMARK  Name = 
REMARK  7 active torsions:
REMARK  status: ('A' for Active; 'I' for Inactive)
REMARK    1  A    between atoms: C_2  and  C_18
REMARK    2  A    between atoms: N_3  and  C_4
REMARK    3  A    between atoms: C_8  and  C_9
REMARK    4  A    between atoms: N_13  and  C_14
REMARK    5  A    between atoms: C_21  and  C_22
REMARK    6  A    between atoms: C_22  and  O_23
REMARK    7  A    between atoms: O_23  and  C_24
REMARK                            x       y       z     vdW  Elec       q    Type
REMARK                         _______ _______ _______ _____ _____    ______ ____
ROOT
ATOM      1  O   UNL     1       2.086   8.408  18.237  0.00  0.00    +0.000 OA
ATOM      2  C   UNL     1       1.837   7.975  19.358  0.00  0.00    +0.000 C 
ATOM      3  N   UNL     1       1.978   6.639  19.723  0.00  0.00    +0.000 N 
ATOM      4  H   UNL     1       1.598   6.382  20.627  0.00  0.00    +0.000 HD
ENDROOT
BRANCH   3   5
ATOM      5  C   UNL     1       2.492   5.610  18.889  0.00  0.00    +0.000 A 
ATOM      6  C   UNL     1       1.673   4.645  18.296  0.00  0.00    +0.000 A 
ATOM      7  C   UNL     1       2.202   3.657  17.469  0.00  0.00    +0.000 A 
ATOM      8  C   UNL     1       3.570   3.616  17.213  0.00  0.00    +0.000 A 
ATOM      9  C   UNL     1       4.437   4.537  17.811  0.00  0.00    +0.000 A 
ATOM     10  C   UNL     1       3.871   5.553  18.625  0.00  0.00    +0.000 A 
BRANCH   9  11
ATOM     11  C   UNL     1       5.888   4.530  17.565  0.00  0.00    +0.000 A 
ATOM     12  N   UNL     1       6.791   4.239  18.492  0.00  0.00    +0.000 NA
ATOM     13  N   UNL     1       8.025   4.423  17.931  0.00  0.00    +0.000 NA
ATOM     14  N   UNL     1       7.921   4.806  16.672  0.00  0.00    +0.000 NA
ATOM     15  N   UNL     1       6.600   4.830  16.409  0.00  0.00    +0.000 N 
BRANCH  15  16
ATOM     16  C   UNL     1       6.107   5.111  15.070  0.00  0.00    +0.000 C 
ATOM     17  C   UNL     1       5.498   4.035  14.180  0.00  0.00    +0.000 C 
ATOM     18  C   UNL     1       6.848   4.569  13.852  0.00  0.00    +0.000 C 
ENDBRANCH  15  16
ENDBRANCH   9  11
ENDBRANCH   3   5
BRANCH   2  19
ATOM     19  C   UNL     1       1.338   8.882  20.379  0.00  0.00    +0.000 A 
ATOM     20  C   UNL     1       1.004   8.585  21.689  0.00  0.00    +0.000 A 
ATOM     21  C   UNL     1       0.529   9.772  22.278  0.00  0.00    +0.000 A 
ATOM     22  C   UNL     1       0.568  10.734  21.290  0.00  0.00    +0.000 A 
ATOM     23  O   UNL     1       1.083  10.207  20.130  0.00  0.00    +0.000 OA
BRANCH  22  24
ATOM     24  C   UNL     1       0.079  12.138  21.270  0.00  0.00    +0.000 C 
BRANCH  24  25
ATOM     25  O   UNL     1      -1.347  12.110  21.274  0.00  0.00    +0.000 OA
BRANCH  25  26
ATOM     26  C   UNL     1      -1.954  12.711  22.348  0.00  0.00    +0.000 A 
ATOM     27  C   UNL     1      -3.172  12.330  22.918  0.00  0.00    +0.000 A 
ATOM     28  C   UNL     1      -3.683  13.019  24.022  0.00  0.00    +0.000 A 
ATOM     29  C   UNL     1      -2.984  14.097  24.562  0.00  0.00    +0.000 A 
ATOM     30  C   UNL     1      -1.772  14.486  23.996  0.00  0.00    +0.000 A 
ATOM     31  C   UNL     1      -1.261  13.795  22.893  0.00  0.00    +0.000 A 
ENDBRANCH  25  26
ENDBRANCH  24  25
ENDBRANCH  22  24
ENDBRANCH   2  19
TORSDOF 7
ENDMDL
