MODEL 1
REMARK VINA RESULT:      -7.2      0.000      0.000
REMARK  Name = 
REMARK  5 active torsions:
REMARK  status: ('A' for Active; 'I' for Inactive)
REMARK    1  A    between atoms: C_1  and  C_2
REMARK    2  A    between atoms: C_2  and  C_3
REMARK    3  A    between atoms: C_5  and  N_6
REMARK    4  A    between atoms: N_13  and  C_14
REMARK    5  A    between atoms: C_14  and  C_15
REMARK                            x       y       z     vdW  Elec       q    Type
REMARK                         _______ _______ _______ _____ _____    ______ ____
ROOT
ATOM      1  N   UNL     1      -1.518  13.378  22.995  0.00  0.00    +0.000 N 
ATOM      2  C   UNL     1      -1.508  14.504  23.773  0.00  0.00    +0.000 C 
ATOM      3  O   UNL     1      -0.526  15.235  23.874  0.00  0.00    +0.000 OA
ATOM      4  N   UNL     1      -2.687  14.827  24.383  0.00  0.00    +0.000 N 
ATOM      5  C   UNL     1      -3.825  14.064  24.334  0.00  0.00    +0.000 A 
ATOM      6  C   UNL     1      -3.949  12.680  24.606  0.00  0.00    +0.000 A 
ATOM      7  C   UNL     1      -5.228  12.355  24.233  0.00  0.00    +0.000 A 
ATOM      8  N   UNL     1      -5.789  13.512  23.777  0.00  0.00    +0.000 N 
ATOM      9  N   UNL     1      -4.989  14.589  23.944  0.00  0.00    +0.000 NA
ATOM     10  H   UNL     1      -2.420  13.083  22.651  0.00  0.00    +0.000 HD
ATOM     11  H   UNL     1      -2.822  15.814  24.531  0.00  0.00    +0.000 HD
ENDROOT
BRANCH   1  16
ATOM     12  C   UNL     1       0.424  13.689  18.460  0.00  0.00    +0.000 C 
ATOM     13  C   UNL     1       0.580  13.054  19.849  0.00  0.00    +0.000 C 
ATOM     14  C   UNL     1       2.030  13.262  20.315  0.00  0.00    +0.000 C 
ATOM     15  C   UNL     1      -0.445  13.668  20.811  0.00  0.00    +0.000 C 
ATOM     16  C   UNL     1      -0.389  12.973  22.172  0.00  0.00    +0.000 C 
ATOM     17  C   UNL     1      -0.378  11.476  21.985  0.00  0.00    +0.000 A 
ATOM     18  C   UNL     1      -0.681  10.610  23.050  0.00  0.00    +0.000 A 
ATOM     19  C   UNL     1      -0.648   9.226  22.881  0.00  0.00    +0.000 A 
ATOM     20  C   UNL     1      -0.302   8.686  21.645  0.00  0.00    +0.000 A 
ATOM     21  C   UNL     1       0.016   9.533  20.585  0.00  0.00    +0.000 A 
ATOM     22  C   UNL     1      -0.008  10.919  20.756  0.00  0.00    +0.000 A 
ATOM     23  O   UNL     1       0.342  11.650  19.655  0.00  0.00    +0.000 OA
ENDBRANCH   1  16
BRANCH   8  24
ATOM     24  C   UNL     1      -7.027  13.625  23.016  0.00  0.00    +0.000 C 
BRANCH  24  25
ATOM     25  C   UNL     1      -7.135  12.565  21.955  0.00  0.00    +0.000 A 
ATOM     26  C   UNL     1      -6.498  12.723  20.722  0.00  0.00    +0.000 A 
ATOM     27  C   UNL     1      -6.621  11.720  19.775  0.00  0.00    +0.000 A 
ATOM     28  N   UNL     1      -7.314  10.579  19.979  0.00  0.00    +0.000 NA
ATOM     29  C   UNL     1      -7.913  10.440  21.180  0.00  0.00    +0.000 A 
ATOM     30  C   UNL     1      -7.855  11.388  22.188  0.00  0.00    +0.000 A 
ENDBRANCH  24  25
ENDBRANCH   8  24
TORSDOF 3
ENDMDL
MODEL 2
REMARK VINA RESULT:      -6.9      3.665      7.905
REMARK  Name = 
REMARK  5 active torsions:
REMARK  status: ('A' for Active; 'I' for Inactive)
REMARK    1  A    between atoms: C_1  and  C_2
REMARK    2  A    between atoms: C_2  and  C_3
REMARK    3  A    between atoms: C_5  and  N_6
REMARK    4  A    between atoms: N_13  and  C_14
REMARK    5  A    between atoms: C_14  and  C_15
REMARK                            x       y       z     vdW  Elec       q    Type
REMARK                         _______ _______ _______ _____ _____    ______ ____
ROOT
ATOM      1  N   UNL     1      -2.469  12.775  20.124  0.00  0.00    +0.000 N 
ATOM      2  C   UNL     1      -1.423  13.657  20.091  0.00  0.00    +0.000 C 
ATOM      3  O   UNL     1      -1.542  14.844  20.385  0.00  0.00    +0.000 OA
ATOM      4  N   UNL     1      -0.199  13.131  19.786  0.00  0.00    +0.000 N 
ATOM      5  C   UNL     1       0.023  11.824  19.435  0.00  0.00    +0.000 A 
ATOM      6  C   UNL     1      -0.658  11.067  18.451  0.00  0.00    +0.000 A 
ATOM      7  C   UNL     1      -0.210   9.782  18.615  0.00  0.00    +0.000 A 
ATOM      8  N   UNL     1       0.685   9.827  19.644  0.00  0.00    +0.000 N 
ATOM      9  N   UNL     1       0.930  11.085  20.077  0.00  0.00    +0.000 NA
ATOM     10  H   UNL     1      -2.229  11.805  20.270  0.00  0.00    +0.000 HD
ATOM     11  H   UNL     1       0.578  13.615  20.208  0.00  0.00    +0.000 HD
ENDROOT
BRANCH   1  16
ATOM     12  C   UNL     1      -5.520  12.817  24.013  0.00  0.00    +0.000 C 
ATOM     13  C   UNL     1      -5.401  13.108  22.509  0.00  0.00    +0.000 C 
ATOM     14  C   UNL     1      -5.975  14.507  22.241  0.00  0.00    +0.000 C 
ATOM     15  C   UNL     1      -3.936  12.975  22.076  0.00  0.00    +0.000 C 
ATOM     16  C   UNL     1      -3.805  13.146  20.562  0.00  0.00    +0.000 C 
ATOM     17  C   UNL     1      -4.846  12.311  19.858  0.00  0.00    +0.000 A 
ATOM     18  C   UNL     1      -4.730  12.009  18.491  0.00  0.00    +0.000 A 
ATOM     19  C   UNL     1      -5.705  11.257  17.837  0.00  0.00    +0.000 A 
ATOM     20  C   UNL     1      -6.818  10.802  18.539  0.00  0.00    +0.000 A 
ATOM     21  C   UNL     1      -6.954  11.108  19.892  0.00  0.00    +0.000 A 
ATOM     22  C   UNL     1      -5.982  11.869  20.546  0.00  0.00    +0.000 A 
ATOM     23  O   UNL     1      -6.230  12.125  21.866  0.00  0.00    +0.000 OA
ENDBRANCH   1  16
BRANCH   8  24
ATOM     24  C   UNL     1       1.217   8.681  20.371  0.00  0.00    +0.000 C 
BRANCH  24  25
ATOM     25  C   UNL     1       2.046   7.789  19.490  0.00  0.00    +0.000 A 
ATOM     26  C   UNL     1       2.599   8.275  18.302  0.00  0.00    +0.000 A 
ATOM     27  C   UNL     1       3.360   7.420  17.524  0.00  0.00    +0.000 A 
ATOM     28  N   UNL     1       3.616   6.135  17.852  0.00  0.00    +0.000 NA
ATOM     29  C   UNL     1       3.083   5.688  19.009  0.00  0.00    +0.000 A 
ATOM     30  C   UNL     1       2.303   6.463  19.852  0.00  0.00    +0.000 A 
ENDBRANCH  24  25
ENDBRANCH   8  24
TORSDOF 3
ENDMDL
MODEL 3
REMARK VINA RESULT:      -6.9      5.560      9.258
REMARK  Name = 
REMARK  5 active torsions:
REMARK  status: ('A' for Active; 'I' for Inactive)
REMARK    1  A    between atoms: C_1  and  C_2
REMARK    2  A    between atoms: C_2  and  C_3
REMARK    3  A    between atoms: C_5  and  N_6
REMARK    4  A    between atoms: N_13  and  C_14
REMARK    5  A    between atoms: C_14  and  C_15
REMARK                            x       y       z     vdW  Elec       q    Type
REMARK                         _______ _______ _______ _____ _____    ______ ____
ROOT
ATOM      1  N   UNL     1       0.381   9.568  20.203  0.00  0.00    +0.000 N 
ATOM      2  C   UNL     1       0.841   9.285  21.460  0.00  0.00    +0.000 C 
ATOM      3  O   UNL     1       0.556   9.965  22.443  0.00  0.00    +0.000 OA
ATOM      4  N   UNL     1       1.583   8.145  21.590  0.00  0.00    +0.000 N 
ATOM      5  C   UNL     1       1.957   7.336  20.548  0.00  0.00    +0.000 A 
ATOM      6  C   UNL     1       2.579   7.720  19.336  0.00  0.00    +0.000 A 
ATOM      7  C   UNL     1       2.569   6.594  18.555  0.00  0.00    +0.000 A 
ATOM      8  N   UNL     1       1.969   5.625  19.305  0.00  0.00    +0.000 N 
ATOM      9  N   UNL     1       1.699   6.026  20.569  0.00  0.00    +0.000 NA
ATOM     10  H   UNL     1       0.314   8.786  19.568  0.00  0.00    +0.000 HD
ATOM     11  H   UNL     1       1.509   7.701  22.492  0.00  0.00    +0.000 HD
ENDROOT
BRANCH   1  16
ATOM     12  C   UNL     1      -3.065  11.171  17.042  0.00  0.00    +0.000 C 
ATOM     13  C   UNL     1      -2.234  11.535  18.282  0.00  0.00    +0.000 C 
ATOM     14  C   UNL     1      -3.184  12.087  19.355  0.00  0.00    +0.000 C 
ATOM     15  C   UNL     1      -1.455  10.302  18.756  0.00  0.00    +0.000 C 
ATOM     16  C   UNL     1      -0.531  10.664  19.920  0.00  0.00    +0.000 C 
ATOM     17  C   UNL     1       0.235  11.923  19.595  0.00  0.00    +0.000 A 
ATOM     18  C   UNL     1       1.387  12.278  20.318  0.00  0.00    +0.000 A 
ATOM     19  C   UNL     1       2.080  13.453  20.032  0.00  0.00    +0.000 A 
ATOM     20  C   UNL     1       1.627  14.298  19.023  0.00  0.00    +0.000 A 
ATOM     21  C   UNL     1       0.477  13.966  18.308  0.00  0.00    +0.000 A 
ATOM     22  C   UNL     1      -0.224  12.794  18.600  0.00  0.00    +0.000 A 
ATOM     23  O   UNL     1      -1.347  12.582  17.851  0.00  0.00    +0.000 OA
ENDBRANCH   1  16
BRANCH   8  24
ATOM     24  C   UNL     1       1.475   4.343  18.818  0.00  0.00    +0.000 C 
BRANCH  24  25
ATOM     25  C   UNL     1       2.501   3.254  18.955  0.00  0.00    +0.000 A 
ATOM     26  C   UNL     1       2.629   2.267  17.974  0.00  0.00    +0.000 A 
ATOM     27  C   UNL     1       3.591   1.285  18.139  0.00  0.00    +0.000 A 
ATOM     28  N   UNL     1       4.432   1.230  19.195  0.00  0.00    +0.000 NA
ATOM     29  C   UNL     1       4.300   2.198  20.126  0.00  0.00    +0.000 A 
ATOM     30  C   UNL     1       3.365   3.218  20.055  0.00  0.00    +0.000 A 
ENDBRANCH  24  25
ENDBRANCH   8  24
TORSDOF 3
ENDMDL
MODEL 4
REMARK VINA RESULT:      -6.7      5.407      8.013
REMARK  Name = 
REMARK  5 active torsions:
REMARK  status: ('A' for Active; 'I' for Inactive)
REMARK    1  A    between atoms: C_1  and  C_2
REMARK    2  A    between atoms: C_2  and  C_3
REMARK    3  A    between atoms: C_5  and  N_6
REMARK    4  A    between atoms: N_13  and  C_14
REMARK    5  A    between atoms: C_14  and  C_15
REMARK                            x       y       z     vdW  Elec       q    Type
REMARK                         _______ _______ _______ _____ _____    ______ ____
ROOT
ATOM      1  N   UNL     1       1.745   8.112  19.596  0.00  0.00    +0.000 N 
ATOM      2  C   UNL     1       1.418   8.417  20.890  0.00  0.00    +0.000 C 
ATOM      3  O   UNL     1       1.944   7.872  21.856  0.00  0.00    +0.000 OA
ATOM      4  N   UNL     1       0.517   9.431  21.062  0.00  0.00    +0.000 N 
ATOM      5  C   UNL     1      -0.126  10.084  20.043  0.00  0.00    +0.000 A 
ATOM      6  C   UNL     1      -0.831   9.510  18.958  0.00  0.00    +0.000 A 
ATOM      7  C   UNL     1      -1.118  10.557  18.121  0.00  0.00    +0.000 A 
ATOM      8  N   UNL     1      -0.595  11.666  18.720  0.00  0.00    +0.000 N 
ATOM      9  N   UNL     1      -0.093  11.416  19.951  0.00  0.00    +0.000 NA
ATOM     10  H   UNL     1       1.592   8.842  18.915  0.00  0.00    +0.000 HD
ATOM     11  H   UNL     1       0.636   9.951  21.917  0.00  0.00    +0.000 HD
ENDROOT
BRANCH   1  16
ATOM     12  C   UNL     1       4.804   6.701  15.979  0.00  0.00    +0.000 C 
ATOM     13  C   UNL     1       4.296   6.373  17.391  0.00  0.00    +0.000 C 
ATOM     14  C   UNL     1       5.513   6.138  18.299  0.00  0.00    +0.000 C 
ATOM     15  C   UNL     1       3.395   7.510  17.889  0.00  0.00    +0.000 C 
ATOM     16  C   UNL     1       2.783   7.157  19.245  0.00  0.00    +0.000 C 
ATOM     17  C   UNL     1       2.226   5.755  19.209  0.00  0.00    +0.000 A 
ATOM     18  C   UNL     1       1.313   5.313  20.182  0.00  0.00    +0.000 A 
ATOM     19  C   UNL     1       0.817   4.010  20.160  0.00  0.00    +0.000 A 
ATOM     20  C   UNL     1       1.234   3.125  19.169  0.00  0.00    +0.000 A 
ATOM     21  C   UNL     1       2.151   3.546  18.207  0.00  0.00    +0.000 A 
ATOM     22  C   UNL     1       2.655   4.848  18.233  0.00  0.00    +0.000 A 
ATOM     23  O   UNL     1       3.563   5.143  17.255  0.00  0.00    +0.000 OA
ENDBRANCH   1  16
BRANCH   8  24
ATOM     24  C   UNL     1      -0.396  12.967  18.094  0.00  0.00    +0.000 C 
BRANCH  24  25
ATOM     25  C   UNL     1       0.870  13.630  18.560  0.00  0.00    +0.000 A 
ATOM     26  C   UNL     1       2.114  13.196  18.094  0.00  0.00    +0.000 A 
ATOM     27  C   UNL     1       3.255  13.838  18.546  0.00  0.00    +0.000 A 
ATOM     28  N   UNL     1       3.238  14.878  19.408  0.00  0.00    +0.000 NA
ATOM     29  C   UNL     1       2.026  15.289  19.837  0.00  0.00    +0.000 A 
ATOM     30  C   UNL     1       0.830  14.708  19.449  0.00  0.00    +0.000 A 
ENDBRANCH  24  25
ENDBRANCH   8  24
TORSDOF 3
ENDMDL
MODEL 5
REMARK VINA RESULT:      -6.6      3.457      7.800
REMARK  Name = 
REMARK  5 active torsions:
REMARK  status: ('A' for Active; 'I' for Inactive)
REMARK    1  A    between atoms: C_1  and  C_2
REMARK    2  A    between atoms: C_2  and  C_3
REMARK    3  A    between atoms: C_5  and  N_6
REMARK    4  A    between atoms: N_13  and  C_14
REMARK    5  A    between atoms: C_14  and  C_15
REMARK                            x       y       z     vdW  Elec       q    Type
REMARK                         _______ _______ _______ _____ _____    ______ ____
ROOT
ATOM      1  N   UNL     1      -2.369  12.748  20.738  0.00  0.00    +0.000 N 
ATOM      2  C   UNL     1      -1.384  13.590  20.297  0.00  0.00    +0.000 C 
ATOM      3  O   UNL     1      -1.467  14.813  20.379  0.00  0.00    +0.000 OA
ATOM      4  N   UNL     1      -0.249  12.995  19.822  0.00  0.00    +0.000 N 
ATOM      5  C   UNL     1      -0.077  11.643  19.684  0.00  0.00    +0.000 A 
ATOM      6  C   UNL     1      -0.943  10.722  19.047  0.00  0.00    +0.000 A 
ATOM      7  C   UNL     1      -0.433   9.485  19.343  0.00  0.00    +0.000 A 
ATOM      8  N   UNL     1       0.674   9.712  20.109  0.00  0.00    +0.000 N 
ATOM      9  N   UNL     1       0.976  11.025  20.226  0.00  0.00    +0.000 NA
ATOM     10  H   UNL     1      -2.073  11.821  21.006  0.00  0.00    +0.000 HD
ATOM     11  H   UNL     1       0.590  13.538  19.952  0.00  0.00    +0.000 HD
ENDROOT
BRANCH   1  16
ATOM     12  C   UNL     1      -4.992  12.481  24.919  0.00  0.00    +0.000 C 
ATOM     13  C   UNL     1      -4.968  13.036  23.487  0.00  0.00    +0.000 C 
ATOM     14  C   UNL     1      -5.325  14.530  23.542  0.00  0.00    +0.000 C 
ATOM     15  C   UNL     1      -3.592  12.778  22.860  0.00  0.00    +0.000 C 
ATOM     16  C   UNL     1      -3.578  13.218  21.396  0.00  0.00    +0.000 C 
ATOM     17  C   UNL     1      -4.804  12.695  20.689  0.00  0.00    +0.000 A 
ATOM     18  C   UNL     1      -4.868  12.649  19.286  0.00  0.00    +0.000 A 
ATOM     19  C   UNL     1      -6.012  12.188  18.635  0.00  0.00    +0.000 A 
ATOM     20  C   UNL     1      -7.113  11.773  19.377  0.00  0.00    +0.000 A 
ATOM     21  C   UNL     1      -7.069  11.827  20.770  0.00  0.00    +0.000 A 
ATOM     22  C   UNL     1      -5.928  12.299  21.423  0.00  0.00    +0.000 A 
ATOM     23  O   UNL     1      -6.005  12.327  22.787  0.00  0.00    +0.000 OA
ENDBRANCH   1  16
BRANCH   8  24
ATOM     24  C   UNL     1       1.392   8.718  20.897  0.00  0.00    +0.000 C 
BRANCH  24  25
ATOM     25  C   UNL     1       1.888   7.579  20.051  0.00  0.00    +0.000 A 
ATOM     26  C   UNL     1       1.801   6.261  20.507  0.00  0.00    +0.000 A 
ATOM     27  C   UNL     1       2.267   5.243  19.693  0.00  0.00    +0.000 A 
ATOM     28  N   UNL     1       2.793   5.446  18.466  0.00  0.00    +0.000 NA
ATOM     29  C   UNL     1       2.858   6.724  18.038  0.00  0.00    +0.000 A 
ATOM     30  C   UNL     1       2.425   7.811  18.780  0.00  0.00    +0.000 A 
ENDBRANCH  24  25
ENDBRANCH   8  24
TORSDOF 3
ENDMDL
MODEL 6
REMARK VINA RESULT:      -6.5      1.377      1.625
REMARK  Name = 
REMARK  5 active torsions:
REMARK  status: ('A' for Active; 'I' for Inactive)
REMARK    1  A    between atoms: C_1  and  C_2
REMARK    2  A    between atoms: C_2  and  C_3
REMARK    3  A    between atoms: C_5  and  N_6
REMARK    4  A    between atoms: N_13  and  C_14
REMARK    5  A    between atoms: C_14  and  C_15
REMARK                            x       y       z     vdW  Elec       q    Type
REMARK                         _______ _______ _______ _____ _____    ______ ____
ROOT
ATOM      1  N   UNL     1      -1.904  13.439  22.817  0.00  0.00    +0.000 N 
ATOM      2  C   UNL     1      -1.740  14.300  23.867  0.00  0.00    +0.000 C 
ATOM      3  O   UNL     1      -0.649  14.777  24.174  0.00  0.00    +0.000 OA
ATOM      4  N   UNL     1      -2.878  14.675  24.524  0.00  0.00    +0.000 N 
ATOM      5  C   UNL     1      -4.130  14.186  24.257  0.00  0.00    +0.000 A 
ATOM      6  C   UNL     1      -4.522  12.830  24.148  0.00  0.00    +0.000 A 
ATOM      7  C   UNL     1      -5.811  12.865  23.683  0.00  0.00    +0.000 A 
ATOM      8  N   UNL     1      -6.121  14.187  23.545  0.00  0.00    +0.000 N 
ATOM      9  N   UNL     1      -5.150  15.009  24.005  0.00  0.00    +0.000 NA
ATOM     10  H   UNL     1      -2.821  13.423  22.394  0.00  0.00    +0.000 HD
ATOM     11  H   UNL     1      -2.839  15.598  24.929  0.00  0.00    +0.000 HD
ENDROOT
BRANCH   1  16
ATOM     12  C   UNL     1      -0.434  13.376  18.098  0.00  0.00    +0.000 C 
ATOM     13  C   UNL     1      -0.080  12.939  19.527  0.00  0.00    +0.000 C 
ATOM     14  C   UNL     1       1.373  13.348  19.811  0.00  0.00    +0.000 C 
ATOM     15  C   UNL     1      -1.076  13.560  20.514  0.00  0.00    +0.000 C 
ATOM     16  C   UNL     1      -0.817  13.050  21.932  0.00  0.00    +0.000 C 
ATOM     17  C   UNL     1      -0.654  11.550  21.917  0.00  0.00    +0.000 A 
ATOM     18  C   UNL     1      -0.758  10.798  23.100  0.00  0.00    +0.000 A 
ATOM     19  C   UNL     1      -0.584   9.414  23.088  0.00  0.00    +0.000 A 
ATOM     20  C   UNL     1      -0.294   8.762  21.893  0.00  0.00    +0.000 A 
ATOM     21  C   UNL     1      -0.173   9.498  20.715  0.00  0.00    +0.000 A 
ATOM     22  C   UNL     1      -0.338  10.885  20.728  0.00  0.00    +0.000 A 
ATOM     23  O   UNL     1      -0.175  11.504  19.520  0.00  0.00    +0.000 OA
ENDBRANCH   1  16
BRANCH   8  24
ATOM     24  C   UNL     1      -7.265  14.730  22.823  0.00  0.00    +0.000 C 
BRANCH  24  25
ATOM     25  C   UNL     1      -7.089  14.635  21.333  0.00  0.00    +0.000 A 
ATOM     26  C   UNL     1      -6.492  15.676  20.619  0.00  0.00    +0.000 A 
ATOM     27  C   UNL     1      -6.346  15.544  19.248  0.00  0.00    +0.000 A 
ATOM     28  N   UNL     1      -6.737  14.454  18.554  0.00  0.00    +0.000 NA
ATOM     29  C   UNL     1      -7.302  13.454  19.264  0.00  0.00    +0.000 A 
ATOM     30  C   UNL     1      -7.497  13.494  20.635  0.00  0.00    +0.000 A 
ENDBRANCH  24  25
ENDBRANCH   8  24
TORSDOF 3
ENDMDL
MODEL 7
REMARK VINA RESULT:      -6.5      7.322     10.625
REMARK  Name = 
REMARK  5 active torsions:
REMARK  status: ('A' for Active; 'I' for Inactive)
REMARK    1  A    between atoms: C_1  and  C_2
REMARK    2  A    between atoms: C_2  and  C_3
REMARK    3  A    between atoms: C_5  and  N_6
REMARK    4  A    between atoms: N_13  and  C_14
REMARK    5  A    between atoms: C_14  and  C_15
REMARK                            x       y       z     vdW  Elec       q    Type
REMARK                         _______ _______ _______ _____ _____    ______ ____
ROOT
ATOM      1  N   UNL     1       8.522  15.177  19.913  0.00  0.00    +0.000 N 
ATOM      2  C   UNL     1       8.903  16.099  18.976  0.00  0.00    +0.000 C 
ATOM      3  O   UNL     1       9.938  15.996  18.323  0.00  0.00    +0.000 OA
ATOM      4  N   UNL     1       8.023  17.118  18.738  0.00  0.00    +0.000 N 
ATOM      5  C   UNL     1       6.854  17.315  19.426  0.00  0.00    +0.000 A 
ATOM      6  C   UNL     1       6.674  17.356  20.830  0.00  0.00    +0.000 A 
ATOM      7  C   UNL     1       5.317  17.381  21.017  0.00  0.00    +0.000 A 
ATOM      8  N   UNL     1       4.768  17.359  19.768  0.00  0.00    +0.000 N 
ATOM      9  N   UNL     1       5.691  17.441  18.783  0.00  0.00    +0.000 NA
ATOM     10  H   UNL     1       7.530  15.109  20.092  0.00  0.00    +0.000 HD
ATOM     11  H   UNL     1       8.051  17.480  17.798  0.00  0.00    +0.000 HD
ENDROOT
BRANCH   1  16
ATOM     12  C   UNL     1       9.206  10.501  18.465  0.00  0.00    +0.000 C 
ATOM     13  C   UNL     1       9.586  11.557  19.513  0.00  0.00    +0.000 C 
ATOM     14  C   UNL     1      11.117  11.576  19.647  0.00  0.00    +0.000 C 
ATOM     15  C   UNL     1       9.011  12.918  19.101  0.00  0.00    +0.000 C 
ATOM     16  C   UNL     1       9.276  13.965  20.185  0.00  0.00    +0.000 C 
ATOM     17  C   UNL     1       8.915  13.406  21.539  0.00  0.00    +0.000 A 
ATOM     18  C   UNL     1       8.728  14.252  22.646  0.00  0.00    +0.000 A 
ATOM     19  C   UNL     1       8.416  13.732  23.902  0.00  0.00    +0.000 A 
ATOM     20  C   UNL     1       8.296  12.355  24.072  0.00  0.00    +0.000 A 
ATOM     21  C   UNL     1       8.495  11.504  22.987  0.00  0.00    +0.000 A 
ATOM     22  C   UNL     1       8.816  12.023  21.730  0.00  0.00    +0.000 A 
ATOM     23  O   UNL     1       9.009  11.094  20.746  0.00  0.00    +0.000 OA
ENDBRANCH   1  16
BRANCH   8  24
ATOM     24  C   UNL     1       3.371  17.092  19.448  0.00  0.00    +0.000 C 
BRANCH  24  25
ATOM     25  C   UNL     1       3.064  15.620  19.448  0.00  0.00    +0.000 A 
ATOM     26  C   UNL     1       2.630  14.983  20.612  0.00  0.00    +0.000 A 
ATOM     27  C   UNL     1       2.354  13.626  20.565  0.00  0.00    +0.000 A 
ATOM     28  N   UNL     1       2.467  12.877  19.447  0.00  0.00    +0.000 NA
ATOM     29  C   UNL     1       2.878  13.514  18.330  0.00  0.00    +0.000 A 
ATOM     30  C   UNL     1       3.183  14.864  18.277  0.00  0.00    +0.000 A 
ENDBRANCH  24  25
ENDBRANCH   8  24
TORSDOF 3
ENDMDL
MODEL 8
REMARK VINA RESULT:      -6.4      2.664      6.932
REMARK  Name = 
REMARK  5 active torsions:
REMARK  status: ('A' for Active; 'I' for Inactive)
REMARK    1  A    between atoms: C_1  and  C_2
REMARK    2  A    between atoms: C_2  and  C_3
REMARK    3  A    between atoms: C_5  and  N_6
REMARK    4  A    between atoms: N_13  and  C_14
REMARK    5  A    between atoms: C_14  and  C_15
REMARK                            x       y       z     vdW  Elec       q    Type
REMARK                         _______ _______ _______ _____ _____    ______ ____
ROOT
ATOM      1  N   UNL     1      -3.576  14.030  20.383  0.00  0.00    +0.000 N 
ATOM      2  C   UNL     1      -2.965  15.251  20.484  0.00  0.00    +0.000 C 
ATOM      3  O   UNL     1      -3.552  16.261  20.864  0.00  0.00    +0.000 OA
ATOM      4  N   UNL     1      -1.626  15.280  20.212  0.00  0.00    +0.000 N 
ATOM      5  C   UNL     1      -0.896  14.206  19.772  0.00  0.00    +0.000 A 
ATOM      6  C   UNL     1      -1.197  13.342  18.692  0.00  0.00    +0.000 A 
ATOM      7  C   UNL     1      -0.279  12.327  18.779  0.00  0.00    +0.000 A 
ATOM      8  N   UNL     1       0.500  12.620  19.861  0.00  0.00    +0.000 N 
ATOM      9  N   UNL     1       0.215  13.824  20.406  0.00  0.00    +0.000 NA
ATOM     10  H   UNL     1      -2.974  13.223  20.466  0.00  0.00    +0.000 HD
ATOM     11  H   UNL     1      -1.115  15.987  20.717  0.00  0.00    +0.000 HD
ENDROOT
BRANCH   1  16
ATOM     12  C   UNL     1      -6.499  12.700  24.141  0.00  0.00    +0.000 C 
ATOM     13  C   UNL     1      -6.461  13.053  22.647  0.00  0.00    +0.000 C 
ATOM     14  C   UNL     1      -7.555  14.096  22.369  0.00  0.00    +0.000 C 
ATOM     15  C   UNL     1      -5.059  13.552  22.274  0.00  0.00    +0.000 C 
ATOM     16  C   UNL     1      -4.960  13.802  20.769  0.00  0.00    +0.000 C 
ATOM     17  C   UNL     1      -5.535  12.630  20.013  0.00  0.00    +0.000 A 
ATOM     18  C   UNL     1      -5.258  12.440  18.649  0.00  0.00    +0.000 A 
ATOM     19  C   UNL     1      -5.810  11.369  17.947  0.00  0.00    +0.000 A 
ATOM     20  C   UNL     1      -6.656  10.475  18.597  0.00  0.00    +0.000 A 
ATOM     21  C   UNL     1      -6.953  10.660  19.946  0.00  0.00    +0.000 A 
ATOM     22  C   UNL     1      -6.408  11.738  20.648  0.00  0.00    +0.000 A 
ATOM     23  O   UNL     1      -6.784  11.833  21.959  0.00  0.00    +0.000 OA
ENDBRANCH   1  16
BRANCH   8  24
ATOM     24  C   UNL     1       1.425  11.710  20.525  0.00  0.00    +0.000 C 
BRANCH  24  25
ATOM     25  C   UNL     1       0.709  10.585  21.218  0.00  0.00    +0.000 A 
ATOM     26  C   UNL     1       0.875   9.265  20.793  0.00  0.00    +0.000 A 
ATOM     27  C   UNL     1       0.200   8.259  21.464  0.00  0.00    +0.000 A 
ATOM     28  N   UNL     1      -0.607   8.477  22.525  0.00  0.00    +0.000 NA
ATOM     29  C   UNL     1      -0.746   9.758  22.927  0.00  0.00    +0.000 A 
ATOM     30  C   UNL     1      -0.119  10.833  22.318  0.00  0.00    +0.000 A 
ENDBRANCH  24  25
ENDBRANCH   8  24
TORSDOF 3
ENDMDL
MODEL 9
REMARK VINA RESULT:      -6.3      6.998     10.261
REMARK  Name = 
REMARK  5 active torsions:
REMARK  status: ('A' for Active; 'I' for Inactive)
REMARK    1  A    between atoms: C_1  and  C_2
REMARK    2  A    between atoms: C_2  and  C_3
REMARK    3  A    between atoms: C_5  and  N_6
REMARK    4  A    between atoms: N_13  and  C_14
REMARK    5  A    between atoms: C_14  and  C_15
REMARK                            x       y       z     vdW  Elec       q    Type
REMARK                         _______ _______ _______ _____ _____    ______ ____
ROOT
ATOM      1  N   UNL     1       8.215  15.258  20.366  0.00  0.00    +0.000 N 
ATOM      2  C   UNL     1       8.702  16.455  19.915  0.00  0.00    +0.000 C 
ATOM      3  O   UNL     1       9.902  16.670  19.760  0.00  0.00    +0.000 OA
ATOM      4  N   UNL     1       7.771  17.392  19.565  0.00  0.00    +0.000 N 
ATOM      5  C   UNL     1       6.418  17.241  19.715  0.00  0.00    +0.000 A 
ATOM      6  C   UNL     1       5.718  16.838  20.878  0.00  0.00    +0.000 A 
ATOM      7  C   UNL     1       4.422  16.653  20.470  0.00  0.00    +0.000 A 
ATOM      8  N   UNL     1       4.405  16.946  19.137  0.00  0.00    +0.000 N 
ATOM      9  N   UNL     1       5.587  17.423  18.686  0.00  0.00    +0.000 NA
ATOM     10  H   UNL     1       7.272  15.028  20.086  0.00  0.00    +0.000 HD
ATOM     11  H   UNL     1       8.069  18.020  18.835  0.00  0.00    +0.000 HD
ENDROOT
BRANCH   1  16
ATOM     12  C   UNL     1       9.410  10.709  18.846  0.00  0.00    +0.000 C 
ATOM     13  C   UNL     1       9.634  11.765  19.939  0.00  0.00    +0.000 C 
ATOM     14  C   UNL     1      11.146  11.920  20.158  0.00  0.00    +0.000 C 
ATOM     15  C   UNL     1       8.955  13.078  19.529  0.00  0.00    +0.000 C 
ATOM     16  C   UNL     1       9.064  14.112  20.650  0.00  0.00    +0.000 C 
ATOM     17  C   UNL     1       8.685  13.483  21.968  0.00  0.00    +0.000 A 
ATOM     18  C   UNL     1       8.362  14.276  23.083  0.00  0.00    +0.000 A 
ATOM     19  C   UNL     1       8.034  13.693  24.307  0.00  0.00    +0.000 A 
ATOM     20  C   UNL     1       8.035  12.307  24.437  0.00  0.00    +0.000 A 
ATOM     21  C   UNL     1       8.370  11.509  23.344  0.00  0.00    +0.000 A 
ATOM     22  C   UNL     1       8.707  12.092  22.120  0.00  0.00    +0.000 A 
ATOM     23  O   UNL     1       9.037  11.215  21.126  0.00  0.00    +0.000 OA
ENDBRANCH   1  16
BRANCH   8  24
ATOM     24  C   UNL     1       3.332  16.631  18.203  0.00  0.00    +0.000 C 
BRANCH  24  25
ATOM     25  C   UNL     1       2.660  15.327  18.533  0.00  0.00    +0.000 A 
ATOM     26  C   UNL     1       3.277  14.111  18.230  0.00  0.00    +0.000 A 
ATOM     27  C   UNL     1       2.624  12.934  18.556  0.00  0.00    +0.000 A 
ATOM     28  N   UNL     1       1.421  12.889  19.168  0.00  0.00    +0.000 NA
ATOM     29  C   UNL     1       0.847  14.075  19.463  0.00  0.00    +0.000 A 
ATOM     30  C   UNL     1       1.416  15.304  19.172  0.00  0.00    +0.000 A 
ENDBRANCH  24  25
ENDBRANCH   8  24
TORSDOF 3
ENDMDL
