MODEL 1
REMARK VINA RESULT:      -7.8      0.000      0.000
REMARK  Name = 
REMARK  5 active torsions:
REMARK  status: ('A' for Active; 'I' for Inactive)
REMARK    1  A    between atoms: C_2  and  C_17
REMARK    2  A    between atoms: N_3  and  C_4
REMARK    3  A    between atoms: C_7  and  O_8
REMARK    4  A    between atoms: O_8  and  C_9
REMARK    5  A    between atoms: C_22  and  N_23
REMARK                            x       y       z     vdW  Elec       q    Type
REMARK                         _______ _______ _______ _____ _____    ______ ____
ROOT
ATOM      1  O   UNL     1       1.580  10.034  22.325  0.00  0.00    +0.000 OA
ATOM      2  C   UNL     1       0.668  10.275  21.545  0.00  0.00    +0.000 C 
ATOM      3  N   UNL     1       0.424   9.682  20.326  0.00  0.00    +0.000 N 
ATOM      4  H   UNL     1      -0.358  10.015  19.774  0.00  0.00    +0.000 HD
ENDROOT
BRANCH   3   5
ATOM      5  C   UNL     1       1.250   8.715  19.706  0.00  0.00    +0.000 A 
ATOM      6  C   UNL     1       1.616   7.521  20.330  0.00  0.00    +0.000 A 
ATOM      7  C   UNL     1       2.513   6.645  19.723  0.00  0.00    +0.000 A 
ATOM      8  C   UNL     1       2.989   6.903  18.440  0.00  0.00    +0.000 A 
ATOM      9  C   UNL     1       2.627   8.091  17.804  0.00  0.00    +0.000 A 
ATOM     10  C   UNL     1       1.757   8.992  18.432  0.00  0.00    +0.000 A 
BRANCH   8  11
ATOM     11  O   UNL     1       3.848   6.073  17.757  0.00  0.00    +0.000 OA
BRANCH  11  12
ATOM     12  C   UNL     1       5.197   6.118  18.039  0.00  0.00    +0.000 A 
ATOM     13  C   UNL     1       5.810   5.362  19.044  0.00  0.00    +0.000 A 
ATOM     14  C   UNL     1       7.176   5.500  19.290  0.00  0.00    +0.000 A 
ATOM     15  C   UNL     1       7.945   6.343  18.491  0.00  0.00    +0.000 A 
ATOM     16  C   UNL     1       7.351   7.049  17.446  0.00  0.00    +0.000 A 
ATOM     17  C   UNL     1       5.976   6.940  17.221  0.00  0.00    +0.000 A 
ENDBRANCH  11  12
ENDBRANCH   8  11
ENDBRANCH   3   5
BRANCH   2  18
ATOM     18  C   UNL     1      -0.250  11.367  21.938  0.00  0.00    +0.000 A 
ATOM     19  C   UNL     1      -1.355  11.027  22.734  0.00  0.00    +0.000 A 
ATOM     20  C   UNL     1      -2.124  12.022  23.334  0.00  0.00    +0.000 A 
ATOM     21  C   UNL     1      -1.765  13.359  23.180  0.00  0.00    +0.000 A 
ATOM     22  C   UNL     1      -0.665  13.709  22.395  0.00  0.00    +0.000 A 
ATOM     23  C   UNL     1       0.082  12.719  21.729  0.00  0.00    +0.000 A 
BRANCH  23  24
ATOM     24  N   UNL     1       1.110  13.145  20.846  0.00  0.00    +0.000 N 
ATOM     25  C   UNL     1       1.096  13.323  19.482  0.00  0.00    +0.000 A 
ATOM     26  N   UNL     1       2.243  13.829  19.092  0.00  0.00    +0.000 NA
ATOM     27  N   UNL     1       2.983  13.990  20.230  0.00  0.00    +0.000 NA
ATOM     28  N   UNL     1       2.294  13.624  21.301  0.00  0.00    +0.000 NA
ENDBRANCH  23  24
ENDBRANCH   2  18
TORSDOF 5
ENDMDL
MODEL 2
REMARK VINA RESULT:      -7.8      1.748      2.673
REMARK  Name = 
REMARK  5 active torsions:
REMARK  status: ('A' for Active; 'I' for Inactive)
REMARK    1  A    between atoms: C_2  and  C_17
REMARK    2  A    between atoms: N_3  and  C_4
REMARK    3  A    between atoms: C_7  and  O_8
REMARK    4  A    between atoms: O_8  and  C_9
REMARK    5  A    between atoms: C_22  and  N_23
REMARK                            x       y       z     vdW  Elec       q    Type
REMARK                         _______ _______ _______ _____ _____    ______ ____
ROOT
ATOM      1  O   UNL     1       1.615   9.796  22.294  0.00  0.00    +0.000 OA
ATOM      2  C   UNL     1       0.770  10.106  21.465  0.00  0.00    +0.000 C 
ATOM      3  N   UNL     1       0.623   9.612  20.187  0.00  0.00    +0.000 N 
ATOM      4  H   UNL     1      -0.111   9.995  19.602  0.00  0.00    +0.000 HD
ENDROOT
BRANCH   3   5
ATOM      5  C   UNL     1       1.494   8.689  19.561  0.00  0.00    +0.000 A 
ATOM      6  C   UNL     1       2.018   8.892  18.284  0.00  0.00    +0.000 A 
ATOM      7  C   UNL     1       2.789   7.910  17.665  0.00  0.00    +0.000 A 
ATOM      8  C   UNL     1       3.125   6.745  18.350  0.00  0.00    +0.000 A 
ATOM      9  C   UNL     1       2.610   6.533  19.629  0.00  0.00    +0.000 A 
ATOM     10  C   UNL     1       1.801   7.502  20.235  0.00  0.00    +0.000 A 
BRANCH   8  11
ATOM     11  O   UNL     1       3.910   5.743  17.824  0.00  0.00    +0.000 OA
BRANCH  11  12
ATOM     12  C   UNL     1       3.589   4.428  18.086  0.00  0.00    +0.000 A 
ATOM     13  C   UNL     1       2.548   3.738  17.454  0.00  0.00    +0.000 A 
ATOM     14  C   UNL     1       2.266   2.419  17.808  0.00  0.00    +0.000 A 
ATOM     15  C   UNL     1       3.061   1.765  18.746  0.00  0.00    +0.000 A 
ATOM     16  C   UNL     1       4.140   2.428  19.331  0.00  0.00    +0.000 A 
ATOM     17  C   UNL     1       4.402   3.760  19.003  0.00  0.00    +0.000 A 
ENDBRANCH  11  12
ENDBRANCH   8  11
ENDBRANCH   3   5
BRANCH   2  18
ATOM     18  C   UNL     1      -0.174  11.172  21.868  0.00  0.00    +0.000 A 
ATOM     19  C   UNL     1      -1.177  10.833  22.790  0.00  0.00    +0.000 A 
ATOM     20  C   UNL     1      -1.947  11.827  23.390  0.00  0.00    +0.000 A 
ATOM     21  C   UNL     1      -1.688  13.167  23.108  0.00  0.00    +0.000 A 
ATOM     22  C   UNL     1      -0.690  13.515  22.196  0.00  0.00    +0.000 A 
ATOM     23  C   UNL     1       0.051  12.521  21.532  0.00  0.00    +0.000 A 
BRANCH  23  24
ATOM     24  N   UNL     1       0.964  12.934  20.524  0.00  0.00    +0.000 N 
ATOM     25  C   UNL     1       2.232  13.459  20.631  0.00  0.00    +0.000 A 
ATOM     26  N   UNL     1       2.751  13.601  19.434  0.00  0.00    +0.000 NA
ATOM     27  N   UNL     1       1.805  13.140  18.562  0.00  0.00    +0.000 NA
ATOM     28  N   UNL     1       0.739  12.692  19.209  0.00  0.00    +0.000 NA
ENDBRANCH  23  24
ENDBRANCH   2  18
TORSDOF 5
ENDMDL
MODEL 3
REMARK VINA RESULT:      -7.7      0.546      1.520
REMARK  Name = 
REMARK  5 active torsions:
REMARK  status: ('A' for Active; 'I' for Inactive)
REMARK    1  A    between atoms: C_2  and  C_17
REMARK    2  A    between atoms: N_3  and  C_4
REMARK    3  A    between atoms: C_7  and  O_8
REMARK    4  A    between atoms: O_8  and  C_9
REMARK    5  A    between atoms: C_22  and  N_23
REMARK                            x       y       z     vdW  Elec       q    Type
REMARK                         _______ _______ _______ _____ _____    ______ ____
ROOT
ATOM      1  O   UNL     1       1.301   9.958  22.429  0.00  0.00    +0.000 OA
ATOM      2  C   UNL     1       0.512  10.355  21.581  0.00  0.00    +0.000 C 
ATOM      3  N   UNL     1       0.404   9.939  20.272  0.00  0.00    +0.000 N 
ATOM      4  H   UNL     1      -0.281  10.390  19.676  0.00  0.00    +0.000 HD
ENDROOT
BRANCH   3   5
ATOM      5  C   UNL     1       1.259   9.009  19.635  0.00  0.00    +0.000 A 
ATOM      6  C   UNL     1       1.735   9.187  18.335  0.00  0.00    +0.000 A 
ATOM      7  C   UNL     1       2.491   8.198  17.710  0.00  0.00    +0.000 A 
ATOM      8  C   UNL     1       2.860   7.050  18.407  0.00  0.00    +0.000 A 
ATOM      9  C   UNL     1       2.394   6.862  19.708  0.00  0.00    +0.000 A 
ATOM     10  C   UNL     1       1.599   7.839  20.323  0.00  0.00    +0.000 A 
BRANCH   8  11
ATOM     11  O   UNL     1       3.633   6.043  17.875  0.00  0.00    +0.000 OA
BRANCH  11  12
ATOM     12  C   UNL     1       5.004   6.096  18.022  0.00  0.00    +0.000 A 
ATOM     13  C   UNL     1       5.850   6.823  17.178  0.00  0.00    +0.000 A 
ATOM     14  C   UNL     1       7.231   6.789  17.373  0.00  0.00    +0.000 A 
ATOM     15  C   UNL     1       7.765   6.083  18.449  0.00  0.00    +0.000 A 
ATOM     16  C   UNL     1       6.919   5.410  19.331  0.00  0.00    +0.000 A 
ATOM     17  C   UNL     1       5.539   5.414  19.116  0.00  0.00    +0.000 A 
ENDBRANCH  11  12
ENDBRANCH   8  11
ENDBRANCH   3   5
BRANCH   2  18
ATOM     18  C   UNL     1      -0.398  11.444  22.000  0.00  0.00    +0.000 A 
ATOM     19  C   UNL     1      -1.419  11.119  22.907  0.00  0.00    +0.000 A 
ATOM     20  C   UNL     1      -2.159  12.126  23.524  0.00  0.00    +0.000 A 
ATOM     21  C   UNL     1      -1.853  13.462  23.273  0.00  0.00    +0.000 A 
ATOM     22  C   UNL     1      -0.836  13.796  22.376  0.00  0.00    +0.000 A 
ATOM     23  C   UNL     1      -0.123  12.791  21.696  0.00  0.00    +0.000 A 
BRANCH  23  24
ATOM     24  N   UNL     1       0.812  13.195  20.705  0.00  0.00    +0.000 N 
ATOM     25  C   UNL     1       2.097  13.668  20.832  0.00  0.00    +0.000 A 
ATOM     26  N   UNL     1       2.630  13.820  19.642  0.00  0.00    +0.000 NA
ATOM     27  N   UNL     1       1.673  13.418  18.753  0.00  0.00    +0.000 NA
ATOM     28  N   UNL     1       0.586  12.994  19.383  0.00  0.00    +0.000 NA
ENDBRANCH  23  24
ENDBRANCH   2  18
TORSDOF 5
ENDMDL
MODEL 4
REMARK VINA RESULT:      -7.7      2.119      3.114
REMARK  Name = 
REMARK  5 active torsions:
REMARK  status: ('A' for Active; 'I' for Inactive)
REMARK    1  A    between atoms: C_2  and  C_17
REMARK    2  A    between atoms: N_3  and  C_4
REMARK    3  A    between atoms: C_7  and  O_8
REMARK    4  A    between atoms: O_8  and  C_9
REMARK    5  A    between atoms: C_22  and  N_23
REMARK                            x       y       z     vdW  Elec       q    Type
REMARK                         _______ _______ _______ _____ _____    ______ ____
ROOT
ATOM      1  O   UNL     1      -0.641   9.655  18.715  0.00  0.00    +0.000 OA
ATOM      2  C   UNL     1       0.346  10.308  19.027  0.00  0.00    +0.000 C 
ATOM      3  N   UNL     1       1.649   9.870  19.122  0.00  0.00    +0.000 N 
ATOM      4  H   UNL     1       2.359  10.527  19.427  0.00  0.00    +0.000 HD
ENDROOT
BRANCH   3   5
ATOM      5  C   UNL     1       2.079   8.534  18.946  0.00  0.00    +0.000 A 
ATOM      6  C   UNL     1       1.942   7.559  19.935  0.00  0.00    +0.000 A 
ATOM      7  C   UNL     1       2.471   6.283  19.758  0.00  0.00    +0.000 A 
ATOM      8  C   UNL     1       3.069   5.931  18.550  0.00  0.00    +0.000 A 
ATOM      9  C   UNL     1       3.209   6.896  17.552  0.00  0.00    +0.000 A 
ATOM     10  C   UNL     1       2.713   8.191  17.746  0.00  0.00    +0.000 A 
BRANCH   8  11
ATOM     11  O   UNL     1       3.584   4.684  18.282  0.00  0.00    +0.000 OA
BRANCH  11  12
ATOM     12  C   UNL     1       4.824   4.580  17.687  0.00  0.00    +0.000 A 
ATOM     13  C   UNL     1       6.030   4.835  18.350  0.00  0.00    +0.000 A 
ATOM     14  C   UNL     1       7.240   4.745  17.661  0.00  0.00    +0.000 A 
ATOM     15  C   UNL     1       7.254   4.338  16.329  0.00  0.00    +0.000 A 
ATOM     16  C   UNL     1       6.059   4.019  15.684  0.00  0.00    +0.000 A 
ATOM     17  C   UNL     1       4.844   4.143  16.361  0.00  0.00    +0.000 A 
ENDBRANCH  11  12
ENDBRANCH   8  11
ENDBRANCH   3   5
BRANCH   2  18
ATOM     18  C   UNL     1       0.101  11.721  19.391  0.00  0.00    +0.000 A 
ATOM     19  C   UNL     1      -0.016  12.647  18.343  0.00  0.00    +0.000 A 
ATOM     20  C   UNL     1      -0.476  13.938  18.593  0.00  0.00    +0.000 A 
ATOM     21  C   UNL     1      -0.867  14.296  19.881  0.00  0.00    +0.000 A 
ATOM     22  C   UNL     1      -0.759  13.381  20.930  0.00  0.00    +0.000 A 
ATOM     23  C   UNL     1      -0.234  12.094  20.706  0.00  0.00    +0.000 A 
BRANCH  23  24
ATOM     24  N   UNL     1      -0.033  11.254  21.834  0.00  0.00    +0.000 N 
ATOM     25  C   UNL     1      -0.899  10.888  22.838  0.00  0.00    +0.000 A 
ATOM     26  N   UNL     1      -0.318  10.009  23.622  0.00  0.00    +0.000 NA
ATOM     27  N   UNL     1       0.926   9.804  23.092  0.00  0.00    +0.000 NA
ATOM     28  N   UNL     1       1.094  10.514  21.986  0.00  0.00    +0.000 NA
ENDBRANCH  23  24
ENDBRANCH   2  18
TORSDOF 5
ENDMDL
MODEL 5
REMARK VINA RESULT:      -7.6      1.169      1.613
REMARK  Name = 
REMARK  5 active torsions:
REMARK  status: ('A' for Active; 'I' for Inactive)
REMARK    1  A    between atoms: C_2  and  C_17
REMARK    2  A    between atoms: N_3  and  C_4
REMARK    3  A    between atoms: C_7  and  O_8
REMARK    4  A    between atoms: O_8  and  C_9
REMARK    5  A    between atoms: C_22  and  N_23
REMARK                            x       y       z     vdW  Elec       q    Type
REMARK                         _______ _______ _______ _____ _____    ______ ____
ROOT
ATOM      1  O   UNL     1       1.839   9.675  22.470  0.00  0.00    +0.000 OA
ATOM      2  C   UNL     1       0.880   9.738  21.712  0.00  0.00    +0.000 C 
ATOM      3  N   UNL     1       0.591   8.908  20.651  0.00  0.00    +0.000 N 
ATOM      4  H   UNL     1      -0.230   9.109  20.090  0.00  0.00    +0.000 HD
ENDROOT
BRANCH   3   5
ATOM      5  C   UNL     1       1.412   7.853  20.188  0.00  0.00    +0.000 A 
ATOM      6  C   UNL     1       2.171   7.943  19.021  0.00  0.00    +0.000 A 
ATOM      7  C   UNL     1       2.886   6.846  18.548  0.00  0.00    +0.000 A 
ATOM      8  C   UNL     1       2.927   5.663  19.283  0.00  0.00    +0.000 A 
ATOM      9  C   UNL     1       2.175   5.562  20.453  0.00  0.00    +0.000 A 
ATOM     10  C   UNL     1       1.423   6.653  20.908  0.00  0.00    +0.000 A 
BRANCH   8  11
ATOM     11  O   UNL     1       3.636   4.546  18.904  0.00  0.00    +0.000 OA
BRANCH  11  12
ATOM     12  C   UNL     1       4.906   4.696  18.388  0.00  0.00    +0.000 A 
ATOM     13  C   UNL     1       5.994   5.178  19.123  0.00  0.00    +0.000 A 
ATOM     14  C   UNL     1       7.237   5.337  18.511  0.00  0.00    +0.000 A 
ATOM     15  C   UNL     1       7.413   4.955  17.182  0.00  0.00    +0.000 A 
ATOM     16  C   UNL     1       6.347   4.414  16.465  0.00  0.00    +0.000 A 
ATOM     17  C   UNL     1       5.092   4.287  17.066  0.00  0.00    +0.000 A 
ENDBRANCH  11  12
ENDBRANCH   8  11
ENDBRANCH   3   5
BRANCH   2  18
ATOM     18  C   UNL     1      -0.050  10.867  21.934  0.00  0.00    +0.000 A 
ATOM     19  C   UNL     1      -1.063  10.692  22.889  0.00  0.00    +0.000 A 
ATOM     20  C   UNL     1      -1.821  11.779  23.319  0.00  0.00    +0.000 A 
ATOM     21  C   UNL     1      -1.541  13.054  22.831  0.00  0.00    +0.000 A 
ATOM     22  C   UNL     1      -0.531  13.240  21.884  0.00  0.00    +0.000 A 
ATOM     23  C   UNL     1       0.199  12.142  21.392  0.00  0.00    +0.000 A 
BRANCH  23  24
ATOM     24  N   UNL     1       1.124  12.379  20.339  0.00  0.00    +0.000 N 
ATOM     25  C   UNL     1       1.095  11.984  19.022  0.00  0.00    +0.000 A 
ATOM     26  N   UNL     1       2.109  12.515  18.380  0.00  0.00    +0.000 NA
ATOM     27  N   UNL     1       2.777  13.271  19.303  0.00  0.00    +0.000 NA
ATOM     28  N   UNL     1       2.166  13.235  20.479  0.00  0.00    +0.000 NA
ENDBRANCH  23  24
ENDBRANCH   2  18
TORSDOF 5
ENDMDL
MODEL 6
REMARK VINA RESULT:      -7.6      3.994      8.525
REMARK  Name = 
REMARK  5 active torsions:
REMARK  status: ('A' for Active; 'I' for Inactive)
REMARK    1  A    between atoms: C_2  and  C_17
REMARK    2  A    between atoms: N_3  and  C_4
REMARK    3  A    between atoms: C_7  and  O_8
REMARK    4  A    between atoms: O_8  and  C_9
REMARK    5  A    between atoms: C_22  and  N_23
REMARK                            x       y       z     vdW  Elec       q    Type
REMARK                         _______ _______ _______ _____ _____    ______ ____
ROOT
ATOM      1  O   UNL     1       0.819   5.132  20.121  0.00  0.00    +0.000 OA
ATOM      2  C   UNL     1       2.008   5.415  20.194  0.00  0.00    +0.000 C 
ATOM      3  N   UNL     1       2.585   6.660  20.072  0.00  0.00    +0.000 N 
ATOM      4  H   UNL     1       3.595   6.732  20.123  0.00  0.00    +0.000 HD
ENDROOT
BRANCH   3   5
ATOM      5  C   UNL     1       1.896   7.855  19.756  0.00  0.00    +0.000 A 
ATOM      6  C   UNL     1       1.120   8.549  20.685  0.00  0.00    +0.000 A 
ATOM      7  C   UNL     1       0.378   9.664  20.304  0.00  0.00    +0.000 A 
ATOM      8  C   UNL     1       0.470  10.160  19.006  0.00  0.00    +0.000 A 
ATOM      9  C   UNL     1       1.246   9.478  18.069  0.00  0.00    +0.000 A 
ATOM     10  C   UNL     1       1.960   8.332  18.442  0.00  0.00    +0.000 A 
BRANCH   8  11
ATOM     11  O   UNL     1      -0.202  11.275  18.559  0.00  0.00    +0.000 OA
BRANCH  11  12
ATOM     12  C   UNL     1      -1.559  11.197  18.325  0.00  0.00    +0.000 A 
ATOM     13  C   UNL     1      -2.509  11.991  18.977  0.00  0.00    +0.000 A 
ATOM     14  C   UNL     1      -3.867  11.818  18.710  0.00  0.00    +0.000 A 
ATOM     15  C   UNL     1      -4.276  10.899  17.746  0.00  0.00    +0.000 A 
ATOM     16  C   UNL     1      -3.327  10.152  17.047  0.00  0.00    +0.000 A 
ATOM     17  C   UNL     1      -1.969  10.298  17.339  0.00  0.00    +0.000 A 
ENDBRANCH  11  12
ENDBRANCH   8  11
ENDBRANCH   3   5
BRANCH   2  18
ATOM     18  C   UNL     1       2.935   4.279  20.387  0.00  0.00    +0.000 A 
ATOM     19  C   UNL     1       2.584   3.313  21.343  0.00  0.00    +0.000 A 
ATOM     20  C   UNL     1       3.278   2.107  21.414  0.00  0.00    +0.000 A 
ATOM     21  C   UNL     1       4.295   1.840  20.500  0.00  0.00    +0.000 A 
ATOM     22  C   UNL     1       4.650   2.792  19.542  0.00  0.00    +0.000 A 
ATOM     23  C   UNL     1       4.002   4.041  19.500  0.00  0.00    +0.000 A 
BRANCH  23  24
ATOM     24  N   UNL     1       4.492   5.012  18.586  0.00  0.00    +0.000 N 
ATOM     25  C   UNL     1       5.699   5.671  18.548  0.00  0.00    +0.000 A 
ATOM     26  N   UNL     1       5.763   6.409  17.464  0.00  0.00    +0.000 NA
ATOM     27  N   UNL     1       4.587   6.197  16.800  0.00  0.00    +0.000 NA
ATOM     28  N   UNL     1       3.830   5.320  17.443  0.00  0.00    +0.000 NA
ENDBRANCH  23  24
ENDBRANCH   2  18
TORSDOF 5
ENDMDL
MODEL 7
REMARK VINA RESULT:      -7.6      1.661      2.316
REMARK  Name = 
REMARK  5 active torsions:
REMARK  status: ('A' for Active; 'I' for Inactive)
REMARK    1  A    between atoms: C_2  and  C_17
REMARK    2  A    between atoms: N_3  and  C_4
REMARK    3  A    between atoms: C_7  and  O_8
REMARK    4  A    between atoms: O_8  and  C_9
REMARK    5  A    between atoms: C_22  and  N_23
REMARK                            x       y       z     vdW  Elec       q    Type
REMARK                         _______ _______ _______ _____ _____    ______ ____
ROOT
ATOM      1  O   UNL     1       1.120  10.181  22.485  0.00  0.00    +0.000 OA
ATOM      2  C   UNL     1       0.388  10.631  21.614  0.00  0.00    +0.000 C 
ATOM      3  N   UNL     1       0.258  10.193  20.314  0.00  0.00    +0.000 N 
ATOM      4  H   UNL     1      -0.371  10.693  19.696  0.00  0.00    +0.000 HD
ENDROOT
BRANCH   3   5
ATOM      5  C   UNL     1       1.024   9.165  19.716  0.00  0.00    +0.000 A 
ATOM      6  C   UNL     1       1.467   8.044  20.420  0.00  0.00    +0.000 A 
ATOM      7  C   UNL     1       2.304   7.108  19.818  0.00  0.00    +0.000 A 
ATOM      8  C   UNL     1       2.641   7.229  18.472  0.00  0.00    +0.000 A 
ATOM      9  C   UNL     1       2.202   8.343  17.756  0.00  0.00    +0.000 A 
ATOM     10  C   UNL     1       1.393   9.306  18.374  0.00  0.00    +0.000 A 
BRANCH   8  11
ATOM     11  O   UNL     1       3.433   6.330  17.794  0.00  0.00    +0.000 OA
BRANCH  11  12
ATOM     12  C   UNL     1       3.263   4.980  18.016  0.00  0.00    +0.000 A 
ATOM     13  C   UNL     1       4.253   4.147  18.550  0.00  0.00    +0.000 A 
ATOM     14  C   UNL     1       4.011   2.783  18.705  0.00  0.00    +0.000 A 
ATOM     15  C   UNL     1       2.760   2.257  18.388  0.00  0.00    +0.000 A 
ATOM     16  C   UNL     1       1.750   3.095  17.918  0.00  0.00    +0.000 A 
ATOM     17  C   UNL     1       2.002   4.456  17.728  0.00  0.00    +0.000 A 
ENDBRANCH  11  12
ENDBRANCH   8  11
ENDBRANCH   3   5
BRANCH   2  18
ATOM     18  C   UNL     1      -0.415  11.816  21.990  0.00  0.00    +0.000 A 
ATOM     19  C   UNL     1      -1.577  11.596  22.745  0.00  0.00    +0.000 A 
ATOM     20  C   UNL     1      -2.249  12.667  23.332  0.00  0.00    +0.000 A 
ATOM     21  C   UNL     1      -1.739  13.956  23.204  0.00  0.00    +0.000 A 
ATOM     22  C   UNL     1      -0.581  14.186  22.458  0.00  0.00    +0.000 A 
ATOM     23  C   UNL     1       0.073  13.124  21.806  0.00  0.00    +0.000 A 
BRANCH  23  24
ATOM     24  N   UNL     1       1.171  13.438  20.961  0.00  0.00    +0.000 N 
ATOM     25  C   UNL     1       1.204  13.748  19.621  0.00  0.00    +0.000 A 
ATOM     26  N   UNL     1       2.428  14.071  19.274  0.00  0.00    +0.000 NA
ATOM     27  N   UNL     1       3.173  13.982  20.417  0.00  0.00    +0.000 NA
ATOM     28  N   UNL     1       2.418  13.646  21.453  0.00  0.00    +0.000 NA
ENDBRANCH  23  24
ENDBRANCH   2  18
TORSDOF 5
ENDMDL
MODEL 8
REMARK VINA RESULT:      -7.5      4.073      9.132
REMARK  Name = 
REMARK  5 active torsions:
REMARK  status: ('A' for Active; 'I' for Inactive)
REMARK    1  A    between atoms: C_2  and  C_17
REMARK    2  A    between atoms: N_3  and  C_4
REMARK    3  A    between atoms: C_7  and  O_8
REMARK    4  A    between atoms: O_8  and  C_9
REMARK    5  A    between atoms: C_22  and  N_23
REMARK                            x       y       z     vdW  Elec       q    Type
REMARK                         _______ _______ _______ _____ _____    ______ ____
ROOT
ATOM      1  O   UNL     1       3.799   4.473  17.980  0.00  0.00    +0.000 OA
ATOM      2  C   UNL     1       4.307   5.327  17.267  0.00  0.00    +0.000 C 
ATOM      3  N   UNL     1       4.097   6.688  17.303  0.00  0.00    +0.000 N 
ATOM      4  H   UNL     1       4.569   7.269  16.619  0.00  0.00    +0.000 HD
ENDROOT
BRANCH   3   5
ATOM      5  C   UNL     1       3.172   7.352  18.142  0.00  0.00    +0.000 A 
ATOM      6  C   UNL     1       2.834   6.885  19.414  0.00  0.00    +0.000 A 
ATOM      7  C   UNL     1       1.844   7.514  20.165  0.00  0.00    +0.000 A 
ATOM      8  C   UNL     1       1.236   8.675  19.695  0.00  0.00    +0.000 A 
ATOM      9  C   UNL     1       1.567   9.154  18.428  0.00  0.00    +0.000 A 
ATOM     10  C   UNL     1       2.534   8.499  17.655  0.00  0.00    +0.000 A 
BRANCH   8  11
ATOM     11  O   UNL     1       0.276   9.375  20.390  0.00  0.00    +0.000 OA
BRANCH  11  12
ATOM     12  C   UNL     1      -0.145  10.599  19.912  0.00  0.00    +0.000 A 
ATOM     13  C   UNL     1      -1.230  10.765  19.043  0.00  0.00    +0.000 A 
ATOM     14  C   UNL     1      -1.563  12.036  18.575  0.00  0.00    +0.000 A 
ATOM     15  C   UNL     1      -0.856  13.150  19.023  0.00  0.00    +0.000 A 
ATOM     16  C   UNL     1       0.183  12.995  19.939  0.00  0.00    +0.000 A 
ATOM     17  C   UNL     1       0.542  11.720  20.382  0.00  0.00    +0.000 A 
ENDBRANCH  11  12
ENDBRANCH   8  11
ENDBRANCH   3   5
BRANCH   2  18
ATOM     18  C   UNL     1       5.218   4.832  16.210  0.00  0.00    +0.000 A 
ATOM     19  C   UNL     1       4.633   4.322  15.040  0.00  0.00    +0.000 A 
ATOM     20  C   UNL     1       5.416   4.060  13.918  0.00  0.00    +0.000 A 
ATOM     21  C   UNL     1       6.779   4.349  13.944  0.00  0.00    +0.000 A 
ATOM     22  C   UNL     1       7.370   4.861  15.101  0.00  0.00    +0.000 A 
ATOM     23  C   UNL     1       6.604   5.070  16.263  0.00  0.00    +0.000 A 
BRANCH  23  24
ATOM     24  N   UNL     1       7.285   5.472  17.443  0.00  0.00    +0.000 N 
ATOM     25  C   UNL     1       7.636   6.727  17.885  0.00  0.00    +0.000 A 
ATOM     26  N   UNL     1       8.164   6.640  19.084  0.00  0.00    +0.000 NA
ATOM     27  N   UNL     1       8.127   5.313  19.410  0.00  0.00    +0.000 NA
ATOM     28  N   UNL     1       7.556   4.602  18.447  0.00  0.00    +0.000 NA
ENDBRANCH  23  24
ENDBRANCH   2  18
TORSDOF 5
ENDMDL
MODEL 9
REMARK VINA RESULT:      -7.5      4.050      8.619
REMARK  Name = 
REMARK  5 active torsions:
REMARK  status: ('A' for Active; 'I' for Inactive)
REMARK    1  A    between atoms: C_2  and  C_17
REMARK    2  A    between atoms: N_3  and  C_4
REMARK    3  A    between atoms: C_7  and  O_8
REMARK    4  A    between atoms: O_8  and  C_9
REMARK    5  A    between atoms: C_22  and  N_23
REMARK                            x       y       z     vdW  Elec       q    Type
REMARK                         _______ _______ _______ _____ _____    ______ ____
ROOT
ATOM      1  O   UNL     1       1.177   5.030  19.043  0.00  0.00    +0.000 OA
ATOM      2  C   UNL     1       2.183   5.341  19.667  0.00  0.00    +0.000 C 
ATOM      3  N   UNL     1       2.578   6.603  20.052  0.00  0.00    +0.000 N 
ATOM      4  H   UNL     1       3.462   6.706  20.539  0.00  0.00    +0.000 HD
ENDROOT
BRANCH   3   5
ATOM      5  C   UNL     1       1.913   7.807  19.719  0.00  0.00    +0.000 A 
ATOM      6  C   UNL     1       1.097   8.493  20.619  0.00  0.00    +0.000 A 
ATOM      7  C   UNL     1       0.381   9.619  20.218  0.00  0.00    +0.000 A 
ATOM      8  C   UNL     1       0.538  10.131  18.932  0.00  0.00    +0.000 A 
ATOM      9  C   UNL     1       1.355   9.456  18.024  0.00  0.00    +0.000 A 
ATOM     10  C   UNL     1       2.043   8.300  18.416  0.00  0.00    +0.000 A 
BRANCH   8  11
ATOM     11  O   UNL     1      -0.104  11.256  18.468  0.00  0.00    +0.000 OA
BRANCH  11  12
ATOM     12  C   UNL     1      -1.453  11.195  18.185  0.00  0.00    +0.000 A 
ATOM     13  C   UNL     1      -1.998  10.420  17.156  0.00  0.00    +0.000 A 
ATOM     14  C   UNL     1      -3.371  10.447  16.912  0.00  0.00    +0.000 A 
ATOM     15  C   UNL     1      -4.210  11.196  17.734  0.00  0.00    +0.000 A 
ATOM     16  C   UNL     1      -3.677  11.918  18.802  0.00  0.00    +0.000 A 
ATOM     17  C   UNL     1      -2.298  11.920  19.026  0.00  0.00    +0.000 A 
ENDBRANCH  11  12
ENDBRANCH   8  11
ENDBRANCH   3   5
BRANCH   2  18
ATOM     18  C   UNL     1       3.106   4.234  20.004  0.00  0.00    +0.000 A 
ATOM     19  C   UNL     1       2.731   3.376  21.050  0.00  0.00    +0.000 A 
ATOM     20  C   UNL     1       3.424   2.186  21.267  0.00  0.00    +0.000 A 
ATOM     21  C   UNL     1       4.463   1.826  20.412  0.00  0.00    +0.000 A 
ATOM     22  C   UNL     1       4.841   2.670  19.366  0.00  0.00    +0.000 A 
ATOM     23  C   UNL     1       4.195   3.905  19.174  0.00  0.00    +0.000 A 
BRANCH  23  24
ATOM     24  N   UNL     1       4.706   4.774  18.173  0.00  0.00    +0.000 N 
ATOM     25  C   UNL     1       4.494   4.790  16.814  0.00  0.00    +0.000 A 
ATOM     26  N   UNL     1       5.088   5.836  16.288  0.00  0.00    +0.000 NA
ATOM     27  N   UNL     1       5.666   6.500  17.334  0.00  0.00    +0.000 NA
ATOM     28  N   UNL     1       5.404   5.895  18.484  0.00  0.00    +0.000 NA
ENDBRANCH  23  24
ENDBRANCH   2  18
TORSDOF 5
ENDMDL
