MODEL 1
REMARK VINA RESULT:      -8.8      0.000      0.000
REMARK  Name = 
REMARK  6 active torsions:
REMARK  status: ('A' for Active; 'I' for Inactive)
REMARK    1  A    between atoms: C_2  and  C_17
REMARK    2  A    between atoms: N_3  and  C_4
REMARK    3  A    between atoms: C_7  and  O_8
REMARK    4  A    between atoms: O_8  and  C_9
REMARK    5  A    between atoms: C_21  and  C_22
REMARK    6  A    between atoms: C_22  and  N_23
REMARK                            x       y       z     vdW  Elec       q    Type
REMARK                         _______ _______ _______ _____ _____    ______ ____
ROOT
ATOM      1  O   UNL     1       2.052   8.939  17.454  0.00  0.00    +0.000 OA
ATOM      2  C   UNL     1       2.196   8.054  18.290  0.00  0.00    +0.000 C 
ATOM      3  N   UNL     1       1.779   8.082  19.614  0.00  0.00    +0.000 N 
ATOM      4  H   UNL     1       2.106   7.354  20.232  0.00  0.00    +0.000 HD
ENDROOT
BRANCH   3   5
ATOM      5  C   UNL     1       1.119   9.180  20.218  0.00  0.00    +0.000 A 
ATOM      6  C   UNL     1       1.099  10.449  19.639  0.00  0.00    +0.000 A 
ATOM      7  C   UNL     1       0.547  11.537  20.310  0.00  0.00    +0.000 A 
ATOM      8  C   UNL     1      -0.090  11.358  21.533  0.00  0.00    +0.000 A 
ATOM      9  C   UNL     1      -0.101  10.088  22.116  0.00  0.00    +0.000 A 
ATOM     10  C   UNL     1       0.497   9.000  21.459  0.00  0.00    +0.000 A 
BRANCH   8  11
ATOM     11  O   UNL     1      -0.687  12.376  22.243  0.00  0.00    +0.000 OA
BRANCH  11  12
ATOM     12  C   UNL     1      -2.055  12.541  22.166  0.00  0.00    +0.000 A 
ATOM     13  C   UNL     1      -2.752  12.706  20.965  0.00  0.00    +0.000 A 
ATOM     14  C   UNL     1      -4.134  12.899  20.975  0.00  0.00    +0.000 A 
ATOM     15  C   UNL     1      -4.832  12.866  22.180  0.00  0.00    +0.000 A 
ATOM     16  C   UNL     1      -4.148  12.640  23.376  0.00  0.00    +0.000 A 
ATOM     17  C   UNL     1      -2.760  12.482  23.369  0.00  0.00    +0.000 A 
ENDBRANCH  11  12
ENDBRANCH   8  11
ENDBRANCH   3   5
BRANCH   2  18
ATOM     18  C   UNL     1       2.972   6.866  17.862  0.00  0.00    +0.000 A 
ATOM     19  C   UNL     1       4.206   7.103  17.245  0.00  0.00    +0.000 A 
ATOM     20  C   UNL     1       4.967   6.041  16.770  0.00  0.00    +0.000 A 
ATOM     21  C   UNL     1       4.509   4.737  16.929  0.00  0.00    +0.000 A 
ATOM     22  C   UNL     1       3.281   4.480  17.564  0.00  0.00    +0.000 A 
ATOM     23  C   UNL     1       2.500   5.560  18.011  0.00  0.00    +0.000 A 
BRANCH  22  24
ATOM     24  C   UNL     1       2.812   3.063  17.771  0.00  0.00    +0.000 C 
BRANCH  24  25
ATOM     25  N   UNL     1       2.509   2.746  19.153  0.00  0.00    +0.000 N 
ATOM     26  C   UNL     1       3.380   3.125  20.242  0.00  0.00    +0.000 C 
ATOM     27  C   UNL     1       2.636   2.641  21.466  0.00  0.00    +0.000 C 
ATOM     28  C   UNL     1       1.174   2.801  21.083  0.00  0.00    +0.000 C 
ATOM     29  C   UNL     1       1.192   2.621  19.585  0.00  0.00    +0.000 C 
ATOM     30  O   UNL     1       0.206   2.475  18.882  0.00  0.00    +0.000 OA
ENDBRANCH  24  25
ENDBRANCH  22  24
ENDBRANCH   2  18
TORSDOF 6
ENDMDL
MODEL 2
REMARK VINA RESULT:      -8.7      1.423      1.818
REMARK  Name = 
REMARK  6 active torsions:
REMARK  status: ('A' for Active; 'I' for Inactive)
REMARK    1  A    between atoms: C_2  and  C_17
REMARK    2  A    between atoms: N_3  and  C_4
REMARK    3  A    between atoms: C_7  and  O_8
REMARK    4  A    between atoms: O_8  and  C_9
REMARK    5  A    between atoms: C_21  and  C_22
REMARK    6  A    between atoms: C_22  and  N_23
REMARK                            x       y       z     vdW  Elec       q    Type
REMARK                         _______ _______ _______ _____ _____    ______ ____
ROOT
ATOM      1  O   UNL     1       2.041   7.855  19.959  0.00  0.00    +0.000 OA
ATOM      2  C   UNL     1       2.158   7.903  18.739  0.00  0.00    +0.000 C 
ATOM      3  N   UNL     1       1.573   8.825  17.882  0.00  0.00    +0.000 N 
ATOM      4  H   UNL     1       1.623   8.650  16.888  0.00  0.00    +0.000 HD
ENDROOT
BRANCH   3   5
ATOM      5  C   UNL     1       0.713   9.869  18.301  0.00  0.00    +0.000 A 
ATOM      6  C   UNL     1      -0.656   9.860  18.035  0.00  0.00    +0.000 A 
ATOM      7  C   UNL     1      -1.458  10.953  18.353  0.00  0.00    +0.000 A 
ATOM      8  C   UNL     1      -0.924  12.039  19.039  0.00  0.00    +0.000 A 
ATOM      9  C   UNL     1       0.441  12.053  19.335  0.00  0.00    +0.000 A 
ATOM     10  C   UNL     1       1.258  10.970  18.972  0.00  0.00    +0.000 A 
BRANCH   8  11
ATOM     11  O   UNL     1      -1.657  13.143  19.416  0.00  0.00    +0.000 OA
BRANCH  11  12
ATOM     12  C   UNL     1      -2.480  13.061  20.521  0.00  0.00    +0.000 A 
ATOM     13  C   UNL     1      -2.016  13.093  21.840  0.00  0.00    +0.000 A 
ATOM     14  C   UNL     1      -2.912  12.973  22.903  0.00  0.00    +0.000 A 
ATOM     15  C   UNL     1      -4.279  12.883  22.653  0.00  0.00    +0.000 A 
ATOM     16  C   UNL     1      -4.752  12.913  21.340  0.00  0.00    +0.000 A 
ATOM     17  C   UNL     1      -3.852  12.998  20.275  0.00  0.00    +0.000 A 
ENDBRANCH  11  12
ENDBRANCH   8  11
ENDBRANCH   3   5
BRANCH   2  18
ATOM     18  C   UNL     1       2.938   6.811  18.110  0.00  0.00    +0.000 A 
ATOM     19  C   UNL     1       4.050   7.185  17.347  0.00  0.00    +0.000 A 
ATOM     20  C   UNL     1       4.801   6.219  16.684  0.00  0.00    +0.000 A 
ATOM     21  C   UNL     1       4.456   4.876  16.799  0.00  0.00    +0.000 A 
ATOM     22  C   UNL     1       3.354   4.483  17.579  0.00  0.00    +0.000 A 
ATOM     23  C   UNL     1       2.578   5.465  18.217  0.00  0.00    +0.000 A 
BRANCH  22  24
ATOM     24  C   UNL     1       3.014   3.022  17.734  0.00  0.00    +0.000 C 
BRANCH  24  25
ATOM     25  N   UNL     1       2.676   2.645  19.092  0.00  0.00    +0.000 N 
ATOM     26  C   UNL     1       3.518   2.975  20.219  0.00  0.00    +0.000 C 
ATOM     27  C   UNL     1       2.742   2.438  21.401  0.00  0.00    +0.000 C 
ATOM     28  C   UNL     1       1.291   2.615  20.988  0.00  0.00    +0.000 C 
ATOM     29  C   UNL     1       1.348   2.501  19.484  0.00  0.00    +0.000 C 
ATOM     30  O   UNL     1       0.381   2.387  18.750  0.00  0.00    +0.000 OA
ENDBRANCH  24  25
ENDBRANCH  22  24
ENDBRANCH   2  18
TORSDOF 6
ENDMDL
MODEL 3
REMARK VINA RESULT:      -8.7      0.760      1.204
REMARK  Name = 
REMARK  6 active torsions:
REMARK  status: ('A' for Active; 'I' for Inactive)
REMARK    1  A    between atoms: C_2  and  C_17
REMARK    2  A    between atoms: N_3  and  C_4
REMARK    3  A    between atoms: C_7  and  O_8
REMARK    4  A    between atoms: O_8  and  C_9
REMARK    5  A    between atoms: C_21  and  C_22
REMARK    6  A    between atoms: C_22  and  N_23
REMARK                            x       y       z     vdW  Elec       q    Type
REMARK                         _______ _______ _______ _____ _____    ______ ____
ROOT
ATOM      1  O   UNL     1       3.186   8.513  17.458  0.00  0.00    +0.000 OA
ATOM      2  C   UNL     1       2.865   7.511  18.088  0.00  0.00    +0.000 C 
ATOM      3  N   UNL     1       2.083   7.464  19.234  0.00  0.00    +0.000 N 
ATOM      4  H   UNL     1       2.032   6.592  19.740  0.00  0.00    +0.000 HD
ENDROOT
BRANCH   3   5
ATOM      5  C   UNL     1       1.539   8.604  19.875  0.00  0.00    +0.000 A 
ATOM      6  C   UNL     1       1.182   9.756  19.173  0.00  0.00    +0.000 A 
ATOM      7  C   UNL     1       0.761  10.903  19.840  0.00  0.00    +0.000 A 
ATOM      8  C   UNL     1       0.590  10.889  21.220  0.00  0.00    +0.000 A 
ATOM      9  C   UNL     1       0.920   9.736  21.936  0.00  0.00    +0.000 A 
ATOM     10  C   UNL     1       1.388   8.594  21.267  0.00  0.00    +0.000 A 
BRANCH   8  11
ATOM     11  O   UNL     1       0.150  11.972  21.949  0.00  0.00    +0.000 OA
BRANCH  11  12
ATOM     12  C   UNL     1      -1.207  12.182  22.092  0.00  0.00    +0.000 A 
ATOM     13  C   UNL     1      -1.909  11.950  23.279  0.00  0.00    +0.000 A 
ATOM     14  C   UNL     1      -3.288  12.158  23.332  0.00  0.00    +0.000 A 
ATOM     15  C   UNL     1      -3.959  12.657  22.218  0.00  0.00    +0.000 A 
ATOM     16  C   UNL     1      -3.252  12.949  21.050  0.00  0.00    +0.000 A 
ATOM     17  C   UNL     1      -1.878  12.708  20.986  0.00  0.00    +0.000 A 
ENDBRANCH  11  12
ENDBRANCH   8  11
ENDBRANCH   3   5
BRANCH   2  18
ATOM     18  C   UNL     1       3.442   6.228  17.623  0.00  0.00    +0.000 A 
ATOM     19  C   UNL     1       4.549   6.304  16.769  0.00  0.00    +0.000 A 
ATOM     20  C   UNL     1       5.113   5.144  16.250  0.00  0.00    +0.000 A 
ATOM     21  C   UNL     1       4.589   3.904  16.600  0.00  0.00    +0.000 A 
ATOM     22  C   UNL     1       3.491   3.809  17.472  0.00  0.00    +0.000 A 
ATOM     23  C   UNL     1       2.902   4.986  17.966  0.00  0.00    +0.000 A 
BRANCH  22  24
ATOM     24  C   UNL     1       2.956   2.460  17.881  0.00  0.00    +0.000 C 
BRANCH  24  25
ATOM     25  N   UNL     1       2.517   2.402  19.261  0.00  0.00    +0.000 N 
ATOM     26  C   UNL     1       3.369   2.793  20.361  0.00  0.00    +0.000 C 
ATOM     27  C   UNL     1       2.477   2.619  21.570  0.00  0.00    +0.000 C 
ATOM     28  C   UNL     1       1.092   2.951  21.044  0.00  0.00    +0.000 C 
ATOM     29  C   UNL     1       1.174   2.553  19.591  0.00  0.00    +0.000 C 
ATOM     30  O   UNL     1       0.223   2.464  18.832  0.00  0.00    +0.000 OA
ENDBRANCH  24  25
ENDBRANCH  22  24
ENDBRANCH   2  18
TORSDOF 6
ENDMDL
MODEL 4
REMARK VINA RESULT:      -8.7      6.726     11.248
REMARK  Name = 
REMARK  6 active torsions:
REMARK  status: ('A' for Active; 'I' for Inactive)
REMARK    1  A    between atoms: C_2  and  C_17
REMARK    2  A    between atoms: N_3  and  C_4
REMARK    3  A    between atoms: C_7  and  O_8
REMARK    4  A    between atoms: O_8  and  C_9
REMARK    5  A    between atoms: C_21  and  C_22
REMARK    6  A    between atoms: C_22  and  N_23
REMARK                            x       y       z     vdW  Elec       q    Type
REMARK                         _______ _______ _______ _____ _____    ______ ____
ROOT
ATOM      1  O   UNL     1       7.455   9.607  17.372  0.00  0.00    +0.000 OA
ATOM      2  C   UNL     1       8.305   9.237  18.175  0.00  0.00    +0.000 C 
ATOM      3  N   UNL     1       8.508   7.943  18.636  0.00  0.00    +0.000 N 
ATOM      4  H   UNL     1       9.135   7.809  19.416  0.00  0.00    +0.000 HD
ENDROOT
BRANCH   3   5
ATOM      5  C   UNL     1       7.728   6.827  18.248  0.00  0.00    +0.000 A 
ATOM      6  C   UNL     1       7.333   6.615  16.926  0.00  0.00    +0.000 A 
ATOM      7  C   UNL     1       6.469   5.577  16.591  0.00  0.00    +0.000 A 
ATOM      8  C   UNL     1       6.060   4.664  17.558  0.00  0.00    +0.000 A 
ATOM      9  C   UNL     1       6.466   4.847  18.882  0.00  0.00    +0.000 A 
ATOM     10  C   UNL     1       7.301   5.922  19.227  0.00  0.00    +0.000 A 
BRANCH   8  11
ATOM     11  O   UNL     1       5.231   3.595  17.300  0.00  0.00    +0.000 OA
BRANCH  11  12
ATOM     12  C   UNL     1       3.949   3.597  17.810  0.00  0.00    +0.000 A 
ATOM     13  C   UNL     1       2.992   4.570  17.505  0.00  0.00    +0.000 A 
ATOM     14  C   UNL     1       1.725   4.518  18.087  0.00  0.00    +0.000 A 
ATOM     15  C   UNL     1       1.390   3.459  18.928  0.00  0.00    +0.000 A 
ATOM     16  C   UNL     1       2.322   2.452  19.187  0.00  0.00    +0.000 A 
ATOM     17  C   UNL     1       3.601   2.523  18.632  0.00  0.00    +0.000 A 
ENDBRANCH  11  12
ENDBRANCH   8  11
ENDBRANCH   3   5
BRANCH   2  18
ATOM     18  C   UNL     1       9.145  10.298  18.778  0.00  0.00    +0.000 A 
ATOM     19  C   UNL     1       9.241  10.314  20.175  0.00  0.00    +0.000 A 
ATOM     20  C   UNL     1       9.969  11.311  20.815  0.00  0.00    +0.000 A 
ATOM     21  C   UNL     1      10.623  12.281  20.062  0.00  0.00    +0.000 A 
ATOM     22  C   UNL     1      10.553  12.268  18.658  0.00  0.00    +0.000 A 
ATOM     23  C   UNL     1       9.786  11.279  18.018  0.00  0.00    +0.000 A 
BRANCH  22  24
ATOM     24  C   UNL     1      11.300  13.297  17.849  0.00  0.00    +0.000 C 
BRANCH  24  25
ATOM     25  N   UNL     1      10.541  14.508  17.606  0.00  0.00    +0.000 N 
ATOM     26  C   UNL     1       9.262  14.758  18.230  0.00  0.00    +0.000 C 
ATOM     27  C   UNL     1       8.895  16.137  17.730  0.00  0.00    +0.000 C 
ATOM     28  C   UNL     1      10.237  16.836  17.588  0.00  0.00    +0.000 C 
ATOM     29  C   UNL     1      11.183  15.700  17.283  0.00  0.00    +0.000 C 
ATOM     30  O   UNL     1      12.333  15.827  16.900  0.00  0.00    +0.000 OA
ENDBRANCH  24  25
ENDBRANCH  22  24
ENDBRANCH   2  18
TORSDOF 6
ENDMDL
MODEL 5
REMARK VINA RESULT:      -8.6      6.052     10.209
REMARK  Name = 
REMARK  6 active torsions:
REMARK  status: ('A' for Active; 'I' for Inactive)
REMARK    1  A    between atoms: C_2  and  C_17
REMARK    2  A    between atoms: N_3  and  C_4
REMARK    3  A    between atoms: C_7  and  O_8
REMARK    4  A    between atoms: O_8  and  C_9
REMARK    5  A    between atoms: C_21  and  C_22
REMARK    6  A    between atoms: C_22  and  N_23
REMARK                            x       y       z     vdW  Elec       q    Type
REMARK                         _______ _______ _______ _____ _____    ______ ____
ROOT
ATOM      1  O   UNL     1       7.953   9.992  17.551  0.00  0.00    +0.000 OA
ATOM      2  C   UNL     1       8.672   9.561  18.446  0.00  0.00    +0.000 C 
ATOM      3  N   UNL     1       8.759   8.246  18.883  0.00  0.00    +0.000 N 
ATOM      4  H   UNL     1       9.270   8.061  19.734  0.00  0.00    +0.000 HD
ENDROOT
BRANCH   3   5
ATOM      5  C   UNL     1       7.992   7.179  18.356  0.00  0.00    +0.000 A 
ATOM      6  C   UNL     1       7.363   7.254  17.113  0.00  0.00    +0.000 A 
ATOM      7  C   UNL     1       6.519   6.239  16.671  0.00  0.00    +0.000 A 
ATOM      8  C   UNL     1       6.367   5.077  17.421  0.00  0.00    +0.000 A 
ATOM      9  C   UNL     1       7.009   4.975  18.657  0.00  0.00    +0.000 A 
ATOM     10  C   UNL     1       7.824   6.019  19.123  0.00  0.00    +0.000 A 
BRANCH   8  11
ATOM     11  O   UNL     1       5.575   4.017  17.038  0.00  0.00    +0.000 OA
BRANCH  11  12
ATOM     12  C   UNL     1       4.246   3.997  17.411  0.00  0.00    +0.000 A 
ATOM     13  C   UNL     1       3.516   2.824  17.625  0.00  0.00    +0.000 A 
ATOM     14  C   UNL     1       2.166   2.890  17.971  0.00  0.00    +0.000 A 
ATOM     15  C   UNL     1       1.557   4.128  18.163  0.00  0.00    +0.000 A 
ATOM     16  C   UNL     1       2.298   5.301  18.010  0.00  0.00    +0.000 A 
ATOM     17  C   UNL     1       3.641   5.236  17.631  0.00  0.00    +0.000 A 
ENDBRANCH  11  12
ENDBRANCH   8  11
ENDBRANCH   3   5
BRANCH   2  18
ATOM     18  C   UNL     1       9.467  10.564  19.191  0.00  0.00    +0.000 A 
ATOM     19  C   UNL     1      10.666  10.988  18.603  0.00  0.00    +0.000 A 
ATOM     20  C   UNL     1      11.491  11.889  19.267  0.00  0.00    +0.000 A 
ATOM     21  C   UNL     1      11.113  12.387  20.510  0.00  0.00    +0.000 A 
ATOM     22  C   UNL     1       9.904  11.987  21.105  0.00  0.00    +0.000 A 
ATOM     23  C   UNL     1       9.090  11.049  20.446  0.00  0.00    +0.000 A 
BRANCH  22  24
ATOM     24  C   UNL     1       9.480  12.564  22.432  0.00  0.00    +0.000 C 
BRANCH  24  25
ATOM     25  N   UNL     1       8.065  12.417  22.705  0.00  0.00    +0.000 N 
ATOM     26  C   UNL     1       7.569  11.641  23.819  0.00  0.00    +0.000 C 
ATOM     27  C   UNL     1       6.070  11.825  23.730  0.00  0.00    +0.000 C 
ATOM     28  C   UNL     1       5.914  13.231  23.177  0.00  0.00    +0.000 C 
ATOM     29  C   UNL     1       7.160  13.411  22.345  0.00  0.00    +0.000 C 
ATOM     30  O   UNL     1       7.355  14.323  21.560  0.00  0.00    +0.000 OA
ENDBRANCH  24  25
ENDBRANCH  22  24
ENDBRANCH   2  18
TORSDOF 6
ENDMDL
MODEL 6
REMARK VINA RESULT:      -8.5      1.235      1.513
REMARK  Name = 
REMARK  6 active torsions:
REMARK  status: ('A' for Active; 'I' for Inactive)
REMARK    1  A    between atoms: C_2  and  C_17
REMARK    2  A    between atoms: N_3  and  C_4
REMARK    3  A    between atoms: C_7  and  O_8
REMARK    4  A    between atoms: O_8  and  C_9
REMARK    5  A    between atoms: C_21  and  C_22
REMARK    6  A    between atoms: C_22  and  N_23
REMARK                            x       y       z     vdW  Elec       q    Type
REMARK                         _______ _______ _______ _____ _____    ______ ____
ROOT
ATOM      1  O   UNL     1       2.182   9.686  17.472  0.00  0.00    +0.000 OA
ATOM      2  C   UNL     1       1.990   8.716  18.197  0.00  0.00    +0.000 C 
ATOM      3  N   UNL     1       1.176   8.664  19.320  0.00  0.00    +0.000 N 
ATOM      4  H   UNL     1       1.237   7.850  19.915  0.00  0.00    +0.000 HD
ENDROOT
BRANCH   3   5
ATOM      5  C   UNL     1       0.436   9.763  19.820  0.00  0.00    +0.000 A 
ATOM      6  C   UNL     1      -0.712  10.240  19.187  0.00  0.00    +0.000 A 
ATOM      7  C   UNL     1      -1.351  11.394  19.631  0.00  0.00    +0.000 A 
ATOM      8  C   UNL     1      -0.914  12.039  20.783  0.00  0.00    +0.000 A 
ATOM      9  C   UNL     1       0.220  11.560  21.444  0.00  0.00    +0.000 A 
ATOM     10  C   UNL     1       0.892  10.423  20.968  0.00  0.00    +0.000 A 
BRANCH   8  11
ATOM     11  O   UNL     1      -1.511  13.166  21.304  0.00  0.00    +0.000 OA
BRANCH  11  12
ATOM     12  C   UNL     1      -2.711  13.045  21.975  0.00  0.00    +0.000 A 
ATOM     13  C   UNL     1      -3.961  13.205  21.369  0.00  0.00    +0.000 A 
ATOM     14  C   UNL     1      -5.128  13.098  22.125  0.00  0.00    +0.000 A 
ATOM     15  C   UNL     1      -5.052  12.770  23.477  0.00  0.00    +0.000 A 
ATOM     16  C   UNL     1      -3.810  12.549  24.073  0.00  0.00    +0.000 A 
ATOM     17  C   UNL     1      -2.640  12.691  23.323  0.00  0.00    +0.000 A 
ENDBRANCH  11  12
ENDBRANCH   8  11
ENDBRANCH   3   5
BRANCH   2  18
ATOM     18  C   UNL     1       2.777   7.499  17.888  0.00  0.00    +0.000 A 
ATOM     19  C   UNL     1       4.030   7.688  17.291  0.00  0.00    +0.000 A 
ATOM     20  C   UNL     1       4.804   6.593  16.925  0.00  0.00    +0.000 A 
ATOM     21  C   UNL     1       4.340   5.305  17.173  0.00  0.00    +0.000 A 
ATOM     22  C   UNL     1       3.093   5.097  17.790  0.00  0.00    +0.000 A 
ATOM     23  C   UNL     1       2.300   6.208  18.125  0.00  0.00    +0.000 A 
BRANCH  22  24
ATOM     24  C   UNL     1       2.617   3.700  18.095  0.00  0.00    +0.000 C 
BRANCH  24  25
ATOM     25  N   UNL     1       2.416   3.449  19.508  0.00  0.00    +0.000 N 
ATOM     26  C   UNL     1       1.110   3.188  20.069  0.00  0.00    +0.000 C 
ATOM     27  C   UNL     1       1.404   2.936  21.531  0.00  0.00    +0.000 C 
ATOM     28  C   UNL     1       2.775   2.282  21.513  0.00  0.00    +0.000 C 
ATOM     29  C   UNL     1       3.418   2.870  20.280  0.00  0.00    +0.000 C 
ATOM     30  O   UNL     1       4.598   2.772  19.989  0.00  0.00    +0.000 OA
ENDBRANCH  24  25
ENDBRANCH  22  24
ENDBRANCH   2  18
TORSDOF 6
ENDMDL
MODEL 7
REMARK VINA RESULT:      -8.5      0.799      1.236
REMARK  Name = 
REMARK  6 active torsions:
REMARK  status: ('A' for Active; 'I' for Inactive)
REMARK    1  A    between atoms: C_2  and  C_17
REMARK    2  A    between atoms: N_3  and  C_4
REMARK    3  A    between atoms: C_7  and  O_8
REMARK    4  A    between atoms: O_8  and  C_9
REMARK    5  A    between atoms: C_21  and  C_22
REMARK    6  A    between atoms: C_22  and  N_23
REMARK                            x       y       z     vdW  Elec       q    Type
REMARK                         _______ _______ _______ _____ _____    ______ ____
ROOT
ATOM      1  O   UNL     1       2.008   9.277  17.263  0.00  0.00    +0.000 OA
ATOM      2  C   UNL     1       2.000   8.418  18.138  0.00  0.00    +0.000 C 
ATOM      3  N   UNL     1       1.365   8.490  19.370  0.00  0.00    +0.000 N 
ATOM      4  H   UNL     1       1.576   7.780  20.057  0.00  0.00    +0.000 HD
ENDROOT
BRANCH   3   5
ATOM      5  C   UNL     1       0.625   9.610  19.820  0.00  0.00    +0.000 A 
ATOM      6  C   UNL     1      -0.589   9.983  19.243  0.00  0.00    +0.000 A 
ATOM      7  C   UNL     1      -1.238  11.154  19.624  0.00  0.00    +0.000 A 
ATOM      8  C   UNL     1      -0.736  11.927  20.666  0.00  0.00    +0.000 A 
ATOM      9  C   UNL     1       0.467  11.554  21.273  0.00  0.00    +0.000 A 
ATOM     10  C   UNL     1       1.144  10.397  20.856  0.00  0.00    +0.000 A 
BRANCH   8  11
ATOM     11  O   UNL     1      -1.334  13.081  21.122  0.00  0.00    +0.000 OA
BRANCH  11  12
ATOM     12  C   UNL     1      -2.445  12.989  21.935  0.00  0.00    +0.000 A 
ATOM     13  C   UNL     1      -2.429  12.418  23.212  0.00  0.00    +0.000 A 
ATOM     14  C   UNL     1      -3.605  12.335  23.959  0.00  0.00    +0.000 A 
ATOM     15  C   UNL     1      -4.786  12.878  23.459  0.00  0.00    +0.000 A 
ATOM     16  C   UNL     1      -4.793  13.504  22.212  0.00  0.00    +0.000 A 
ATOM     17  C   UNL     1      -3.624  13.556  21.449  0.00  0.00    +0.000 A 
ENDBRANCH  11  12
ENDBRANCH   8  11
ENDBRANCH   3   5
BRANCH   2  18
ATOM     18  C   UNL     1       2.825   7.214  17.884  0.00  0.00    +0.000 A 
ATOM     19  C   UNL     1       4.163   7.425  17.528  0.00  0.00    +0.000 A 
ATOM     20  C   UNL     1       4.985   6.345  17.224  0.00  0.00    +0.000 A 
ATOM     21  C   UNL     1       4.481   5.051  17.295  0.00  0.00    +0.000 A 
ATOM     22  C   UNL     1       3.146   4.820  17.669  0.00  0.00    +0.000 A 
ATOM     23  C   UNL     1       2.309   5.917  17.941  0.00  0.00    +0.000 A 
BRANCH  22  24
ATOM     24  C   UNL     1       2.619   3.412  17.786  0.00  0.00    +0.000 C 
BRANCH  24  25
ATOM     25  N   UNL     1       2.421   2.977  19.153  0.00  0.00    +0.000 N 
ATOM     26  C   UNL     1       3.332   3.330  20.218  0.00  0.00    +0.000 C 
ATOM     27  C   UNL     1       2.694   2.711  21.441  0.00  0.00    +0.000 C 
ATOM     28  C   UNL     1       1.205   2.804  21.155  0.00  0.00    +0.000 C 
ATOM     29  C   UNL     1       1.143   2.736  19.648  0.00  0.00    +0.000 C 
ATOM     30  O   UNL     1       0.126   2.578  18.994  0.00  0.00    +0.000 OA
ENDBRANCH  24  25
ENDBRANCH  22  24
ENDBRANCH   2  18
TORSDOF 6
ENDMDL
MODEL 8
REMARK VINA RESULT:      -8.5      2.194      3.805
REMARK  Name = 
REMARK  6 active torsions:
REMARK  status: ('A' for Active; 'I' for Inactive)
REMARK    1  A    between atoms: C_2  and  C_17
REMARK    2  A    between atoms: N_3  and  C_4
REMARK    3  A    between atoms: C_7  and  O_8
REMARK    4  A    between atoms: O_8  and  C_9
REMARK    5  A    between atoms: C_21  and  C_22
REMARK    6  A    between atoms: C_22  and  N_23
REMARK                            x       y       z     vdW  Elec       q    Type
REMARK                         _______ _______ _______ _____ _____    ______ ____
ROOT
ATOM      1  O   UNL     1       1.836   8.292  19.107  0.00  0.00    +0.000 OA
ATOM      2  C   UNL     1       1.795   7.522  20.061  0.00  0.00    +0.000 C 
ATOM      3  N   UNL     1       1.255   7.777  21.314  0.00  0.00    +0.000 N 
ATOM      4  H   UNL     1       1.434   7.113  22.054  0.00  0.00    +0.000 HD
ENDROOT
BRANCH   3   5
ATOM      5  C   UNL     1       0.668   9.008  21.693  0.00  0.00    +0.000 A 
ATOM      6  C   UNL     1      -0.137   9.135  22.826  0.00  0.00    +0.000 A 
ATOM      7  C   UNL     1      -0.797  10.327  23.110  0.00  0.00    +0.000 A 
ATOM      8  C   UNL     1      -0.585  11.452  22.320  0.00  0.00    +0.000 A 
ATOM      9  C   UNL     1       0.237  11.350  21.196  0.00  0.00    +0.000 A 
ATOM     10  C   UNL     1       0.867  10.134  20.884  0.00  0.00    +0.000 A 
BRANCH   8  11
ATOM     11  O   UNL     1      -1.177  12.674  22.553  0.00  0.00    +0.000 OA
BRANCH  11  12
ATOM     12  C   UNL     1      -2.554  12.767  22.557  0.00  0.00    +0.000 A 
ATOM     13  C   UNL     1      -3.318  12.936  23.715  0.00  0.00    +0.000 A 
ATOM     14  C   UNL     1      -4.711  12.990  23.637  0.00  0.00    +0.000 A 
ATOM     15  C   UNL     1      -5.340  12.937  22.396  0.00  0.00    +0.000 A 
ATOM     16  C   UNL     1      -4.577  12.830  21.231  0.00  0.00    +0.000 A 
ATOM     17  C   UNL     1      -3.185  12.742  21.312  0.00  0.00    +0.000 A 
ENDBRANCH  11  12
ENDBRANCH   8  11
ENDBRANCH   3   5
BRANCH   2  18
ATOM     18  C   UNL     1       2.470   6.215  19.880  0.00  0.00    +0.000 A 
ATOM     19  C   UNL     1       1.730   5.070  20.201  0.00  0.00    +0.000 A 
ATOM     20  C   UNL     1       2.313   3.811  20.107  0.00  0.00    +0.000 A 
ATOM     21  C   UNL     1       3.628   3.689  19.670  0.00  0.00    +0.000 A 
ATOM     22  C   UNL     1       4.378   4.827  19.324  0.00  0.00    +0.000 A 
ATOM     23  C   UNL     1       3.795   6.099  19.456  0.00  0.00    +0.000 A 
BRANCH  22  24
ATOM     24  C   UNL     1       5.787   4.683  18.810  0.00  0.00    +0.000 C 
BRANCH  24  25
ATOM     25  N   UNL     1       5.867   4.492  17.376  0.00  0.00    +0.000 N 
ATOM     26  C   UNL     1       4.833   4.950  16.476  0.00  0.00    +0.000 C 
ATOM     27  C   UNL     1       5.374   4.585  15.111  0.00  0.00    +0.000 C 
ATOM     28  C   UNL     1       6.877   4.734  15.270  0.00  0.00    +0.000 C 
ATOM     29  C   UNL     1       7.098   4.425  16.731  0.00  0.00    +0.000 C 
ATOM     30  O   UNL     1       8.184   4.234  17.252  0.00  0.00    +0.000 OA
ENDBRANCH  24  25
ENDBRANCH  22  24
ENDBRANCH   2  18
TORSDOF 6
ENDMDL
MODEL 9
REMARK VINA RESULT:      -8.5      1.308      1.740
REMARK  Name = 
REMARK  6 active torsions:
REMARK  status: ('A' for Active; 'I' for Inactive)
REMARK    1  A    between atoms: C_2  and  C_17
REMARK    2  A    between atoms: N_3  and  C_4
REMARK    3  A    between atoms: C_7  and  O_8
REMARK    4  A    between atoms: O_8  and  C_9
REMARK    5  A    between atoms: C_21  and  C_22
REMARK    6  A    between atoms: C_22  and  N_23
REMARK                            x       y       z     vdW  Elec       q    Type
REMARK                         _______ _______ _______ _____ _____    ______ ____
ROOT
ATOM      1  O   UNL     1       0.712   9.544  18.504  0.00  0.00    +0.000 OA
ATOM      2  C   UNL     1       1.326   8.895  19.344  0.00  0.00    +0.000 C 
ATOM      3  N   UNL     1       1.240   9.026  20.723  0.00  0.00    +0.000 N 
ATOM      4  H   UNL     1       1.919   8.541  21.291  0.00  0.00    +0.000 HD
ENDROOT
BRANCH   3   5
ATOM      5  C   UNL     1       0.417   9.971  21.384  0.00  0.00    +0.000 A 
ATOM      6  C   UNL     1       0.379  11.315  21.014  0.00  0.00    +0.000 A 
ATOM      7  C   UNL     1      -0.347  12.245  21.755  0.00  0.00    +0.000 A 
ATOM      8  C   UNL     1      -1.134  11.830  22.824  0.00  0.00    +0.000 A 
ATOM      9  C   UNL     1      -1.126  10.482  23.193  0.00  0.00    +0.000 A 
ATOM     10  C   UNL     1      -0.358   9.553  22.473  0.00  0.00    +0.000 A 
BRANCH   8  11
ATOM     11  O   UNL     1      -1.903  12.682  23.585  0.00  0.00    +0.000 OA
BRANCH  11  12
ATOM     12  C   UNL     1      -3.265  12.735  23.371  0.00  0.00    +0.000 A 
ATOM     13  C   UNL     1      -3.848  12.890  22.109  0.00  0.00    +0.000 A 
ATOM     14  C   UNL     1      -5.235  12.966  21.980  0.00  0.00    +0.000 A 
ATOM     15  C   UNL     1      -6.046  12.826  23.104  0.00  0.00    +0.000 A 
ATOM     16  C   UNL     1      -5.471  12.610  24.357  0.00  0.00    +0.000 A 
ATOM     17  C   UNL     1      -4.081  12.568  24.491  0.00  0.00    +0.000 A 
ENDBRANCH  11  12
ENDBRANCH   8  11
ENDBRANCH   3   5
BRANCH   2  18
ATOM     18  C   UNL     1       2.325   7.930  18.828  0.00  0.00    +0.000 A 
ATOM     19  C   UNL     1       2.891   8.210  17.579  0.00  0.00    +0.000 A 
ATOM     20  C   UNL     1       3.797   7.324  17.006  0.00  0.00    +0.000 A 
ATOM     21  C   UNL     1       4.157   6.166  17.689  0.00  0.00    +0.000 A 
ATOM     22  C   UNL     1       3.613   5.880  18.953  0.00  0.00    +0.000 A 
ATOM     23  C   UNL     1       2.671   6.761  19.511  0.00  0.00    +0.000 A 
BRANCH  22  24
ATOM     24  C   UNL     1       4.042   4.646  19.705  0.00  0.00    +0.000 C 
BRANCH  24  25
ATOM     25  N   UNL     1       2.943   3.767  20.055  0.00  0.00    +0.000 N 
ATOM     26  C   UNL     1       2.221   3.892  21.301  0.00  0.00    +0.000 C 
ATOM     27  C   UNL     1       1.157   2.822  21.193  0.00  0.00    +0.000 C 
ATOM     28  C   UNL     1       0.843   2.777  19.708  0.00  0.00    +0.000 C 
ATOM     29  C   UNL     1       2.148   3.190  19.071  0.00  0.00    +0.000 C 
ATOM     30  O   UNL     1       2.409   3.100  17.883  0.00  0.00    +0.000 OA
ENDBRANCH  24  25
ENDBRANCH  22  24
ENDBRANCH   2  18
TORSDOF 6
ENDMDL
