MODEL 1
REMARK VINA RESULT:      -8.5      0.000      0.000
REMARK  Name = 
REMARK  6 active torsions:
REMARK  status: ('A' for Active; 'I' for Inactive)
REMARK    1  A    between atoms: C_1  and  C_2
REMARK    2  A    between atoms: C_4  and  C_5
REMARK    3  A    between atoms: C_5  and  N_6
REMARK    4  A    between atoms: C_7  and  C_9
REMARK    5  A    between atoms: C_13  and  C_14
REMARK    6  A    between atoms: N_18  and  C_19
REMARK                            x       y       z     vdW  Elec       q    Type
REMARK                         _______ _______ _______ _____ _____    ______ ____
ROOT
ATOM      1  C   UNL     1       6.903   6.333  16.629  0.00  0.00    +0.000 C 
ATOM      2  C   UNL     1       7.364   4.858  16.297  0.00  0.00    +0.000 C 
ATOM      3  C   UNL     1       6.721   4.509  14.958  0.00  0.00    +0.000 C 
ATOM      4  C   UNL     1       5.288   4.967  15.253  0.00  0.00    +0.000 C 
ATOM      5  C   UNL     1       5.493   5.570  16.655  0.00  0.00    +0.000 C 
ATOM      6  C   UNL     1       6.289   4.424  17.351  0.00  0.00    +0.000 C 
ENDROOT
BRANCH   5   7
ATOM      7  C   UNL     1       4.294   6.161  17.379  0.00  0.00    +0.000 A 
ATOM      8  C   UNL     1       3.981   7.506  17.355  0.00  0.00    +0.000 A 
ATOM      9  C   UNL     1       2.775   7.634  18.051  0.00  0.00    +0.000 A 
ATOM     10  N   UNL     1       2.328   6.464  18.487  0.00  0.00    +0.000 NA
ATOM     11  N   UNL     1       3.275   5.572  18.120  0.00  0.00    +0.000 N 
BRANCH  11  12
ATOM     12  C   UNL     1       3.146   4.182  18.516  0.00  0.00    +0.000 C 
ATOM     13  C   UNL     1       2.548   3.313  17.361  0.00  0.00    +0.000 C 
ATOM     14  C   UNL     1       1.557   2.697  18.356  0.00  0.00    +0.000 C 
ATOM     15  C   UNL     1       1.824   3.883  19.293  0.00  0.00    +0.000 C 
ENDBRANCH  11  12
ENDBRANCH   5   7
BRANCH   1  17
ATOM     16  N   UNL     1       7.943   8.337  17.780  0.00  0.00    +0.000 N 
ATOM     17  C   UNL     1       7.593   6.990  17.907  0.00  0.00    +0.000 C 
ATOM     18  O   UNL     1       7.854   6.402  18.956  0.00  0.00    +0.000 OA
ATOM     19  H   UNL     1       7.868   8.785  16.876  0.00  0.00    +0.000 HD
BRANCH  16  20
ATOM     20  C   UNL     1       8.800   8.971  18.779  0.00  0.00    +0.000 C 
BRANCH  20  24
ATOM     21  C   UNL     1      11.348  13.255  19.738  0.00  0.00    +0.000 C 
ATOM     22  C   UNL     1      10.281  12.483  19.020  0.00  0.00    +0.000 A 
ATOM     23  C   UNL     1      10.129  11.105  19.193  0.00  0.00    +0.000 A 
ATOM     24  C   UNL     1       9.099  10.429  18.515  0.00  0.00    +0.000 A 
ATOM     25  C   UNL     1       8.264  11.180  17.685  0.00  0.00    +0.000 A 
ATOM     26  C   UNL     1       8.492  12.542  17.561  0.00  0.00    +0.000 A 
ATOM     27  N   UNL     1       9.481  13.202  18.201  0.00  0.00    +0.000 NA
ENDBRANCH  20  24
ENDBRANCH  16  20
ENDBRANCH   1  17
TORSDOF 5
ENDMDL
MODEL 2
REMARK VINA RESULT:      -8.5      3.142      6.923
REMARK  Name = 
REMARK  6 active torsions:
REMARK  status: ('A' for Active; 'I' for Inactive)
REMARK    1  A    between atoms: C_1  and  C_2
REMARK    2  A    between atoms: C_4  and  C_5
REMARK    3  A    between atoms: C_5  and  N_6
REMARK    4  A    between atoms: C_7  and  C_9
REMARK    5  A    between atoms: C_13  and  C_14
REMARK    6  A    between atoms: N_18  and  C_19
REMARK                            x       y       z     vdW  Elec       q    Type
REMARK                         _______ _______ _______ _____ _____    ______ ____
ROOT
ATOM      1  C   UNL     1       3.586   5.556  18.769  0.00  0.00    +0.000 C 
ATOM      2  C   UNL     1       2.433   4.476  18.812  0.00  0.00    +0.000 C 
ATOM      3  C   UNL     1       3.006   3.281  19.569  0.00  0.00    +0.000 C 
ATOM      4  C   UNL     1       4.345   3.150  18.835  0.00  0.00    +0.000 C 
ATOM      5  C   UNL     1       4.252   4.378  17.910  0.00  0.00    +0.000 C 
ATOM      6  C   UNL     1       2.821   4.192  17.320  0.00  0.00    +0.000 C 
ENDROOT
BRANCH   5   7
ATOM      7  C   UNL     1       5.399   4.658  16.951  0.00  0.00    +0.000 A 
ATOM      8  C   UNL     1       5.615   3.934  15.795  0.00  0.00    +0.000 A 
ATOM      9  C   UNL     1       6.692   4.549  15.150  0.00  0.00    +0.000 A 
ATOM     10  N   UNL     1       7.140   5.599  15.826  0.00  0.00    +0.000 NA
ATOM     11  N   UNL     1       6.384   5.640  16.946  0.00  0.00    +0.000 N 
BRANCH  11  12
ATOM     12  C   UNL     1       6.663   6.633  17.967  0.00  0.00    +0.000 C 
ATOM     13  C   UNL     1       7.537   7.800  17.403  0.00  0.00    +0.000 C 
ATOM     14  C   UNL     1       8.462   7.678  18.620  0.00  0.00    +0.000 C 
ATOM     15  C   UNL     1       7.895   6.272  18.857  0.00  0.00    +0.000 C 
ENDBRANCH  11  12
ENDBRANCH   5   7
BRANCH   1  17
ATOM     16  N   UNL     1       2.275   7.716  18.956  0.00  0.00    +0.000 N 
ATOM     17  C   UNL     1       3.166   6.975  18.176  0.00  0.00    +0.000 C 
ATOM     18  O   UNL     1       3.543   7.436  17.099  0.00  0.00    +0.000 OA
ATOM     19  H   UNL     1       1.848   7.286  19.766  0.00  0.00    +0.000 HD
BRANCH  16  20
ATOM     20  C   UNL     1       1.629   8.905  18.405  0.00  0.00    +0.000 C 
BRANCH  20  24
ATOM     21  C   UNL     1      -0.209   9.664  23.076  0.00  0.00    +0.000 C 
ATOM     22  C   UNL     1      -0.092  10.028  21.624  0.00  0.00    +0.000 A 
ATOM     23  C   UNL     1       0.769   9.342  20.763  0.00  0.00    +0.000 A 
ATOM     24  C   UNL     1       0.828   9.706  19.406  0.00  0.00    +0.000 A 
ATOM     25  C   UNL     1       0.011  10.753  18.977  0.00  0.00    +0.000 A 
ATOM     26  C   UNL     1      -0.806  11.388  19.900  0.00  0.00    +0.000 A 
ATOM     27  N   UNL     1      -0.867  11.054  21.207  0.00  0.00    +0.000 NA
ENDBRANCH  20  24
ENDBRANCH  16  20
ENDBRANCH   1  17
TORSDOF 5
ENDMDL
MODEL 3
REMARK VINA RESULT:      -8.4      3.968      6.995
REMARK  Name = 
REMARK  6 active torsions:
REMARK  status: ('A' for Active; 'I' for Inactive)
REMARK    1  A    between atoms: C_1  and  C_2
REMARK    2  A    between atoms: C_4  and  C_5
REMARK    3  A    between atoms: C_5  and  N_6
REMARK    4  A    between atoms: C_7  and  C_9
REMARK    5  A    between atoms: C_13  and  C_14
REMARK    6  A    between atoms: N_18  and  C_19
REMARK                            x       y       z     vdW  Elec       q    Type
REMARK                         _______ _______ _______ _____ _____    ______ ____
ROOT
ATOM      1  C   UNL     1       3.063   5.397  19.496  0.00  0.00    +0.000 C 
ATOM      2  C   UNL     1       2.098   4.352  18.807  0.00  0.00    +0.000 C 
ATOM      3  C   UNL     1       2.477   2.989  19.378  0.00  0.00    +0.000 C 
ATOM      4  C   UNL     1       3.998   3.071  19.205  0.00  0.00    +0.000 C 
ATOM      5  C   UNL     1       4.120   4.512  18.677  0.00  0.00    +0.000 C 
ATOM      6  C   UNL     1       3.033   4.507  17.559  0.00  0.00    +0.000 C 
ENDROOT
BRANCH   5   7
ATOM      7  C   UNL     1       5.501   5.053  18.341  0.00  0.00    +0.000 A 
ATOM      8  C   UNL     1       6.413   5.454  19.298  0.00  0.00    +0.000 A 
ATOM      9  C   UNL     1       7.577   5.793  18.603  0.00  0.00    +0.000 A 
ATOM     10  N   UNL     1       7.443   5.618  17.295  0.00  0.00    +0.000 NA
ATOM     11  N   UNL     1       6.164   5.212  17.129  0.00  0.00    +0.000 N 
BRANCH  11  12
ATOM     12  C   UNL     1       5.644   5.003  15.790  0.00  0.00    +0.000 C 
ATOM     13  C   UNL     1       5.713   3.496  15.380  0.00  0.00    +0.000 C 
ATOM     14  C   UNL     1       6.342   3.902  14.042  0.00  0.00    +0.000 C 
ATOM     15  C   UNL     1       6.705   5.254  14.671  0.00  0.00    +0.000 C 
ENDBRANCH  11  12
ENDBRANCH   5   7
BRANCH   1  17
ATOM     16  N   UNL     1       1.946   7.579  20.135  0.00  0.00    +0.000 N 
ATOM     17  C   UNL     1       2.740   6.927  19.189  0.00  0.00    +0.000 C 
ATOM     18  O   UNL     1       3.111   7.546  18.192  0.00  0.00    +0.000 OA
ATOM     19  H   UNL     1       1.516   7.042  20.877  0.00  0.00    +0.000 HD
BRANCH  16  20
ATOM     20  C   UNL     1       1.380   8.893  19.839  0.00  0.00    +0.000 C 
BRANCH  20  24
ATOM     21  C   UNL     1      -0.762  12.903  22.098  0.00  0.00    +0.000 C 
ATOM     22  C   UNL     1      -0.322  11.468  22.088  0.00  0.00    +0.000 A 
ATOM     23  C   UNL     1       0.229  10.877  20.948  0.00  0.00    +0.000 A 
ATOM     24  C   UNL     1       0.646   9.535  20.993  0.00  0.00    +0.000 A 
ATOM     25  C   UNL     1       0.485   8.845  22.197  0.00  0.00    +0.000 A 
ATOM     26  C   UNL     1      -0.082   9.504  23.277  0.00  0.00    +0.000 A 
ATOM     27  N   UNL     1      -0.493  10.790  23.244  0.00  0.00    +0.000 NA
ENDBRANCH  20  24
ENDBRANCH  16  20
ENDBRANCH   1  17
TORSDOF 5
ENDMDL
MODEL 4
REMARK VINA RESULT:      -8.4      3.524      7.133
REMARK  Name = 
REMARK  6 active torsions:
REMARK  status: ('A' for Active; 'I' for Inactive)
REMARK    1  A    between atoms: C_1  and  C_2
REMARK    2  A    between atoms: C_4  and  C_5
REMARK    3  A    between atoms: C_5  and  N_6
REMARK    4  A    between atoms: C_7  and  C_9
REMARK    5  A    between atoms: C_13  and  C_14
REMARK    6  A    between atoms: N_18  and  C_19
REMARK                            x       y       z     vdW  Elec       q    Type
REMARK                         _______ _______ _______ _____ _____    ______ ____
ROOT
ATOM      1  C   UNL     1       3.325   5.337  19.634  0.00  0.00    +0.000 C 
ATOM      2  C   UNL     1       2.227   4.246  19.956  0.00  0.00    +0.000 C 
ATOM      3  C   UNL     1       2.977   3.058  20.552  0.00  0.00    +0.000 C 
ATOM      4  C   UNL     1       4.099   2.938  19.515  0.00  0.00    +0.000 C 
ATOM      5  C   UNL     1       3.774   4.162  18.639  0.00  0.00    +0.000 C 
ATOM      6  C   UNL     1       2.244   3.962  18.415  0.00  0.00    +0.000 C 
ENDROOT
BRANCH   5   7
ATOM      7  C   UNL     1       4.651   4.450  17.431  0.00  0.00    +0.000 A 
ATOM      8  C   UNL     1       4.523   3.788  16.225  0.00  0.00    +0.000 A 
ATOM      9  C   UNL     1       5.433   4.394  15.354  0.00  0.00    +0.000 A 
ATOM     10  N   UNL     1       6.097   5.381  15.939  0.00  0.00    +0.000 NA
ATOM     11  N   UNL     1       5.656   5.387  17.218  0.00  0.00    +0.000 N 
BRANCH  11  12
ATOM     12  C   UNL     1       6.243   6.304  18.177  0.00  0.00    +0.000 C 
ATOM     13  C   UNL     1       7.054   7.434  17.463  0.00  0.00    +0.000 C 
ATOM     14  C   UNL     1       8.223   7.185  18.425  0.00  0.00    +0.000 C 
ATOM     15  C   UNL     1       7.614   5.812  18.741  0.00  0.00    +0.000 C 
ENDBRANCH  11  12
ENDBRANCH   5   7
BRANCH   1  17
ATOM     16  N   UNL     1       2.148   7.520  20.151  0.00  0.00    +0.000 N 
ATOM     17  C   UNL     1       2.761   6.751  19.160  0.00  0.00    +0.000 C 
ATOM     18  O   UNL     1       2.804   7.184  18.009  0.00  0.00    +0.000 OA
ATOM     19  H   UNL     1       1.977   7.112  21.062  0.00  0.00    +0.000 HD
BRANCH  16  20
ATOM     20  C   UNL     1       1.378   8.708  19.789  0.00  0.00    +0.000 C 
BRANCH  20  24
ATOM     21  C   UNL     1      -1.000  12.668  21.894  0.00  0.00    +0.000 C 
ATOM     22  C   UNL     1      -0.415  11.288  21.960  0.00  0.00    +0.000 A 
ATOM     23  C   UNL     1       0.110  10.658  20.830  0.00  0.00    +0.000 A 
ATOM     24  C   UNL     1       0.667   9.371  20.946  0.00  0.00    +0.000 A 
ATOM     25  C   UNL     1       0.666   8.774  22.208  0.00  0.00    +0.000 A 
ATOM     26  C   UNL     1       0.113   9.465  23.276  0.00  0.00    +0.000 A 
ATOM     27  N   UNL     1      -0.431  10.697  23.176  0.00  0.00    +0.000 NA
ENDBRANCH  20  24
ENDBRANCH  16  20
ENDBRANCH   1  17
TORSDOF 5
ENDMDL
MODEL 5
REMARK VINA RESULT:      -8.3      3.468      7.462
REMARK  Name = 
REMARK  6 active torsions:
REMARK  status: ('A' for Active; 'I' for Inactive)
REMARK    1  A    between atoms: C_1  and  C_2
REMARK    2  A    between atoms: C_4  and  C_5
REMARK    3  A    between atoms: C_5  and  N_6
REMARK    4  A    between atoms: C_7  and  C_9
REMARK    5  A    between atoms: C_13  and  C_14
REMARK    6  A    between atoms: N_18  and  C_19
REMARK                            x       y       z     vdW  Elec       q    Type
REMARK                         _______ _______ _______ _____ _____    ______ ____
ROOT
ATOM      1  C   UNL     1       3.043   6.088  19.253  0.00  0.00    +0.000 C 
ATOM      2  C   UNL     1       1.738   5.253  19.564  0.00  0.00    +0.000 C 
ATOM      3  C   UNL     1       2.154   4.182  20.568  0.00  0.00    +0.000 C 
ATOM      4  C   UNL     1       3.414   3.667  19.863  0.00  0.00    +0.000 C 
ATOM      5  C   UNL     1       3.467   4.652  18.680  0.00  0.00    +0.000 C 
ATOM      6  C   UNL     1       1.995   4.578  18.172  0.00  0.00    +0.000 C 
ENDROOT
BRANCH   5   7
ATOM      7  C   UNL     1       4.590   4.513  17.664  0.00  0.00    +0.000 A 
ATOM      8  C   UNL     1       4.559   3.613  16.616  0.00  0.00    +0.000 A 
ATOM      9  C   UNL     1       5.713   3.854  15.866  0.00  0.00    +0.000 A 
ATOM     10  N   UNL     1       6.439   4.840  16.376  0.00  0.00    +0.000 NA
ATOM     11  N   UNL     1       5.781   5.211  17.497  0.00  0.00    +0.000 N 
BRANCH  11  12
ATOM     12  C   UNL     1       6.349   6.230  18.361  0.00  0.00    +0.000 C 
ATOM     13  C   UNL     1       7.016   7.375  17.530  0.00  0.00    +0.000 C 
ATOM     14  C   UNL     1       8.260   7.278  18.422  0.00  0.00    +0.000 C 
ATOM     15  C   UNL     1       7.790   5.883  18.856  0.00  0.00    +0.000 C 
ENDBRANCH  11  12
ENDBRANCH   5   7
BRANCH   1  17
ATOM     16  N   UNL     1       1.859   8.285  18.816  0.00  0.00    +0.000 N 
ATOM     17  C   UNL     1       2.822   7.386  18.353  0.00  0.00    +0.000 C 
ATOM     18  O   UNL     1       3.406   7.627  17.298  0.00  0.00    +0.000 OA
ATOM     19  H   UNL     1       1.273   8.025  19.599  0.00  0.00    +0.000 HD
BRANCH  16  20
ATOM     20  C   UNL     1       1.394   9.371  17.957  0.00  0.00    +0.000 C 
BRANCH  20  24
ATOM     21  C   UNL     1      -3.449  10.769  17.357  0.00  0.00    +0.000 C 
ATOM     22  C   UNL     1      -2.155  10.772  18.117  0.00  0.00    +0.000 A 
ATOM     23  C   UNL     1      -1.060  10.008  17.706  0.00  0.00    +0.000 A 
ATOM     24  C   UNL     1       0.138  10.060  18.440  0.00  0.00    +0.000 A 
ATOM     25  C   UNL     1       0.176  10.886  19.565  0.00  0.00    +0.000 A 
ATOM     26  C   UNL     1      -0.960  11.601  19.910  0.00  0.00    +0.000 A 
ATOM     27  N   UNL     1      -2.119  11.555  19.219  0.00  0.00    +0.000 NA
ENDBRANCH  20  24
ENDBRANCH  16  20
ENDBRANCH   1  17
TORSDOF 5
ENDMDL
MODEL 6
REMARK VINA RESULT:      -8.3      0.611      1.290
REMARK  Name = 
REMARK  6 active torsions:
REMARK  status: ('A' for Active; 'I' for Inactive)
REMARK    1  A    between atoms: C_1  and  C_2
REMARK    2  A    between atoms: C_4  and  C_5
REMARK    3  A    between atoms: C_5  and  N_6
REMARK    4  A    between atoms: C_7  and  C_9
REMARK    5  A    between atoms: C_13  and  C_14
REMARK    6  A    between atoms: N_18  and  C_19
REMARK                            x       y       z     vdW  Elec       q    Type
REMARK                         _______ _______ _______ _____ _____    ______ ____
ROOT
ATOM      1  C   UNL     1       6.901   6.379  16.601  0.00  0.00    +0.000 C 
ATOM      2  C   UNL     1       7.384   4.905  16.299  0.00  0.00    +0.000 C 
ATOM      3  C   UNL     1       6.734   4.511  14.976  0.00  0.00    +0.000 C 
ATOM      4  C   UNL     1       5.296   4.952  15.274  0.00  0.00    +0.000 C 
ATOM      5  C   UNL     1       5.505   5.592  16.659  0.00  0.00    +0.000 C 
ATOM      6  C   UNL     1       6.327   4.477  17.375  0.00  0.00    +0.000 C 
ENDROOT
BRANCH   5   7
ATOM      7  C   UNL     1       4.303   6.180  17.381  0.00  0.00    +0.000 A 
ATOM      8  C   UNL     1       3.986   7.525  17.357  0.00  0.00    +0.000 A 
ATOM      9  C   UNL     1       2.779   7.649  18.050  0.00  0.00    +0.000 A 
ATOM     10  N   UNL     1       2.334   6.478  18.485  0.00  0.00    +0.000 NA
ATOM     11  N   UNL     1       3.284   5.588  18.119  0.00  0.00    +0.000 N 
BRANCH  11  12
ATOM     12  C   UNL     1       3.157   4.197  18.514  0.00  0.00    +0.000 C 
ATOM     13  C   UNL     1       2.564   3.328  17.358  0.00  0.00    +0.000 C 
ATOM     14  C   UNL     1       1.572   2.708  18.350  0.00  0.00    +0.000 C 
ATOM     15  C   UNL     1       1.834   3.895  19.288  0.00  0.00    +0.000 C 
ENDBRANCH  11  12
ENDBRANCH   5   7
BRANCH   1  17
ATOM     16  N   UNL     1       7.929   8.424  17.687  0.00  0.00    +0.000 N 
ATOM     17  C   UNL     1       7.592   7.078  17.855  0.00  0.00    +0.000 C 
ATOM     18  O   UNL     1       7.865   6.523  18.919  0.00  0.00    +0.000 OA
ATOM     19  H   UNL     1       7.844   8.846  16.772  0.00  0.00    +0.000 HD
BRANCH  16  20
ATOM     20  C   UNL     1       8.785   9.094  18.663  0.00  0.00    +0.000 C 
BRANCH  20  24
ATOM     21  C   UNL     1       7.362  13.788  17.354  0.00  0.00    +0.000 C 
ATOM     22  C   UNL     1       8.412  12.760  17.657  0.00  0.00    +0.000 A 
ATOM     23  C   UNL     1       8.077  11.473  18.088  0.00  0.00    +0.000 A 
ATOM     24  C   UNL     1       9.096  10.537  18.338  0.00  0.00    +0.000 A 
ATOM     25  C   UNL     1      10.417  10.945  18.141  0.00  0.00    +0.000 A 
ATOM     26  C   UNL     1      10.662  12.244  17.723  0.00  0.00    +0.000 A 
ATOM     27  N   UNL     1       9.694  13.155  17.486  0.00  0.00    +0.000 NA
ENDBRANCH  20  24
ENDBRANCH  16  20
ENDBRANCH   1  17
TORSDOF 5
ENDMDL
MODEL 7
REMARK VINA RESULT:      -8.3      4.051      7.261
REMARK  Name = 
REMARK  6 active torsions:
REMARK  status: ('A' for Active; 'I' for Inactive)
REMARK    1  A    between atoms: C_1  and  C_2
REMARK    2  A    between atoms: C_4  and  C_5
REMARK    3  A    between atoms: C_5  and  N_6
REMARK    4  A    between atoms: C_7  and  C_9
REMARK    5  A    between atoms: C_13  and  C_14
REMARK    6  A    between atoms: N_18  and  C_19
REMARK                            x       y       z     vdW  Elec       q    Type
REMARK                         _______ _______ _______ _____ _____    ______ ____
ROOT
ATOM      1  C   UNL     1       3.049   5.989  19.168  0.00  0.00    +0.000 C 
ATOM      2  C   UNL     1       2.036   4.848  18.757  0.00  0.00    +0.000 C 
ATOM      3  C   UNL     1       2.248   3.717  19.759  0.00  0.00    +0.000 C 
ATOM      4  C   UNL     1       3.778   3.634  19.707  0.00  0.00    +0.000 C 
ATOM      5  C   UNL     1       4.069   4.818  18.767  0.00  0.00    +0.000 C 
ATOM      6  C   UNL     1       3.059   4.530  17.614  0.00  0.00    +0.000 C 
ENDROOT
BRANCH   5   7
ATOM      7  C   UNL     1       5.513   5.126  18.404  0.00  0.00    +0.000 A 
ATOM      8  C   UNL     1       6.486   5.413  19.342  0.00  0.00    +0.000 A 
ATOM      9  C   UNL     1       7.682   5.543  18.629  0.00  0.00    +0.000 A 
ATOM     10  N   UNL     1       7.508   5.346  17.329  0.00  0.00    +0.000 NA
ATOM     11  N   UNL     1       6.180   5.138  17.184  0.00  0.00    +0.000 N 
BRANCH  11  12
ATOM     12  C   UNL     1       5.619   4.967  15.856  0.00  0.00    +0.000 C 
ATOM     13  C   UNL     1       5.671   3.472  15.404  0.00  0.00    +0.000 C 
ATOM     14  C   UNL     1       6.262   3.913  14.059  0.00  0.00    +0.000 C 
ATOM     15  C   UNL     1       6.647   5.247  14.713  0.00  0.00    +0.000 C 
ENDBRANCH  11  12
ENDBRANCH   5   7
BRANCH   1  17
ATOM     16  N   UNL     1       1.848   8.186  18.785  0.00  0.00    +0.000 N 
ATOM     17  C   UNL     1       2.893   7.359  18.368  0.00  0.00    +0.000 C 
ATOM     18  O   UNL     1       3.593   7.713  17.420  0.00  0.00    +0.000 OA
ATOM     19  H   UNL     1       1.180   7.839  19.461  0.00  0.00    +0.000 HD
BRANCH  16  20
ATOM     20  C   UNL     1       1.452   9.335  17.974  0.00  0.00    +0.000 C 
BRANCH  20  24
ATOM     21  C   UNL     1      -3.380  10.766  17.361  0.00  0.00    +0.000 C 
ATOM     22  C   UNL     1      -2.086  10.766  18.121  0.00  0.00    +0.000 A 
ATOM     23  C   UNL     1      -0.997   9.989  17.717  0.00  0.00    +0.000 A 
ATOM     24  C   UNL     1       0.202  10.039  18.450  0.00  0.00    +0.000 A 
ATOM     25  C   UNL     1       0.247  10.876  19.567  0.00  0.00    +0.000 A 
ATOM     26  C   UNL     1      -0.883  11.604  19.905  0.00  0.00    +0.000 A 
ATOM     27  N   UNL     1      -2.043  11.560  19.214  0.00  0.00    +0.000 NA
ENDBRANCH  20  24
ENDBRANCH  16  20
ENDBRANCH   1  17
TORSDOF 5
ENDMDL
MODEL 8
REMARK VINA RESULT:      -8.2      3.579      7.138
REMARK  Name = 
REMARK  6 active torsions:
REMARK  status: ('A' for Active; 'I' for Inactive)
REMARK    1  A    between atoms: C_1  and  C_2
REMARK    2  A    between atoms: C_4  and  C_5
REMARK    3  A    between atoms: C_5  and  N_6
REMARK    4  A    between atoms: C_7  and  C_9
REMARK    5  A    between atoms: C_13  and  C_14
REMARK    6  A    between atoms: N_18  and  C_19
REMARK                            x       y       z     vdW  Elec       q    Type
REMARK                         _______ _______ _______ _____ _____    ______ ____
ROOT
ATOM      1  C   UNL     1       3.011   5.890  19.559  0.00  0.00    +0.000 C 
ATOM      2  C   UNL     1       1.730   5.036  19.915  0.00  0.00    +0.000 C 
ATOM      3  C   UNL     1       2.214   3.910  20.823  0.00  0.00    +0.000 C 
ATOM      4  C   UNL     1       3.419   3.439  20.000  0.00  0.00    +0.000 C 
ATOM      5  C   UNL     1       3.389   4.490  18.875  0.00  0.00    +0.000 C 
ATOM      6  C   UNL     1       1.884   4.443  18.472  0.00  0.00    +0.000 C 
ENDROOT
BRANCH   5   7
ATOM      7  C   UNL     1       4.436   4.412  17.775  0.00  0.00    +0.000 A 
ATOM      8  C   UNL     1       4.335   3.563  16.690  0.00  0.00    +0.000 A 
ATOM      9  C   UNL     1       5.429   3.852  15.870  0.00  0.00    +0.000 A 
ATOM     10  N   UNL     1       6.182   4.821  16.372  0.00  0.00    +0.000 NA
ATOM     11  N   UNL     1       5.605   5.132  17.555  0.00  0.00    +0.000 N 
BRANCH  11  12
ATOM     12  C   UNL     1       6.227   6.115  18.423  0.00  0.00    +0.000 C 
ATOM     13  C   UNL     1       6.935   7.238  17.597  0.00  0.00    +0.000 C 
ATOM     14  C   UNL     1       8.184   7.077  18.473  0.00  0.00    +0.000 C 
ATOM     15  C   UNL     1       7.657   5.700  18.898  0.00  0.00    +0.000 C 
ENDBRANCH  11  12
ENDBRANCH   5   7
BRANCH   1  17
ATOM     16  N   UNL     1       1.901   8.162  19.396  0.00  0.00    +0.000 N 
ATOM     17  C   UNL     1       2.729   7.237  18.754  0.00  0.00    +0.000 C 
ATOM     18  O   UNL     1       3.156   7.497  17.630  0.00  0.00    +0.000 OA
ATOM     19  H   UNL     1       1.429   7.896  20.250  0.00  0.00    +0.000 HD
BRANCH  16  20
ATOM     20  C   UNL     1       1.372   9.308  18.661  0.00  0.00    +0.000 C 
BRANCH  20  24
ATOM     21  C   UNL     1      -0.885  10.637  23.010  0.00  0.00    +0.000 C 
ATOM     22  C   UNL     1      -0.653  10.798  21.535  0.00  0.00    +0.000 A 
ATOM     23  C   UNL     1       0.298  10.035  20.854  0.00  0.00    +0.000 A 
ATOM     24  C   UNL     1       0.464  10.207  19.468  0.00  0.00    +0.000 A 
ATOM     25  C   UNL     1      -0.345  11.148  18.828  0.00  0.00    +0.000 A 
ATOM     26  C   UNL     1      -1.257  11.871  19.582  0.00  0.00    +0.000 A 
ATOM     27  N   UNL     1      -1.421  11.721  20.914  0.00  0.00    +0.000 NA
ENDBRANCH  20  24
ENDBRANCH  16  20
ENDBRANCH   1  17
TORSDOF 5
ENDMDL
MODEL 9
REMARK VINA RESULT:      -8.1      3.142      6.541
REMARK  Name = 
REMARK  6 active torsions:
REMARK  status: ('A' for Active; 'I' for Inactive)
REMARK    1  A    between atoms: C_1  and  C_2
REMARK    2  A    between atoms: C_4  and  C_5
REMARK    3  A    between atoms: C_5  and  N_6
REMARK    4  A    between atoms: C_7  and  C_9
REMARK    5  A    between atoms: C_13  and  C_14
REMARK    6  A    between atoms: N_18  and  C_19
REMARK                            x       y       z     vdW  Elec       q    Type
REMARK                         _______ _______ _______ _____ _____    ______ ____
ROOT
ATOM      1  C   UNL     1       3.586   5.485  18.703  0.00  0.00    +0.000 C 
ATOM      2  C   UNL     1       2.428   4.409  18.712  0.00  0.00    +0.000 C 
ATOM      3  C   UNL     1       2.980   3.204  19.469  0.00  0.00    +0.000 C 
ATOM      4  C   UNL     1       4.333   3.075  18.761  0.00  0.00    +0.000 C 
ATOM      5  C   UNL     1       4.265   4.312  17.847  0.00  0.00    +0.000 C 
ATOM      6  C   UNL     1       2.845   4.138  17.226  0.00  0.00    +0.000 C 
ENDROOT
BRANCH   5   7
ATOM      7  C   UNL     1       5.432   4.596  16.914  0.00  0.00    +0.000 A 
ATOM      8  C   UNL     1       5.675   3.875  15.761  0.00  0.00    +0.000 A 
ATOM      9  C   UNL     1       6.766   4.493  15.143  0.00  0.00    +0.000 A 
ATOM     10  N   UNL     1       7.197   5.542  15.830  0.00  0.00    +0.000 NA
ATOM     11  N   UNL     1       6.416   5.579  16.933  0.00  0.00    +0.000 N 
BRANCH  11  12
ATOM     12  C   UNL     1       6.670   6.570  17.962  0.00  0.00    +0.000 C 
ATOM     13  C   UNL     1       7.478   7.784  17.397  0.00  0.00    +0.000 C 
ATOM     14  C   UNL     1       8.433   7.688  18.594  0.00  0.00    +0.000 C 
ATOM     15  C   UNL     1       7.937   6.254  18.822  0.00  0.00    +0.000 C 
ENDBRANCH  11  12
ENDBRANCH   5   7
BRANCH   1  17
ATOM     16  N   UNL     1       2.280   7.648  18.883  0.00  0.00    +0.000 N 
ATOM     17  C   UNL     1       3.185   6.911  18.116  0.00  0.00    +0.000 C 
ATOM     18  O   UNL     1       3.588   7.381  17.052  0.00  0.00    +0.000 OA
ATOM     19  H   UNL     1       1.833   7.211  19.679  0.00  0.00    +0.000 HD
BRANCH  16  20
ATOM     20  C   UNL     1       1.651   8.845  18.329  0.00  0.00    +0.000 C 
BRANCH  20  24
ATOM     21  C   UNL     1       0.859  13.586  19.962  0.00  0.00    +0.000 C 
ATOM     22  C   UNL     1       0.839  12.098  20.158  0.00  0.00    +0.000 A 
ATOM     23  C   UNL     1       1.172  11.217  19.126  0.00  0.00    +0.000 A 
ATOM     24  C   UNL     1       1.159   9.831  19.363  0.00  0.00    +0.000 A 
ATOM     25  C   UNL     1       0.807   9.394  20.642  0.00  0.00    +0.000 A 
ATOM     26  C   UNL     1       0.480  10.336  21.606  0.00  0.00    +0.000 A 
ATOM     27  N   UNL     1       0.481  11.668  21.389  0.00  0.00    +0.000 NA
ENDBRANCH  20  24
ENDBRANCH  16  20
ENDBRANCH   1  17
TORSDOF 5
ENDMDL
