MODEL 1
REMARK VINA RESULT:      -8.0      0.000      0.000
REMARK  Name = 
REMARK  6 active torsions:
REMARK  status: ('A' for Active; 'I' for Inactive)
REMARK    1  A    between atoms: C_1  and  C_2
REMARK    2  A    between atoms: C_5  and  N_6
REMARK    3  A    between atoms: C_7  and  C_9
REMARK    4  A    between atoms: C_9  and  O_10
REMARK    5  A    between atoms: O_10  and  C_11
REMARK    6  A    between atoms: N_19  and  C_20
REMARK                            x       y       z     vdW  Elec       q    Type
REMARK                         _______ _______ _______ _____ _____    ______ ____
ROOT
ATOM      1  C   UNL     1       6.662   6.790  17.488  0.00  0.00    +0.000 A 
ATOM      2  N   UNL     1       7.467   5.711  17.504  0.00  0.00    +0.000 NA
ATOM      3  C   UNL     1       6.900   4.525  17.797  0.00  0.00    +0.000 A 
ATOM      4  N   UNL     1       5.614   4.277  18.098  0.00  0.00    +0.000 NA
ATOM      5  C   UNL     1       4.849   5.391  18.071  0.00  0.00    +0.000 A 
ATOM      6  C   UNL     1       5.311   6.657  17.767  0.00  0.00    +0.000 A 
ATOM      7  C   UNL     1       4.193   7.491  17.837  0.00  0.00    +0.000 A 
ATOM      8  N   UNL     1       3.082   6.834  18.163  0.00  0.00    +0.000 NA
ATOM      9  N   UNL     1       3.484   5.531  18.319  0.00  0.00    +0.000 N 
ENDROOT
BRANCH   9  10
ATOM     10  C   UNL     1       2.529   4.538  18.687  0.00  0.00    +0.000 A 
ATOM     11  C   UNL     1       2.335   3.427  17.848  0.00  0.00    +0.000 A 
ATOM     12  C   UNL     1       1.419   2.432  18.194  0.00  0.00    +0.000 A 
ATOM     13  C   UNL     1       0.684   2.539  19.373  0.00  0.00    +0.000 A 
ATOM     14  C   UNL     1       0.862   3.643  20.203  0.00  0.00    +0.000 A 
ATOM     15  C   UNL     1       1.781   4.640  19.865  0.00  0.00    +0.000 A 
ENDBRANCH   9  10
BRANCH   1  16
ATOM     16  O   UNL     1       7.156   8.042  17.217  0.00  0.00    +0.000 OA
BRANCH  16  17
ATOM     17  C   UNL     1       8.429   8.293  17.803  0.00  0.00    +0.000 C 
BRANCH  17  19
ATOM     18  N   UNL     1       9.314  10.010  19.288  0.00  0.00    +0.000 N 
ATOM     19  C   UNL     1       8.489   9.766  18.194  0.00  0.00    +0.000 C 
ATOM     20  O   UNL     1       7.879  10.605  17.534  0.00  0.00    +0.000 OA
ATOM     21  H   UNL     1       9.750   9.190  19.695  0.00  0.00    +0.000 HD
BRANCH  18  26
ATOM     22  C   UNL     1      10.254  14.989  21.963  0.00  0.00    +0.000 C 
ATOM     23  C   UNL     1      10.002  13.690  21.256  0.00  0.00    +0.000 A 
ATOM     24  C   UNL     1      10.543  13.466  19.987  0.00  0.00    +0.000 A 
ATOM     25  C   UNL     1      10.325  12.256  19.324  0.00  0.00    +0.000 A 
ATOM     26  C   UNL     1       9.565  11.246  19.911  0.00  0.00    +0.000 A 
ATOM     27  C   UNL     1       9.016  11.471  21.179  0.00  0.00    +0.000 A 
ATOM     28  C   UNL     1       9.235  12.683  21.847  0.00  0.00    +0.000 A 
ENDBRANCH  18  26
ENDBRANCH  17  19
ENDBRANCH  16  17
ENDBRANCH   1  16
TORSDOF 5
ENDMDL
MODEL 2
REMARK VINA RESULT:      -8.0      1.042      1.431
REMARK  Name = 
REMARK  6 active torsions:
REMARK  status: ('A' for Active; 'I' for Inactive)
REMARK    1  A    between atoms: C_1  and  C_2
REMARK    2  A    between atoms: C_5  and  N_6
REMARK    3  A    between atoms: C_7  and  C_9
REMARK    4  A    between atoms: C_9  and  O_10
REMARK    5  A    between atoms: O_10  and  C_11
REMARK    6  A    between atoms: N_19  and  C_20
REMARK                            x       y       z     vdW  Elec       q    Type
REMARK                         _______ _______ _______ _____ _____    ______ ____
ROOT
ATOM      1  C   UNL     1       6.932   6.415  16.687  0.00  0.00    +0.000 A 
ATOM      2  N   UNL     1       7.438   5.421  15.933  0.00  0.00    +0.000 NA
ATOM      3  C   UNL     1       6.741   4.269  15.886  0.00  0.00    +0.000 A 
ATOM      4  N   UNL     1       5.594   3.973  16.517  0.00  0.00    +0.000 NA
ATOM      5  C   UNL     1       5.128   5.001  17.261  0.00  0.00    +0.000 A 
ATOM      6  C   UNL     1       5.743   6.233  17.374  0.00  0.00    +0.000 A 
ATOM      7  C   UNL     1       4.919   6.988  18.213  0.00  0.00    +0.000 A 
ATOM      8  N   UNL     1       3.849   6.311  18.625  0.00  0.00    +0.000 NA
ATOM      9  N   UNL     1       3.977   5.074  18.045  0.00  0.00    +0.000 N 
ENDROOT
BRANCH   9  10
ATOM     10  C   UNL     1       2.988   4.075  18.288  0.00  0.00    +0.000 A 
ATOM     11  C   UNL     1       3.371   2.858  18.875  0.00  0.00    +0.000 A 
ATOM     12  C   UNL     1       2.419   1.871  19.140  0.00  0.00    +0.000 A 
ATOM     13  C   UNL     1       1.082   2.086  18.814  0.00  0.00    +0.000 A 
ATOM     14  C   UNL     1       0.697   3.285  18.219  0.00  0.00    +0.000 A 
ATOM     15  C   UNL     1       1.643   4.279  17.957  0.00  0.00    +0.000 A 
ENDBRANCH   9  10
BRANCH   1  16
ATOM     16  O   UNL     1       7.584   7.617  16.809  0.00  0.00    +0.000 OA
BRANCH  16  17
ATOM     17  C   UNL     1       8.200   7.807  18.078  0.00  0.00    +0.000 C 
BRANCH  17  19
ATOM     18  N   UNL     1       9.285   9.606  19.313  0.00  0.00    +0.000 N 
ATOM     19  C   UNL     1       8.383   9.306  18.296  0.00  0.00    +0.000 C 
ATOM     20  O   UNL     1       7.797  10.110  17.575  0.00  0.00    +0.000 OA
ATOM     21  H   UNL     1       9.685   8.806  19.789  0.00  0.00    +0.000 HD
BRANCH  18  26
ATOM     22  C   UNL     1      10.884  14.824  21.059  0.00  0.00    +0.000 C 
ATOM     23  C   UNL     1      10.470  13.453  20.610  0.00  0.00    +0.000 A 
ATOM     24  C   UNL     1       9.604  12.689  21.395  0.00  0.00    +0.000 A 
ATOM     25  C   UNL     1       9.203  11.417  20.981  0.00  0.00    +0.000 A 
ATOM     26  C   UNL     1       9.656  10.881  19.778  0.00  0.00    +0.000 A 
ATOM     27  C   UNL     1      10.530  11.642  18.991  0.00  0.00    +0.000 A 
ATOM     28  C   UNL     1      10.932  12.920  19.404  0.00  0.00    +0.000 A 
ENDBRANCH  18  26
ENDBRANCH  17  19
ENDBRANCH  16  17
ENDBRANCH   1  16
TORSDOF 5
ENDMDL
MODEL 3
REMARK VINA RESULT:      -8.0      0.746      1.202
REMARK  Name = 
REMARK  6 active torsions:
REMARK  status: ('A' for Active; 'I' for Inactive)
REMARK    1  A    between atoms: C_1  and  C_2
REMARK    2  A    between atoms: C_5  and  N_6
REMARK    3  A    between atoms: C_7  and  C_9
REMARK    4  A    between atoms: C_9  and  O_10
REMARK    5  A    between atoms: O_10  and  C_11
REMARK    6  A    between atoms: N_19  and  C_20
REMARK                            x       y       z     vdW  Elec       q    Type
REMARK                         _______ _______ _______ _____ _____    ______ ____
ROOT
ATOM      1  C   UNL     1       6.847   6.510  16.914  0.00  0.00    +0.000 A 
ATOM      2  N   UNL     1       7.476   5.449  16.372  0.00  0.00    +0.000 NA
ATOM      3  C   UNL     1       6.826   4.269  16.401  0.00  0.00    +0.000 A 
ATOM      4  N   UNL     1       5.616   4.006  16.923  0.00  0.00    +0.000 NA
ATOM      5  C   UNL     1       5.029   5.101  17.455  0.00  0.00    +0.000 A 
ATOM      6  C   UNL     1       5.587   6.365  17.469  0.00  0.00    +0.000 A 
ATOM      7  C   UNL     1       4.641   7.185  18.089  0.00  0.00    +0.000 A 
ATOM      8  N   UNL     1       3.548   6.520  18.457  0.00  0.00    +0.000 NA
ATOM      9  N   UNL     1       3.786   5.223  18.074  0.00  0.00    +0.000 N 
ENDROOT
BRANCH   9  10
ATOM     10  C   UNL     1       2.805   4.221  18.331  0.00  0.00    +0.000 A 
ATOM     11  C   UNL     1       1.857   4.431  19.346  0.00  0.00    +0.000 A 
ATOM     12  C   UNL     1       0.875   3.472  19.605  0.00  0.00    +0.000 A 
ATOM     13  C   UNL     1       0.836   2.295  18.862  0.00  0.00    +0.000 A 
ATOM     14  C   UNL     1       1.781   2.074  17.862  0.00  0.00    +0.000 A 
ATOM     15  C   UNL     1       2.762   3.031  17.594  0.00  0.00    +0.000 A 
ENDBRANCH   9  10
BRANCH   1  16
ATOM     16  O   UNL     1       7.442   7.746  16.946  0.00  0.00    +0.000 OA
BRANCH  16  17
ATOM     17  C   UNL     1       8.195   7.989  18.130  0.00  0.00    +0.000 C 
BRANCH  17  19
ATOM     18  N   UNL     1       9.407   9.832  19.165  0.00  0.00    +0.000 N 
ATOM     19  C   UNL     1       8.407   9.494  18.257  0.00  0.00    +0.000 C 
ATOM     20  O   UNL     1       7.756  10.269  17.561  0.00  0.00    +0.000 OA
ATOM     21  H   UNL     1       9.848   9.051  19.636  0.00  0.00    +0.000 HD
BRANCH  18  26
ATOM     22  C   UNL     1      11.069  15.063  20.809  0.00  0.00    +0.000 C 
ATOM     23  C   UNL     1      10.628  13.697  20.372  0.00  0.00    +0.000 A 
ATOM     24  C   UNL     1      10.911  13.249  19.079  0.00  0.00    +0.000 A 
ATOM     25  C   UNL     1      10.514  11.975  18.665  0.00  0.00    +0.000 A 
ATOM     26  C   UNL     1       9.830  11.123  19.530  0.00  0.00    +0.000 A 
ATOM     27  C   UNL     1       9.538  11.573  20.824  0.00  0.00    +0.000 A 
ATOM     28  C   UNL     1       9.936  12.850  21.242  0.00  0.00    +0.000 A 
ENDBRANCH  18  26
ENDBRANCH  17  19
ENDBRANCH  16  17
ENDBRANCH   1  16
TORSDOF 5
ENDMDL
MODEL 4
REMARK VINA RESULT:      -8.0      1.790      2.401
REMARK  Name = 
REMARK  6 active torsions:
REMARK  status: ('A' for Active; 'I' for Inactive)
REMARK    1  A    between atoms: C_1  and  C_2
REMARK    2  A    between atoms: C_5  and  N_6
REMARK    3  A    between atoms: C_7  and  C_9
REMARK    4  A    between atoms: C_9  and  O_10
REMARK    5  A    between atoms: O_10  and  C_11
REMARK    6  A    between atoms: N_19  and  C_20
REMARK                            x       y       z     vdW  Elec       q    Type
REMARK                         _______ _______ _______ _____ _____    ______ ____
ROOT
ATOM      1  C   UNL     1       7.628   7.269  18.143  0.00  0.00    +0.000 A 
ATOM      2  N   UNL     1       8.298   6.535  19.052  0.00  0.00    +0.000 NA
ATOM      3  C   UNL     1       7.716   5.396  19.472  0.00  0.00    +0.000 A 
ATOM      4  N   UNL     1       6.525   4.895  19.107  0.00  0.00    +0.000 NA
ATOM      5  C   UNL     1       5.892   5.667  18.196  0.00  0.00    +0.000 A 
ATOM      6  C   UNL     1       6.394   6.845  17.677  0.00  0.00    +0.000 A 
ATOM      7  C   UNL     1       5.434   7.294  16.768  0.00  0.00    +0.000 A 
ATOM      8  N   UNL     1       4.380   6.482  16.691  0.00  0.00    +0.000 NA
ATOM      9  N   UNL     1       4.654   5.475  17.582  0.00  0.00    +0.000 N 
ENDROOT
BRANCH   9  10
ATOM     10  C   UNL     1       3.713   4.420  17.765  0.00  0.00    +0.000 A 
ATOM     11  C   UNL     1       2.370   4.735  18.031  0.00  0.00    +0.000 A 
ATOM     12  C   UNL     1       1.425   3.720  18.196  0.00  0.00    +0.000 A 
ATOM     13  C   UNL     1       1.812   2.385  18.105  0.00  0.00    +0.000 A 
ATOM     14  C   UNL     1       3.144   2.064  17.853  0.00  0.00    +0.000 A 
ATOM     15  C   UNL     1       4.094   3.075  17.682  0.00  0.00    +0.000 A 
ENDBRANCH   9  10
BRANCH   1  16
ATOM     16  O   UNL     1       8.136   8.454  17.672  0.00  0.00    +0.000 OA
BRANCH  16  17
ATOM     17  C   UNL     1       8.806   9.223  18.664  0.00  0.00    +0.000 C 
BRANCH  17  19
ATOM     18  N   UNL     1      10.127  11.265  18.509  0.00  0.00    +0.000 N 
ATOM     19  C   UNL     1       8.928  10.655  18.152  0.00  0.00    +0.000 C 
ATOM     20  O   UNL     1       8.037  11.140  17.458  0.00  0.00    +0.000 OA
ATOM     21  H   UNL     1      10.751  10.700  19.073  0.00  0.00    +0.000 HD
BRANCH  18  26
ATOM     22  C   UNL     1      11.759  16.661  17.484  0.00  0.00    +0.000 C 
ATOM     23  C   UNL     1      11.325  15.249  17.745  0.00  0.00    +0.000 A 
ATOM     24  C   UNL     1      11.490  14.271  16.762  0.00  0.00    +0.000 A 
ATOM     25  C   UNL     1      11.099  12.951  16.998  0.00  0.00    +0.000 A 
ATOM     26  C   UNL     1      10.538  12.579  18.218  0.00  0.00    +0.000 A 
ATOM     27  C   UNL     1      10.365  13.559  19.203  0.00  0.00    +0.000 A 
ATOM     28  C   UNL     1      10.757  14.884  18.969  0.00  0.00    +0.000 A 
ENDBRANCH  18  26
ENDBRANCH  17  19
ENDBRANCH  16  17
ENDBRANCH   1  16
TORSDOF 5
ENDMDL
MODEL 5
REMARK VINA RESULT:      -7.9      0.390      1.360
REMARK  Name = 
REMARK  6 active torsions:
REMARK  status: ('A' for Active; 'I' for Inactive)
REMARK    1  A    between atoms: C_1  and  C_2
REMARK    2  A    between atoms: C_5  and  N_6
REMARK    3  A    between atoms: C_7  and  C_9
REMARK    4  A    between atoms: C_9  and  O_10
REMARK    5  A    between atoms: O_10  and  C_11
REMARK    6  A    between atoms: N_19  and  C_20
REMARK                            x       y       z     vdW  Elec       q    Type
REMARK                         _______ _______ _______ _____ _____    ______ ____
ROOT
ATOM      1  C   UNL     1       6.852   6.909  17.598  0.00  0.00    +0.000 A 
ATOM      2  N   UNL     1       7.754   5.925  17.776  0.00  0.00    +0.000 NA
ATOM      3  C   UNL     1       7.277   4.698  18.059  0.00  0.00    +0.000 A 
ATOM      4  N   UNL     1       5.995   4.325  18.206  0.00  0.00    +0.000 NA
ATOM      5  C   UNL     1       5.130   5.347  18.021  0.00  0.00    +0.000 A 
ATOM      6  C   UNL     1       5.497   6.642  17.709  0.00  0.00    +0.000 A 
ATOM      7  C   UNL     1       4.301   7.352  17.590  0.00  0.00    +0.000 A 
ATOM      8  N   UNL     1       3.229   6.592  17.807  0.00  0.00    +0.000 NA
ATOM      9  N   UNL     1       3.738   5.348  18.084  0.00  0.00    +0.000 N 
ENDROOT
BRANCH   9  10
ATOM     10  C   UNL     1       2.849   4.272  18.380  0.00  0.00    +0.000 A 
ATOM     11  C   UNL     1       1.909   4.423  19.413  0.00  0.00    +0.000 A 
ATOM     12  C   UNL     1       1.016   3.391  19.711  0.00  0.00    +0.000 A 
ATOM     13  C   UNL     1       1.058   2.201  18.988  0.00  0.00    +0.000 A 
ATOM     14  C   UNL     1       1.995   2.040  17.971  0.00  0.00    +0.000 A 
ATOM     15  C   UNL     1       2.888   3.070  17.664  0.00  0.00    +0.000 A 
ENDBRANCH   9  10
BRANCH   1  16
ATOM     16  O   UNL     1       7.248   8.195  17.325  0.00  0.00    +0.000 OA
BRANCH  16  17
ATOM     17  C   UNL     1       8.560   8.500  17.785  0.00  0.00    +0.000 C 
BRANCH  17  19
ATOM     18  N   UNL     1       9.339  10.144  19.406  0.00  0.00    +0.000 N 
ATOM     19  C   UNL     1       8.570   9.949  18.262  0.00  0.00    +0.000 C 
ATOM     20  O   UNL     1       7.974  10.813  17.623  0.00  0.00    +0.000 OA
ATOM     21  H   UNL     1       9.773   9.311  19.786  0.00  0.00    +0.000 HD
BRANCH  18  26
ATOM     22  C   UNL     1      10.234  15.100  22.138  0.00  0.00    +0.000 C 
ATOM     23  C   UNL     1      10.004  13.798  21.430  0.00  0.00    +0.000 A 
ATOM     24  C   UNL     1       9.166  12.832  21.993  0.00  0.00    +0.000 A 
ATOM     25  C   UNL     1       8.937  11.620  21.337  0.00  0.00    +0.000 A 
ATOM     26  C   UNL     1       9.535  11.347  20.109  0.00  0.00    +0.000 A 
ATOM     27  C   UNL     1      10.382  12.310  19.546  0.00  0.00    +0.000 A 
ATOM     28  C   UNL     1      10.613  13.528  20.201  0.00  0.00    +0.000 A 
ENDBRANCH  18  26
ENDBRANCH  17  19
ENDBRANCH  16  17
ENDBRANCH   1  16
TORSDOF 5
ENDMDL
MODEL 6
REMARK VINA RESULT:      -7.9      1.754      2.373
REMARK  Name = 
REMARK  6 active torsions:
REMARK  status: ('A' for Active; 'I' for Inactive)
REMARK    1  A    between atoms: C_1  and  C_2
REMARK    2  A    between atoms: C_5  and  N_6
REMARK    3  A    between atoms: C_7  and  C_9
REMARK    4  A    between atoms: C_9  and  O_10
REMARK    5  A    between atoms: O_10  and  C_11
REMARK    6  A    between atoms: N_19  and  C_20
REMARK                            x       y       z     vdW  Elec       q    Type
REMARK                         _______ _______ _______ _____ _____    ______ ____
ROOT
ATOM      1  C   UNL     1       7.565   7.231  18.134  0.00  0.00    +0.000 A 
ATOM      2  N   UNL     1       8.230   6.483  19.035  0.00  0.00    +0.000 NA
ATOM      3  C   UNL     1       7.625   5.360  19.467  0.00  0.00    +0.000 A 
ATOM      4  N   UNL     1       6.416   4.888  19.122  0.00  0.00    +0.000 NA
ATOM      5  C   UNL     1       5.789   5.674  18.219  0.00  0.00    +0.000 A 
ATOM      6  C   UNL     1       6.313   6.838  17.689  0.00  0.00    +0.000 A 
ATOM      7  C   UNL     1       5.351   7.308  16.793  0.00  0.00    +0.000 A 
ATOM      8  N   UNL     1       4.276   6.524  16.735  0.00  0.00    +0.000 NA
ATOM      9  N   UNL     1       4.538   5.512  17.625  0.00  0.00    +0.000 N 
ENDROOT
BRANCH   9  10
ATOM     10  C   UNL     1       3.573   4.482  17.825  0.00  0.00    +0.000 A 
ATOM     11  C   UNL     1       3.892   3.162  17.464  0.00  0.00    +0.000 A 
ATOM     12  C   UNL     1       2.971   2.132  17.666  0.00  0.00    +0.000 A 
ATOM     13  C   UNL     1       1.724   2.410  18.220  0.00  0.00    +0.000 A 
ATOM     14  C   UNL     1       1.396   3.718  18.569  0.00  0.00    +0.000 A 
ATOM     15  C   UNL     1       2.314   4.752  18.375  0.00  0.00    +0.000 A 
ENDBRANCH   9  10
BRANCH   1  16
ATOM     16  O   UNL     1       8.095   8.401  17.652  0.00  0.00    +0.000 OA
BRANCH  16  17
ATOM     17  C   UNL     1       8.799   9.157  18.632  0.00  0.00    +0.000 C 
BRANCH  17  19
ATOM     18  N   UNL     1      10.050  11.246  18.528  0.00  0.00    +0.000 N 
ATOM     19  C   UNL     1       8.874  10.603  18.153  0.00  0.00    +0.000 C 
ATOM     20  O   UNL     1       7.969  11.073  17.467  0.00  0.00    +0.000 OA
ATOM     21  H   UNL     1      10.691  10.690  19.082  0.00  0.00    +0.000 HD
BRANCH  18  26
ATOM     22  C   UNL     1      11.603  16.626  17.317  0.00  0.00    +0.000 C 
ATOM     23  C   UNL     1      11.202  15.217  17.642  0.00  0.00    +0.000 A 
ATOM     24  C   UNL     1      10.517  14.938  18.827  0.00  0.00    +0.000 A 
ATOM     25  C   UNL     1      10.130  13.632  19.134  0.00  0.00    +0.000 A 
ATOM     26  C   UNL     1      10.416  12.579  18.268  0.00  0.00    +0.000 A 
ATOM     27  C   UNL     1      11.109  12.855  17.083  0.00  0.00    +0.000 A 
ATOM     28  C   UNL     1      11.498  14.165  16.772  0.00  0.00    +0.000 A 
ENDBRANCH  18  26
ENDBRANCH  17  19
ENDBRANCH  16  17
ENDBRANCH   1  16
TORSDOF 5
ENDMDL
MODEL 7
REMARK VINA RESULT:      -7.9      1.594      1.922
REMARK  Name = 
REMARK  6 active torsions:
REMARK  status: ('A' for Active; 'I' for Inactive)
REMARK    1  A    between atoms: C_1  and  C_2
REMARK    2  A    between atoms: C_5  and  N_6
REMARK    3  A    between atoms: C_7  and  C_9
REMARK    4  A    between atoms: C_9  and  O_10
REMARK    5  A    between atoms: O_10  and  C_11
REMARK    6  A    between atoms: N_19  and  C_20
REMARK                            x       y       z     vdW  Elec       q    Type
REMARK                         _______ _______ _______ _____ _____    ______ ____
ROOT
ATOM      1  C   UNL     1       7.612   6.865  18.014  0.00  0.00    +0.000 A 
ATOM      2  N   UNL     1       8.331   6.311  19.008  0.00  0.00    +0.000 NA
ATOM      3  C   UNL     1       7.727   5.364  19.750  0.00  0.00    +0.000 A 
ATOM      4  N   UNL     1       6.470   4.903  19.636  0.00  0.00    +0.000 NA
ATOM      5  C   UNL     1       5.790   5.491  18.627  0.00  0.00    +0.000 A 
ATOM      6  C   UNL     1       6.307   6.459  17.788  0.00  0.00    +0.000 A 
ATOM      7  C   UNL     1       5.280   6.765  16.892  0.00  0.00    +0.000 A 
ATOM      8  N   UNL     1       4.173   6.061  17.119  0.00  0.00    +0.000 NA
ATOM      9  N   UNL     1       4.480   5.274  18.202  0.00  0.00    +0.000 N 
ENDROOT
BRANCH   9  10
ATOM     10  C   UNL     1       3.497   4.385  18.728  0.00  0.00    +0.000 A 
ATOM     11  C   UNL     1       2.250   4.896  19.125  0.00  0.00    +0.000 A 
ATOM     12  C   UNL     1       1.265   4.044  19.627  0.00  0.00    +0.000 A 
ATOM     13  C   UNL     1       1.517   2.679  19.746  0.00  0.00    +0.000 A 
ATOM     14  C   UNL     1       2.755   2.167  19.365  0.00  0.00    +0.000 A 
ATOM     15  C   UNL     1       3.744   3.013  18.857  0.00  0.00    +0.000 A 
ENDBRANCH   9  10
BRANCH   1  16
ATOM     16  O   UNL     1       8.140   7.851  17.219  0.00  0.00    +0.000 OA
BRANCH  16  17
ATOM     17  C   UNL     1       7.614   9.146  17.488  0.00  0.00    +0.000 C 
BRANCH  17  19
ATOM     18  N   UNL     1       8.810  11.246  17.806  0.00  0.00    +0.000 N 
ATOM     19  C   UNL     1       8.668   9.936  18.257  0.00  0.00    +0.000 C 
ATOM     20  O   UNL     1       9.260   9.417  19.201  0.00  0.00    +0.000 OA
ATOM     21  H   UNL     1       8.221  11.502  17.023  0.00  0.00    +0.000 HD
BRANCH  18  26
ATOM     22  C   UNL     1      12.328  15.287  19.836  0.00  0.00    +0.000 C 
ATOM     23  C   UNL     1      11.409  14.232  19.295  0.00  0.00    +0.000 A 
ATOM     24  C   UNL     1      11.908  13.223  18.467  0.00  0.00    +0.000 A 
ATOM     25  C   UNL     1      11.063  12.230  17.967  0.00  0.00    +0.000 A 
ATOM     26  C   UNL     1       9.706  12.221  18.282  0.00  0.00    +0.000 A 
ATOM     27  C   UNL     1       9.201  13.235  19.106  0.00  0.00    +0.000 A 
ATOM     28  C   UNL     1      10.047  14.232  19.610  0.00  0.00    +0.000 A 
ENDBRANCH  18  26
ENDBRANCH  17  19
ENDBRANCH  16  17
ENDBRANCH   1  16
TORSDOF 5
ENDMDL
MODEL 8
REMARK VINA RESULT:      -7.9      1.231      1.940
REMARK  Name = 
REMARK  6 active torsions:
REMARK  status: ('A' for Active; 'I' for Inactive)
REMARK    1  A    between atoms: C_1  and  C_2
REMARK    2  A    between atoms: C_5  and  N_6
REMARK    3  A    between atoms: C_7  and  C_9
REMARK    4  A    between atoms: C_9  and  O_10
REMARK    5  A    between atoms: O_10  and  C_11
REMARK    6  A    between atoms: N_19  and  C_20
REMARK                            x       y       z     vdW  Elec       q    Type
REMARK                         _______ _______ _______ _____ _____    ______ ____
ROOT
ATOM      1  C   UNL     1       6.721   6.648  17.269  0.00  0.00    +0.000 A 
ATOM      2  N   UNL     1       6.021   7.077  16.201  0.00  0.00    +0.000 NA
ATOM      3  C   UNL     1       4.740   6.673  16.104  0.00  0.00    +0.000 A 
ATOM      4  N   UNL     1       4.063   5.869  16.940  0.00  0.00    +0.000 NA
ATOM      5  C   UNL     1       4.808   5.465  17.992  0.00  0.00    +0.000 A 
ATOM      6  C   UNL     1       6.124   5.827  18.210  0.00  0.00    +0.000 A 
ATOM      7  C   UNL     1       6.489   5.207  19.408  0.00  0.00    +0.000 A 
ATOM      8  N   UNL     1       5.499   4.492  19.939  0.00  0.00    +0.000 NA
ATOM      9  N   UNL     1       4.455   4.640  19.060  0.00  0.00    +0.000 N 
ENDROOT
BRANCH   9  10
ATOM     10  C   UNL     1       3.216   3.985  19.320  0.00  0.00    +0.000 A 
ATOM     11  C   UNL     1       2.329   4.540  20.257  0.00  0.00    +0.000 A 
ATOM     12  C   UNL     1       1.101   3.927  20.517  0.00  0.00    +0.000 A 
ATOM     13  C   UNL     1       0.752   2.754  19.852  0.00  0.00    +0.000 A 
ATOM     14  C   UNL     1       1.632   2.191  18.931  0.00  0.00    +0.000 A 
ATOM     15  C   UNL     1       2.859   2.802  18.662  0.00  0.00    +0.000 A 
ENDBRANCH   9  10
BRANCH   1  16
ATOM     16  O   UNL     1       8.038   6.995  17.440  0.00  0.00    +0.000 OA
BRANCH  16  17
ATOM     17  C   UNL     1       8.318   7.568  18.713  0.00  0.00    +0.000 C 
BRANCH  17  19
ATOM     18  N   UNL     1       9.508   9.592  19.366  0.00  0.00    +0.000 N 
ATOM     19  C   UNL     1       8.533   9.066  18.523  0.00  0.00    +0.000 C 
ATOM     20  O   UNL     1       7.906   9.674  17.659  0.00  0.00    +0.000 OA
ATOM     21  H   UNL     1       9.932   8.930  20.006  0.00  0.00    +0.000 HD
BRANCH  18  26
ATOM     22  C   UNL     1      11.156  15.052  19.909  0.00  0.00    +0.000 C 
ATOM     23  C   UNL     1      10.718  13.625  19.759  0.00  0.00    +0.000 A 
ATOM     24  C   UNL     1      10.951  12.941  18.564  0.00  0.00    +0.000 A 
ATOM     25  C   UNL     1      10.557  11.609  18.418  0.00  0.00    +0.000 A 
ATOM     26  C   UNL     1       9.925  10.932  19.459  0.00  0.00    +0.000 A 
ATOM     27  C   UNL     1       9.684  11.617  20.656  0.00  0.00    +0.000 A 
ATOM     28  C   UNL     1      10.079  12.954  20.805  0.00  0.00    +0.000 A 
ENDBRANCH  18  26
ENDBRANCH  17  19
ENDBRANCH  16  17
ENDBRANCH   1  16
TORSDOF 5
ENDMDL
MODEL 9
REMARK VINA RESULT:      -7.9      5.140      7.512
REMARK  Name = 
REMARK  6 active torsions:
REMARK  status: ('A' for Active; 'I' for Inactive)
REMARK    1  A    between atoms: C_1  and  C_2
REMARK    2  A    between atoms: C_5  and  N_6
REMARK    3  A    between atoms: C_7  and  C_9
REMARK    4  A    between atoms: C_9  and  O_10
REMARK    5  A    between atoms: O_10  and  C_11
REMARK    6  A    between atoms: N_19  and  C_20
REMARK                            x       y       z     vdW  Elec       q    Type
REMARK                         _______ _______ _______ _____ _____    ______ ____
ROOT
ATOM      1  C   UNL     1       3.891   5.179  18.742  0.00  0.00    +0.000 A 
ATOM      2  N   UNL     1       3.471   3.902  18.829  0.00  0.00    +0.000 NA
ATOM      3  C   UNL     1       3.792   3.079  17.812  0.00  0.00    +0.000 A 
ATOM      4  N   UNL     1       4.475   3.376  16.694  0.00  0.00    +0.000 NA
ATOM      5  C   UNL     1       4.871   4.667  16.653  0.00  0.00    +0.000 A 
ATOM      6  C   UNL     1       4.619   5.600  17.641  0.00  0.00    +0.000 A 
ATOM      7  C   UNL     1       5.219   6.782  17.202  0.00  0.00    +0.000 A 
ATOM      8  N   UNL     1       5.817   6.646  16.020  0.00  0.00    +0.000 NA
ATOM      9  N   UNL     1       5.597   5.338  15.669  0.00  0.00    +0.000 N 
ENDROOT
BRANCH   9  10
ATOM     10  C   UNL     1       6.102   4.845  14.430  0.00  0.00    +0.000 A 
ATOM     11  C   UNL     1       5.357   3.892  13.715  0.00  0.00    +0.000 A 
ATOM     12  C   UNL     1       5.821   3.407  12.490  0.00  0.00    +0.000 A 
ATOM     13  C   UNL     1       7.033   3.861  11.974  0.00  0.00    +0.000 A 
ATOM     14  C   UNL     1       7.782   4.797  12.683  0.00  0.00    +0.000 A 
ATOM     15  C   UNL     1       7.321   5.290  13.906  0.00  0.00    +0.000 A 
ENDBRANCH   9  10
BRANCH   1  16
ATOM     16  O   UNL     1       3.594   6.092  19.722  0.00  0.00    +0.000 OA
BRANCH  16  17
ATOM     17  C   UNL     1       2.234   6.060  20.142  0.00  0.00    +0.000 C 
BRANCH  17  19
ATOM     18  N   UNL     1       0.917   7.805  21.219  0.00  0.00    +0.000 N 
ATOM     19  C   UNL     1       1.694   7.486  20.109  0.00  0.00    +0.000 C 
ATOM     20  O   UNL     1       1.994   8.238  19.184  0.00  0.00    +0.000 OA
ATOM     21  H   UNL     1       0.792   7.056  21.891  0.00  0.00    +0.000 HD
BRANCH  18  26
ATOM     22  C   UNL     1      -1.770  12.712  22.452  0.00  0.00    +0.000 C 
ATOM     23  C   UNL     1      -1.075  11.424  22.124  0.00  0.00    +0.000 A 
ATOM     24  C   UNL     1      -0.700  11.145  20.807  0.00  0.00    +0.000 A 
ATOM     25  C   UNL     1      -0.042   9.954  20.492  0.00  0.00    +0.000 A 
ATOM     26  C   UNL     1       0.257   9.019  21.481  0.00  0.00    +0.000 A 
ATOM     27  C   UNL     1      -0.124   9.293  22.800  0.00  0.00    +0.000 A 
ATOM     28  C   UNL     1      -0.783  10.488  23.119  0.00  0.00    +0.000 A 
ENDBRANCH  18  26
ENDBRANCH  17  19
ENDBRANCH  16  17
ENDBRANCH   1  16
TORSDOF 5
ENDMDL
