MODEL 1
REMARK VINA RESULT:      -8.0      0.000      0.000
REMARK  Name = 
REMARK  4 active torsions:
REMARK  status: ('A' for Active; 'I' for Inactive)
REMARK    1  A    between atoms: C_2  and  C_4
REMARK    2  A    between atoms: C_7  and  C_8
REMARK    3  A    between atoms: C_10  and  C_11
REMARK    4  A    between atoms: C_11  and  N_12
REMARK                            x       y       z     vdW  Elec       q    Type
REMARK                         _______ _______ _______ _____ _____    ______ ____
ROOT
ATOM      1  C   UNL     1       3.102   7.019  18.817  0.00  0.00    +0.000 A 
ATOM      2  N   UNL     1       3.789   5.965  19.226  0.00  0.00    +0.000 NA
ATOM      3  C   UNL     1       4.574   5.450  18.186  0.00  0.00    +0.000 A 
ATOM      4  C   UNL     1       4.496   6.174  17.009  0.00  0.00    +0.000 A 
ATOM      5  S   UNL     1       3.445   7.506  17.194  0.00  0.00    +0.000 S 
ENDROOT
BRANCH   1   9
ATOM      6  C   UNL     1       0.317   9.316  21.179  0.00  0.00    +0.000 A 
ATOM      7  C   UNL     1       0.791   8.085  21.646  0.00  0.00    +0.000 A 
ATOM      8  C   UNL     1       1.688   7.330  20.869  0.00  0.00    +0.000 A 
ATOM      9  C   UNL     1       2.130   7.798  19.621  0.00  0.00    +0.000 A 
ATOM     10  C   UNL     1       1.618   9.024  19.158  0.00  0.00    +0.000 A 
ATOM     11  C   UNL     1       0.720   9.773  19.925  0.00  0.00    +0.000 A 
BRANCH   6  13
ATOM     12  N   UNL     1      -0.908   9.789  23.237  0.00  0.00    +0.000 N 
ATOM     13  C   UNL     1      -0.637  10.165  21.954  0.00  0.00    +0.000 C 
ATOM     14  O   UNL     1      -1.109  11.191  21.485  0.00  0.00    +0.000 OA
ATOM     15  H   UNL     1      -1.461  10.443  23.784  0.00  0.00    +0.000 HD
ATOM     16  H   UNL     1      -0.354   9.108  23.743  0.00  0.00    +0.000 HD
ENDBRANCH   6  13
ENDBRANCH   1   9
BRANCH   3  17
ATOM     17  C   UNL     1       5.481   4.249  18.432  0.00  0.00    +0.000 C 
BRANCH  17  18
ATOM     18  N   UNL     1       4.696   3.036  18.262  0.00  0.00    +0.000 N 
ATOM     19  C   UNL     1       3.859   2.992  17.174  0.00  0.00    +0.000 A 
ATOM     20  N   UNL     1       2.585   2.812  17.268  0.00  0.00    +0.000 NA
ATOM     21  C   UNL     1       2.080   2.832  18.586  0.00  0.00    +0.000 A 
ATOM     22  C   UNL     1       0.824   3.402  18.810  0.00  0.00    +0.000 A 
ATOM     23  C   UNL     1       0.362   3.594  20.115  0.00  0.00    +0.000 A 
ATOM     24  C   UNL     1       1.125   3.160  21.199  0.00  0.00    +0.000 A 
ATOM     25  C   UNL     1       2.378   2.601  20.979  0.00  0.00    +0.000 A 
ATOM     26  F   UNL     1       3.141   2.303  22.041  0.00  0.00    +0.000 F 
ATOM     27  C   UNL     1       2.864   2.485  19.683  0.00  0.00    +0.000 A 
ATOM     28  C   UNL     1       4.309   2.397  19.431  0.00  0.00    +0.000 A 
ATOM     29  O   UNL     1       5.098   1.912  20.232  0.00  0.00    +0.000 OA
ENDBRANCH  17  18
ENDBRANCH   3  17
TORSDOF 4
ENDMDL
MODEL 2
REMARK VINA RESULT:      -8.0      0.933      1.020
REMARK  Name = 
REMARK  4 active torsions:
REMARK  status: ('A' for Active; 'I' for Inactive)
REMARK    1  A    between atoms: C_2  and  C_4
REMARK    2  A    between atoms: C_7  and  C_8
REMARK    3  A    between atoms: C_10  and  C_11
REMARK    4  A    between atoms: C_11  and  N_12
REMARK                            x       y       z     vdW  Elec       q    Type
REMARK                         _______ _______ _______ _____ _____    ______ ____
ROOT
ATOM      1  C   UNL     1       3.461   7.088  18.234  0.00  0.00    +0.000 A 
ATOM      2  N   UNL     1       3.958   6.046  18.882  0.00  0.00    +0.000 NA
ATOM      3  C   UNL     1       4.942   5.408  18.115  0.00  0.00    +0.000 A 
ATOM      4  C   UNL     1       5.204   6.028  16.906  0.00  0.00    +0.000 A 
ATOM      5  S   UNL     1       4.226   7.414  16.719  0.00  0.00    +0.000 S 
ENDROOT
BRANCH   1   9
ATOM      6  C   UNL     1       0.326   9.709  19.618  0.00  0.00    +0.000 A 
ATOM      7  C   UNL     1       0.886   8.760  20.482  0.00  0.00    +0.000 A 
ATOM      8  C   UNL     1       1.898   7.896  20.025  0.00  0.00    +0.000 A 
ATOM      9  C   UNL     1       2.371   7.974  18.705  0.00  0.00    +0.000 A 
ATOM     10  C   UNL     1       1.774   8.915  17.847  0.00  0.00    +0.000 A 
ATOM     11  C   UNL     1       0.762   9.770  18.295  0.00  0.00    +0.000 A 
BRANCH   6  13
ATOM     12  N   UNL     1      -0.714  11.111  21.324  0.00  0.00    +0.000 N 
ATOM     13  C   UNL     1      -0.751  10.654  20.039  0.00  0.00    +0.000 C 
ATOM     14  O   UNL     1      -1.596  11.055  19.251  0.00  0.00    +0.000 OA
ATOM     15  H   UNL     1      -1.381  11.843  21.554  0.00  0.00    +0.000 HD
ATOM     16  H   UNL     1       0.096  11.011  21.924  0.00  0.00    +0.000 HD
ENDBRANCH   6  13
ENDBRANCH   1   9
BRANCH   3  17
ATOM     17  C   UNL     1       5.683   4.197  18.673  0.00  0.00    +0.000 C 
BRANCH  17  18
ATOM     18  N   UNL     1       4.869   3.013  18.443  0.00  0.00    +0.000 N 
ATOM     19  C   UNL     1       4.094   3.009  17.308  0.00  0.00    +0.000 A 
ATOM     20  N   UNL     1       2.811   2.873  17.328  0.00  0.00    +0.000 NA
ATOM     21  C   UNL     1       2.233   2.896  18.615  0.00  0.00    +0.000 A 
ATOM     22  C   UNL     1       0.986   3.506  18.775  0.00  0.00    +0.000 A 
ATOM     23  C   UNL     1       0.457   3.698  20.054  0.00  0.00    +0.000 A 
ATOM     24  C   UNL     1       1.142   3.227  21.174  0.00  0.00    +0.000 A 
ATOM     25  C   UNL     1       2.386   2.628  21.018  0.00  0.00    +0.000 A 
ATOM     26  F   UNL     1       3.077   2.293  22.118  0.00  0.00    +0.000 F 
ATOM     27  C   UNL     1       2.941   2.510  19.750  0.00  0.00    +0.000 A 
ATOM     28  C   UNL     1       4.394   2.375  19.580  0.00  0.00    +0.000 A 
ATOM     29  O   UNL     1       5.120   1.855  20.418  0.00  0.00    +0.000 OA
ENDBRANCH  17  18
ENDBRANCH   3  17
TORSDOF 4
ENDMDL
MODEL 3
REMARK VINA RESULT:      -7.7      2.873      4.684
REMARK  Name = 
REMARK  4 active torsions:
REMARK  status: ('A' for Active; 'I' for Inactive)
REMARK    1  A    between atoms: C_2  and  C_4
REMARK    2  A    between atoms: C_7  and  C_8
REMARK    3  A    between atoms: C_10  and  C_11
REMARK    4  A    between atoms: C_11  and  N_12
REMARK                            x       y       z     vdW  Elec       q    Type
REMARK                         _______ _______ _______ _____ _____    ______ ____
ROOT
ATOM      1  C   UNL     1       0.036  11.058  20.046  0.00  0.00    +0.000 A 
ATOM      2  N   UNL     1       0.114   9.870  19.469  0.00  0.00    +0.000 NA
ATOM      3  C   UNL     1       1.156   9.841  18.533  0.00  0.00    +0.000 A 
ATOM      4  C   UNL     1       1.886  11.015  18.464  0.00  0.00    +0.000 A 
ATOM      5  S   UNL     1       1.277  12.163  19.570  0.00  0.00    +0.000 S 
ENDROOT
BRANCH   1   9
ATOM      6  C   UNL     1      -2.861  12.334  22.977  0.00  0.00    +0.000 A 
ATOM      7  C   UNL     1      -1.816  11.479  23.344  0.00  0.00    +0.000 A 
ATOM      8  C   UNL     1      -0.880  11.052  22.385  0.00  0.00    +0.000 A 
ATOM      9  C   UNL     1      -0.969  11.480  21.050  0.00  0.00    +0.000 A 
ATOM     10  C   UNL     1      -2.044  12.317  20.698  0.00  0.00    +0.000 A 
ATOM     11  C   UNL     1      -2.981  12.737  21.647  0.00  0.00    +0.000 A 
BRANCH   6  13
ATOM     12  N   UNL     1      -4.651  11.882  24.574  0.00  0.00    +0.000 N 
ATOM     13  C   UNL     1      -3.888  12.823  23.946  0.00  0.00    +0.000 C 
ATOM     14  O   UNL     1      -4.001  14.010  24.216  0.00  0.00    +0.000 OA
ATOM     15  H   UNL     1      -5.257  12.225  25.315  0.00  0.00    +0.000 HD
ATOM     16  H   UNL     1      -4.423  10.896  24.576  0.00  0.00    +0.000 HD
ENDBRANCH   6  13
ENDBRANCH   1   9
BRANCH   3  17
ATOM     17  C   UNL     1       1.460   8.559  17.763  0.00  0.00    +0.000 C 
BRANCH  17  18
ATOM     18  N   UNL     1       2.599   7.905  18.389  0.00  0.00    +0.000 N 
ATOM     19  C   UNL     1       3.681   7.648  17.584  0.00  0.00    +0.000 A 
ATOM     20  N   UNL     1       4.159   6.464  17.397  0.00  0.00    +0.000 NA
ATOM     21  C   UNL     1       3.386   5.420  17.948  0.00  0.00    +0.000 A 
ATOM     22  C   UNL     1       3.302   4.213  17.249  0.00  0.00    +0.000 A 
ATOM     23  C   UNL     1       2.417   3.217  17.671  0.00  0.00    +0.000 A 
ATOM     24  C   UNL     1       1.659   3.398  18.827  0.00  0.00    +0.000 A 
ATOM     25  C   UNL     1       1.735   4.600  19.519  0.00  0.00    +0.000 A 
ATOM     26  F   UNL     1       0.907   4.794  20.557  0.00  0.00    +0.000 F 
ATOM     27  C   UNL     1       2.558   5.616  19.049  0.00  0.00    +0.000 A 
ATOM     28  C   UNL     1       2.299   7.016  19.412  0.00  0.00    +0.000 A 
ATOM     29  O   UNL     1       1.763   7.346  20.462  0.00  0.00    +0.000 OA
ENDBRANCH  17  18
ENDBRANCH   3  17
TORSDOF 4
ENDMDL
MODEL 4
REMARK VINA RESULT:      -7.7      2.841      4.653
REMARK  Name = 
REMARK  4 active torsions:
REMARK  status: ('A' for Active; 'I' for Inactive)
REMARK    1  A    between atoms: C_2  and  C_4
REMARK    2  A    between atoms: C_7  and  C_8
REMARK    3  A    between atoms: C_10  and  C_11
REMARK    4  A    between atoms: C_11  and  N_12
REMARK                            x       y       z     vdW  Elec       q    Type
REMARK                         _______ _______ _______ _____ _____    ______ ____
ROOT
ATOM      1  C   UNL     1       0.208  11.008  19.956  0.00  0.00    +0.000 A 
ATOM      2  N   UNL     1       0.266   9.806  19.406  0.00  0.00    +0.000 NA
ATOM      3  C   UNL     1       1.286   9.747  18.448  0.00  0.00    +0.000 A 
ATOM      4  C   UNL     1       2.021  10.915  18.335  0.00  0.00    +0.000 A 
ATOM      5  S   UNL     1       1.445  12.093  19.426  0.00  0.00    +0.000 S 
ENDROOT
BRANCH   1   9
ATOM      6  C   UNL     1      -2.675  12.277  22.904  0.00  0.00    +0.000 A 
ATOM      7  C   UNL     1      -2.764  12.739  21.586  0.00  0.00    +0.000 A 
ATOM      8  C   UNL     1      -1.815  12.336  20.629  0.00  0.00    +0.000 A 
ATOM      9  C   UNL     1      -0.772  11.460  20.972  0.00  0.00    +0.000 A 
ATOM     10  C   UNL     1      -0.686  11.032  22.309  0.00  0.00    +0.000 A 
ATOM     11  C   UNL     1      -1.623  11.437  23.265  0.00  0.00    +0.000 A 
BRANCH   6  13
ATOM     12  N   UNL     1      -3.566  13.940  24.453  0.00  0.00    +0.000 N 
ATOM     13  C   UNL     1      -3.648  12.668  23.968  0.00  0.00    +0.000 C 
ATOM     14  O   UNL     1      -4.526  11.904  24.346  0.00  0.00    +0.000 OA
ATOM     15  H   UNL     1      -4.310  14.224  25.085  0.00  0.00    +0.000 HD
ATOM     16  H   UNL     1      -3.035  14.673  23.998  0.00  0.00    +0.000 HD
ENDBRANCH   6  13
ENDBRANCH   1   9
BRANCH   3  17
ATOM     17  C   UNL     1       1.565   8.446  17.702  0.00  0.00    +0.000 C 
BRANCH  17  18
ATOM     18  N   UNL     1       2.680   7.774  18.350  0.00  0.00    +0.000 N 
ATOM     19  C   UNL     1       3.772   7.495  17.564  0.00  0.00    +0.000 A 
ATOM     20  N   UNL     1       4.232   6.302  17.389  0.00  0.00    +0.000 NA
ATOM     21  C   UNL     1       3.431   5.274  17.930  0.00  0.00    +0.000 A 
ATOM     22  C   UNL     1       3.338   4.066  17.233  0.00  0.00    +0.000 A 
ATOM     23  C   UNL     1       2.428   3.087  17.643  0.00  0.00    +0.000 A 
ATOM     24  C   UNL     1       1.653   3.286  18.785  0.00  0.00    +0.000 A 
ATOM     25  C   UNL     1       1.738   4.489  19.474  0.00  0.00    +0.000 A 
ATOM     26  F   UNL     1       0.896   4.701  20.497  0.00  0.00    +0.000 F 
ATOM     27  C   UNL     1       2.587   5.488  19.016  0.00  0.00    +0.000 A 
ATOM     28  C   UNL     1       2.346   6.894  19.370  0.00  0.00    +0.000 A 
ATOM     29  O   UNL     1       1.799   7.237  20.409  0.00  0.00    +0.000 OA
ENDBRANCH  17  18
ENDBRANCH   3  17
TORSDOF 4
ENDMDL
MODEL 5
REMARK VINA RESULT:      -7.7      3.373      8.264
REMARK  Name = 
REMARK  4 active torsions:
REMARK  status: ('A' for Active; 'I' for Inactive)
REMARK    1  A    between atoms: C_2  and  C_4
REMARK    2  A    between atoms: C_7  and  C_8
REMARK    3  A    between atoms: C_10  and  C_11
REMARK    4  A    between atoms: C_11  and  N_12
REMARK                            x       y       z     vdW  Elec       q    Type
REMARK                         _______ _______ _______ _____ _____    ______ ____
ROOT
ATOM      1  C   UNL     1       3.246   5.930  18.641  0.00  0.00    +0.000 A 
ATOM      2  N   UNL     1       3.055   7.156  19.105  0.00  0.00    +0.000 NA
ATOM      3  C   UNL     1       2.138   7.148  20.163  0.00  0.00    +0.000 A 
ATOM      4  C   UNL     1       1.690   5.886  20.513  0.00  0.00    +0.000 A 
ATOM      5  S   UNL     1       2.414   4.699  19.524  0.00  0.00    +0.000 S 
ENDROOT
BRANCH   1   9
ATOM      6  C   UNL     1       5.708   4.833  15.273  0.00  0.00    +0.000 A 
ATOM      7  C   UNL     1       5.093   3.844  16.049  0.00  0.00    +0.000 A 
ATOM      8  C   UNL     1       4.302   4.202  17.155  0.00  0.00    +0.000 A 
ATOM      9  C   UNL     1       4.106   5.551  17.497  0.00  0.00    +0.000 A 
ATOM     10  C   UNL     1       4.758   6.527  16.720  0.00  0.00    +0.000 A 
ATOM     11  C   UNL     1       5.552   6.174  15.624  0.00  0.00    +0.000 A 
BRANCH   6  13
ATOM     12  N   UNL     1       6.285   3.371  13.406  0.00  0.00    +0.000 N 
ATOM     13  C   UNL     1       6.561   4.520  14.087  0.00  0.00    +0.000 C 
ATOM     14  O   UNL     1       7.429   5.290  13.701  0.00  0.00    +0.000 OA
ATOM     15  H   UNL     1       6.794   3.238  12.535  0.00  0.00    +0.000 HD
ATOM     16  H   UNL     1       5.430   2.845  13.532  0.00  0.00    +0.000 HD
ENDBRANCH   6  13
ENDBRANCH   1   9
BRANCH   3  17
ATOM     17  C   UNL     1       1.785   8.447  20.881  0.00  0.00    +0.000 C 
BRANCH  17  18
ATOM     18  N   UNL     1       0.553   8.969  20.309  0.00  0.00    +0.000 N 
ATOM     19  C   UNL     1       0.680   9.754  19.189  0.00  0.00    +0.000 A 
ATOM     20  N   UNL     1       0.249  10.968  19.123  0.00  0.00    +0.000 NA
ATOM     21  C   UNL     1      -0.215  11.499  20.346  0.00  0.00    +0.000 A 
ATOM     22  C   UNL     1       0.022  12.848  20.620  0.00  0.00    +0.000 A 
ATOM     23  C   UNL     1      -0.270  13.371  21.883  0.00  0.00    +0.000 A 
ATOM     24  C   UNL     1      -0.856  12.562  22.857  0.00  0.00    +0.000 A 
ATOM     25  C   UNL     1      -1.085  11.218  22.589  0.00  0.00    +0.000 A 
ATOM     26  F   UNL     1      -1.538  10.437  23.581  0.00  0.00    +0.000 F 
ATOM     27  C   UNL     1      -0.720  10.688  21.358  0.00  0.00    +0.000 A 
ATOM     28  C   UNL     1      -0.463   9.249  21.211  0.00  0.00    +0.000 A 
ATOM     29  O   UNL     1      -1.008   8.398  21.902  0.00  0.00    +0.000 OA
ENDBRANCH  17  18
ENDBRANCH   3  17
TORSDOF 4
ENDMDL
MODEL 6
REMARK VINA RESULT:      -7.7      0.726      1.175
REMARK  Name = 
REMARK  4 active torsions:
REMARK  status: ('A' for Active; 'I' for Inactive)
REMARK    1  A    between atoms: C_2  and  C_4
REMARK    2  A    between atoms: C_7  and  C_8
REMARK    3  A    between atoms: C_10  and  C_11
REMARK    4  A    between atoms: C_11  and  N_12
REMARK                            x       y       z     vdW  Elec       q    Type
REMARK                         _______ _______ _______ _____ _____    ______ ____
ROOT
ATOM      1  C   UNL     1       3.314   6.932  18.506  0.00  0.00    +0.000 A 
ATOM      2  N   UNL     1       3.896   5.834  18.963  0.00  0.00    +0.000 NA
ATOM      3  C   UNL     1       4.710   5.258  17.979  0.00  0.00    +0.000 A 
ATOM      4  C   UNL     1       4.764   5.978  16.798  0.00  0.00    +0.000 A 
ATOM      5  S   UNL     1       3.800   7.382  16.909  0.00  0.00    +0.000 S 
ENDROOT
BRANCH   1   9
ATOM      6  C   UNL     1       0.461   9.374  20.628  0.00  0.00    +0.000 A 
ATOM      7  C   UNL     1       0.862   9.722  19.333  0.00  0.00    +0.000 A 
ATOM      8  C   UNL     1       1.803   8.933  18.647  0.00  0.00    +0.000 A 
ATOM      9  C   UNL     1       2.349   7.782  19.240  0.00  0.00    +0.000 A 
ATOM     10  C   UNL     1       1.953   7.469  20.553  0.00  0.00    +0.000 A 
ATOM     11  C   UNL     1       1.024   8.255  21.241  0.00  0.00    +0.000 A 
BRANCH   6  13
ATOM     12  N   UNL     1      -1.099  11.245  20.791  0.00  0.00    +0.000 N 
ATOM     13  C   UNL     1      -0.532  10.169  21.411  0.00  0.00    +0.000 C 
ATOM     14  O   UNL     1      -0.875   9.837  22.537  0.00  0.00    +0.000 OA
ATOM     15  H   UNL     1      -1.857  11.698  21.294  0.00  0.00    +0.000 HD
ATOM     16  H   UNL     1      -1.040  11.403  19.793  0.00  0.00    +0.000 HD
ENDBRANCH   6  13
ENDBRANCH   1   9
BRANCH   3  17
ATOM     17  C   UNL     1       5.512   3.998  18.288  0.00  0.00    +0.000 C 
BRANCH  17  18
ATOM     18  N   UNL     1       4.625   2.849  18.177  0.00  0.00    +0.000 N 
ATOM     19  C   UNL     1       3.727   2.864  17.137  0.00  0.00    +0.000 A 
ATOM     20  N   UNL     1       2.450   2.787  17.304  0.00  0.00    +0.000 NA
ATOM     21  C   UNL     1       2.024   2.856  18.648  0.00  0.00    +0.000 A 
ATOM     22  C   UNL     1       0.831   3.525  18.936  0.00  0.00    +0.000 A 
ATOM     23  C   UNL     1       0.460   3.762  20.262  0.00  0.00    +0.000 A 
ATOM     24  C   UNL     1       1.247   3.277  21.307  0.00  0.00    +0.000 A 
ATOM     25  C   UNL     1       2.437   2.618  21.023  0.00  0.00    +0.000 A 
ATOM     26  F   UNL     1       3.234   2.269  22.045  0.00  0.00    +0.000 F 
ATOM     27  C   UNL     1       2.838   2.456  19.703  0.00  0.00    +0.000 A 
ATOM     28  C   UNL     1       4.256   2.251  19.373  0.00  0.00    +0.000 A 
ATOM     29  O   UNL     1       5.048   1.711  20.134  0.00  0.00    +0.000 OA
ENDBRANCH  17  18
ENDBRANCH   3  17
TORSDOF 4
ENDMDL
MODEL 7
REMARK VINA RESULT:      -7.6      3.351      8.285
REMARK  Name = 
REMARK  4 active torsions:
REMARK  status: ('A' for Active; 'I' for Inactive)
REMARK    1  A    between atoms: C_2  and  C_4
REMARK    2  A    between atoms: C_7  and  C_8
REMARK    3  A    between atoms: C_10  and  C_11
REMARK    4  A    between atoms: C_11  and  N_12
REMARK                            x       y       z     vdW  Elec       q    Type
REMARK                         _______ _______ _______ _____ _____    ______ ____
ROOT
ATOM      1  C   UNL     1       3.274   5.910  18.638  0.00  0.00    +0.000 A 
ATOM      2  N   UNL     1       3.042   7.119  19.124  0.00  0.00    +0.000 NA
ATOM      3  C   UNL     1       2.169   7.054  20.218  0.00  0.00    +0.000 A 
ATOM      4  C   UNL     1       1.799   5.767  20.569  0.00  0.00    +0.000 A 
ATOM      5  S   UNL     1       2.540   4.629  19.537  0.00  0.00    +0.000 S 
ENDROOT
BRANCH   1   9
ATOM      6  C   UNL     1       5.743   4.969  15.227  0.00  0.00    +0.000 A 
ATOM      7  C   UNL     1       5.378   6.294  15.490  0.00  0.00    +0.000 A 
ATOM      8  C   UNL     1       4.561   6.598  16.594  0.00  0.00    +0.000 A 
ATOM      9  C   UNL     1       4.106   5.586  17.455  0.00  0.00    +0.000 A 
ATOM     10  C   UNL     1       4.462   4.258  17.155  0.00  0.00    +0.000 A 
ATOM     11  C   UNL     1       5.267   3.951  16.054  0.00  0.00    +0.000 A 
BRANCH   6  13
ATOM     12  N   UNL     1       7.760   5.283  13.889  0.00  0.00    +0.000 N 
ATOM     13  C   UNL     1       6.606   4.579  14.072  0.00  0.00    +0.000 C 
ATOM     14  O   UNL     1       6.327   3.627  13.356  0.00  0.00    +0.000 OA
ATOM     15  H   UNL     1       8.390   4.926  13.175  0.00  0.00    +0.000 HD
ATOM     16  H   UNL     1       8.152   5.896  14.594  0.00  0.00    +0.000 HD
ENDBRANCH   6  13
ENDBRANCH   1   9
BRANCH   3  17
ATOM     17  C   UNL     1       1.781   8.326  20.966  0.00  0.00    +0.000 C 
BRANCH  17  18
ATOM     18  N   UNL     1       0.585   8.877  20.348  0.00  0.00    +0.000 N 
ATOM     19  C   UNL     1       0.769   9.630  19.215  0.00  0.00    +0.000 A 
ATOM     20  N   UNL     1       0.383  10.857  19.110  0.00  0.00    +0.000 NA
ATOM     21  C   UNL     1      -0.095  11.431  20.308  0.00  0.00    +0.000 A 
ATOM     22  C   UNL     1       0.181  12.778  20.558  0.00  0.00    +0.000 A 
ATOM     23  C   UNL     1      -0.126  13.339  21.800  0.00  0.00    +0.000 A 
ATOM     24  C   UNL     1      -0.767  12.574  22.775  0.00  0.00    +0.000 A 
ATOM     25  C   UNL     1      -1.035  11.233  22.531  0.00  0.00    +0.000 A 
ATOM     26  F   UNL     1      -1.542  10.490  23.527  0.00  0.00    +0.000 F 
ATOM     27  C   UNL     1      -0.656  10.662  21.323  0.00  0.00    +0.000 A 
ATOM     28  C   UNL     1      -0.445   9.211  21.215  0.00  0.00    +0.000 A 
ATOM     29  O   UNL     1      -1.039   8.397  21.910  0.00  0.00    +0.000 OA
ENDBRANCH  17  18
ENDBRANCH   3  17
TORSDOF 4
ENDMDL
MODEL 8
REMARK VINA RESULT:      -7.6      3.369      8.169
REMARK  Name = 
REMARK  4 active torsions:
REMARK  status: ('A' for Active; 'I' for Inactive)
REMARK    1  A    between atoms: C_2  and  C_4
REMARK    2  A    between atoms: C_7  and  C_8
REMARK    3  A    between atoms: C_10  and  C_11
REMARK    4  A    between atoms: C_11  and  N_12
REMARK                            x       y       z     vdW  Elec       q    Type
REMARK                         _______ _______ _______ _____ _____    ______ ____
ROOT
ATOM      1  C   UNL     1       3.181   5.426  18.853  0.00  0.00    +0.000 A 
ATOM      2  N   UNL     1       2.317   6.410  19.046  0.00  0.00    +0.000 NA
ATOM      3  C   UNL     1       1.607   6.220  20.239  0.00  0.00    +0.000 A 
ATOM      4  C   UNL     1       1.999   5.102  20.956  0.00  0.00    +0.000 A 
ATOM      5  S   UNL     1       3.258   4.283  20.146  0.00  0.00    +0.000 S 
ENDROOT
BRANCH   1   9
ATOM      6  C   UNL     1       5.817   4.939  15.472  0.00  0.00    +0.000 A 
ATOM      7  C   UNL     1       5.430   6.218  15.886  0.00  0.00    +0.000 A 
ATOM      8  C   UNL     1       4.559   6.376  16.980  0.00  0.00    +0.000 A 
ATOM      9  C   UNL     1       4.071   5.260  17.680  0.00  0.00    +0.000 A 
ATOM     10  C   UNL     1       4.450   3.983  17.227  0.00  0.00    +0.000 A 
ATOM     11  C   UNL     1       5.309   3.822  16.136  0.00  0.00    +0.000 A 
BRANCH   6  13
ATOM     12  N   UNL     1       6.446   3.655  13.494  0.00  0.00    +0.000 N 
ATOM     13  C   UNL     1       6.736   4.702  14.319  0.00  0.00    +0.000 C 
ATOM     14  O   UNL     1       7.674   5.451  14.082  0.00  0.00    +0.000 OA
ATOM     15  H   UNL     1       7.010   3.585  12.650  0.00  0.00    +0.000 HD
ATOM     16  H   UNL     1       5.554   3.175  13.500  0.00  0.00    +0.000 HD
ENDBRANCH   6  13
ENDBRANCH   1   9
BRANCH   3  17
ATOM     17  C   UNL     1       0.575   7.248  20.689  0.00  0.00    +0.000 C 
BRANCH  17  18
ATOM     18  N   UNL     1       1.258   8.510  20.934  0.00  0.00    +0.000 N 
ATOM     19  C   UNL     1       1.486   8.841  22.247  0.00  0.00    +0.000 A 
ATOM     20  N   UNL     1       1.047   9.927  22.790  0.00  0.00    +0.000 NA
ATOM     21  C   UNL     1       0.167  10.678  21.982  0.00  0.00    +0.000 A 
ATOM     22  C   UNL     1      -0.900  11.340  22.596  0.00  0.00    +0.000 A 
ATOM     23  C   UNL     1      -1.887  11.953  21.819  0.00  0.00    +0.000 A 
ATOM     24  C   UNL     1      -1.779  11.960  20.428  0.00  0.00    +0.000 A 
ATOM     25  C   UNL     1      -0.724  11.296  19.816  0.00  0.00    +0.000 A 
ATOM     26  F   UNL     1      -0.709  11.216  18.477  0.00  0.00    +0.000 F 
ATOM     27  C   UNL     1       0.210  10.622  20.592  0.00  0.00    +0.000 A 
ATOM     28  C   UNL     1       1.002   9.523  20.022  0.00  0.00    +0.000 A 
ATOM     29  O   UNL     1       1.300   9.459  18.836  0.00  0.00    +0.000 OA
ENDBRANCH  17  18
ENDBRANCH   3  17
TORSDOF 4
ENDMDL
MODEL 9
REMARK VINA RESULT:      -7.5      2.585      3.712
REMARK  Name = 
REMARK  4 active torsions:
REMARK  status: ('A' for Active; 'I' for Inactive)
REMARK    1  A    between atoms: C_2  and  C_4
REMARK    2  A    between atoms: C_7  and  C_8
REMARK    3  A    between atoms: C_10  and  C_11
REMARK    4  A    between atoms: C_11  and  N_12
REMARK                            x       y       z     vdW  Elec       q    Type
REMARK                         _______ _______ _______ _____ _____    ______ ____
ROOT
ATOM      1  C   UNL     1       0.880   9.450  19.820  0.00  0.00    +0.000 A 
ATOM      2  N   UNL     1       1.444   8.272  20.034  0.00  0.00    +0.000 NA
ATOM      3  C   UNL     1       2.170   7.858  18.909  0.00  0.00    +0.000 A 
ATOM      4  C   UNL     1       2.178   8.777  17.874  0.00  0.00    +0.000 A 
ATOM      5  S   UNL     1       1.282  10.166  18.299  0.00  0.00    +0.000 S 
ENDROOT
BRANCH   1   9
ATOM      6  C   UNL     1      -1.644  11.620  22.565  0.00  0.00    +0.000 A 
ATOM      7  C   UNL     1      -0.920  10.505  23.003  0.00  0.00    +0.000 A 
ATOM      8  C   UNL     1      -0.108   9.790  22.104  0.00  0.00    +0.000 A 
ATOM      9  C   UNL     1      -0.001  10.182  20.760  0.00  0.00    +0.000 A 
ATOM     10  C   UNL     1      -0.761  11.288  20.335  0.00  0.00    +0.000 A 
ATOM     11  C   UNL     1      -1.575  11.997  21.224  0.00  0.00    +0.000 A 
BRANCH   6  13
ATOM     12  N   UNL     1      -2.143  13.704  23.733  0.00  0.00    +0.000 N 
ATOM     13  C   UNL     1      -2.524  12.421  23.467  0.00  0.00    +0.000 C 
ATOM     14  O   UNL     1      -3.576  11.973  23.901  0.00  0.00    +0.000 OA
ATOM     15  H   UNL     1      -2.814  14.269  24.248  0.00  0.00    +0.000 HD
ATOM     16  H   UNL     1      -1.431  14.191  23.202  0.00  0.00    +0.000 HD
ENDBRANCH   6  13
ENDBRANCH   1   9
BRANCH   3  17
ATOM     17  C   UNL     1       2.936   6.540  18.933  0.00  0.00    +0.000 C 
BRANCH  17  18
ATOM     18  N   UNL     1       2.049   5.500  19.432  0.00  0.00    +0.000 N 
ATOM     19  C   UNL     1       2.106   5.237  20.779  0.00  0.00    +0.000 A 
ATOM     20  N   UNL     1       2.386   4.073  21.262  0.00  0.00    +0.000 NA
ATOM     21  C   UNL     1       2.798   3.120  20.306  0.00  0.00    +0.000 A 
ATOM     22  C   UNL     1       3.787   2.201  20.665  0.00  0.00    +0.000 A 
ATOM     23  C   UNL     1       4.341   1.353  19.702  0.00  0.00    +0.000 A 
ATOM     24  C   UNL     1       3.865   1.377  18.391  0.00  0.00    +0.000 A 
ATOM     25  C   UNL     1       2.887   2.295  18.030  0.00  0.00    +0.000 A 
ATOM     26  F   UNL     1       2.534   2.379  16.739  0.00  0.00    +0.000 F 
ATOM     27  C   UNL     1       2.398   3.188  18.974  0.00  0.00    +0.000 A 
ATOM     28  C   UNL     1       1.786   4.457  18.556  0.00  0.00    +0.000 A 
ATOM     29  O   UNL     1       1.206   4.600  17.487  0.00  0.00    +0.000 OA
ENDBRANCH  17  18
ENDBRANCH   3  17
TORSDOF 4
ENDMDL
