MODEL 1
REMARK VINA RESULT:      -7.8      0.000      0.000
REMARK  Name = 
REMARK  8 active torsions:
REMARK  status: ('A' for Active; 'I' for Inactive)
REMARK    1  A    between atoms: C_2  and  C_3
REMARK    2  A    between atoms: C_3  and  N_4
REMARK    3  A    between atoms: C_8  and  C_10
REMARK    4  A    between atoms: C_13  and  O_14
REMARK    5  A    between atoms: O_14  and  C_15
REMARK    6  A    between atoms: C_15  and  C_16
REMARK    7  A    between atoms: N_26  and  C_27
REMARK    8  A    between atoms: C_32  and  C_33
REMARK                            x       y       z     vdW  Elec       q    Type
REMARK                         _______ _______ _______ _____ _____    ______ ____
ROOT
ATOM      1  N   UNL     1       0.976   8.507  21.408  0.00  0.00    +0.000 NA
ATOM      2  C   UNL     1      -0.470   8.847  21.285  0.00  0.00    +0.000 C 
ATOM      3  C   UNL     1      -0.764  10.152  20.508  0.00  0.00    +0.000 C 
ATOM      4  N   UNL     1      -0.048  11.261  21.142  0.00  0.00    +0.000 N 
ATOM      5  C   UNL     1      -0.556  12.429  21.700  0.00  0.00    +0.000 C 
ATOM      6  O   UNL     1       0.192  13.302  22.151  0.00  0.00    +0.000 OA
ATOM      7  C   UNL     1       1.398  11.033  21.208  0.00  0.00    +0.000 C 
ATOM      8  C   UNL     1       1.708   9.699  21.926  0.00  0.00    +0.000 C 
ENDROOT
BRANCH   5   9
ATOM      9  C   UNL     1      -2.015  12.717  21.771  0.00  0.00    +0.000 A 
ATOM     10  C   UNL     1      -2.771  13.234  20.716  0.00  0.00    +0.000 A 
ATOM     11  C   UNL     1      -4.145  13.453  20.868  0.00  0.00    +0.000 A 
ATOM     12  C   UNL     1      -4.794  13.058  22.037  0.00  0.00    +0.000 A 
ATOM     13  C   UNL     1      -4.052  12.513  23.086  0.00  0.00    +0.000 A 
ATOM     14  C   UNL     1      -2.674  12.340  22.950  0.00  0.00    +0.000 A 
BRANCH  12  15
ATOM     15  O   UNL     1      -6.155  13.210  22.044  0.00  0.00    +0.000 OA
BRANCH  15  16
ATOM     16  C   UNL     1      -6.760  13.050  20.757  0.00  0.00    +0.000 C 
BRANCH  16  17
ATOM     17  C   UNL     1      -7.029  11.599  20.443  0.00  0.00    +0.000 A 
ATOM     18  C   UNL     1      -6.481  11.041  19.278  0.00  0.00    +0.000 A 
ATOM     19  C   UNL     1      -6.652   9.689  18.989  0.00  0.00    +0.000 A 
ATOM     20  C   UNL     1      -7.369   8.878  19.867  0.00  0.00    +0.000 A 
ATOM     21  C   UNL     1      -7.916   9.422  21.028  0.00  0.00    +0.000 A 
ATOM     22  C   UNL     1      -7.742  10.776  21.320  0.00  0.00    +0.000 A 
ENDBRANCH  16  17
ENDBRANCH  15  16
ENDBRANCH  12  15
ENDBRANCH   5   9
BRANCH   1  23
ATOM     23  C   UNL     1       1.559   8.086  20.115  0.00  0.00    +0.000 C 
BRANCH  23  25
ATOM     24  O   UNL     1       1.796   5.924  21.112  0.00  0.00    +0.000 OA
ATOM     25  C   UNL     1       1.877   6.588  20.087  0.00  0.00    +0.000 C 
ATOM     26  N   UNL     1       2.244   6.128  18.829  0.00  0.00    +0.000 N 
ATOM     27  H   UNL     1       2.478   6.867  18.169  0.00  0.00    +0.000 HD
BRANCH  26  28
ATOM     28  C   UNL     1       2.466   4.780  18.444  0.00  0.00    +0.000 A 
ATOM     29  C   UNL     1       1.499   3.789  18.675  0.00  0.00    +0.000 A 
ATOM     30  C   UNL     1       1.703   2.461  18.290  0.00  0.00    +0.000 A 
ATOM     31  C   UNL     1       2.872   2.097  17.643  0.00  0.00    +0.000 A 
ATOM     32  C   UNL     1       3.839   3.064  17.388  0.00  0.00    +0.000 A 
ATOM     33  C   UNL     1       3.659   4.408  17.791  0.00  0.00    +0.000 A 
BRANCH  33  34
ATOM     34  C   UNL     1       4.799   5.354  17.516  0.00  0.00    +0.000 C 
ATOM     35  F   UNL     1       5.823   4.810  16.798  0.00  0.00    +0.000 F 
ATOM     36  F   UNL     1       4.402   6.453  16.815  0.00  0.00    +0.000 F 
ATOM     37  F   UNL     1       5.368   5.832  18.658  0.00  0.00    +0.000 F 
ENDBRANCH  33  34
ENDBRANCH  26  28
ENDBRANCH  23  25
ENDBRANCH   1  23
TORSDOF 8
ENDMDL
MODEL 2
REMARK VINA RESULT:      -7.7      3.996     10.713
REMARK  Name = 
REMARK  8 active torsions:
REMARK  status: ('A' for Active; 'I' for Inactive)
REMARK    1  A    between atoms: C_2  and  C_3
REMARK    2  A    between atoms: C_3  and  N_4
REMARK    3  A    between atoms: C_8  and  C_10
REMARK    4  A    between atoms: C_13  and  O_14
REMARK    5  A    between atoms: O_14  and  C_15
REMARK    6  A    between atoms: C_15  and  C_16
REMARK    7  A    between atoms: N_26  and  C_27
REMARK    8  A    between atoms: C_32  and  C_33
REMARK                            x       y       z     vdW  Elec       q    Type
REMARK                         _______ _______ _______ _____ _____    ______ ____
ROOT
ATOM      1  N   UNL     1      -1.402  12.466  21.109  0.00  0.00    +0.000 NA
ATOM      2  C   UNL     1      -1.065  11.503  20.022  0.00  0.00    +0.000 C 
ATOM      3  C   UNL     1      -0.986  10.024  20.470  0.00  0.00    +0.000 C 
ATOM      4  N   UNL     1      -0.013   9.902  21.557  0.00  0.00    +0.000 N 
ATOM      5  C   UNL     1       1.151   9.142  21.613  0.00  0.00    +0.000 C 
ATOM      6  O   UNL     1       1.842   9.104  22.635  0.00  0.00    +0.000 OA
ATOM      7  C   UNL     1      -0.339  10.755  22.704  0.00  0.00    +0.000 C 
ATOM      8  C   UNL     1      -0.486  12.230  22.262  0.00  0.00    +0.000 C 
ENDROOT
BRANCH   5   9
ATOM      9  C   UNL     1       1.625   8.315  20.470  0.00  0.00    +0.000 A 
ATOM     10  C   UNL     1       1.911   8.815  19.197  0.00  0.00    +0.000 A 
ATOM     11  C   UNL     1       2.373   7.963  18.187  0.00  0.00    +0.000 A 
ATOM     12  C   UNL     1       2.654   6.627  18.469  0.00  0.00    +0.000 A 
ATOM     13  C   UNL     1       2.398   6.124  19.745  0.00  0.00    +0.000 A 
ATOM     14  C   UNL     1       1.892   6.964  20.738  0.00  0.00    +0.000 A 
BRANCH  12  15
ATOM     15  O   UNL     1       3.207   5.905  17.445  0.00  0.00    +0.000 OA
BRANCH  15  16
ATOM     16  C   UNL     1       4.282   6.578  16.781  0.00  0.00    +0.000 C 
BRANCH  16  17
ATOM     17  C   UNL     1       5.563   6.500  17.574  0.00  0.00    +0.000 A 
ATOM     18  C   UNL     1       5.747   5.435  18.470  0.00  0.00    +0.000 A 
ATOM     19  C   UNL     1       6.943   5.293  19.170  0.00  0.00    +0.000 A 
ATOM     20  C   UNL     1       7.972   6.213  18.977  0.00  0.00    +0.000 A 
ATOM     21  C   UNL     1       7.802   7.274  18.088  0.00  0.00    +0.000 A 
ATOM     22  C   UNL     1       6.605   7.415  17.384  0.00  0.00    +0.000 A 
ENDBRANCH  16  17
ENDBRANCH  15  16
ENDBRANCH  12  15
ENDBRANCH   5   9
BRANCH   1  23
ATOM     23  C   UNL     1      -2.807  12.333  21.552  0.00  0.00    +0.000 C 
BRANCH  23  25
ATOM     24  O   UNL     1      -3.501  14.316  20.408  0.00  0.00    +0.000 OA
ATOM     25  C   UNL     1      -3.764  13.154  20.683  0.00  0.00    +0.000 C 
ATOM     26  N   UNL     1      -4.890  12.444  20.286  0.00  0.00    +0.000 N 
ATOM     27  H   UNL     1      -5.041  11.580  20.804  0.00  0.00    +0.000 HD
BRANCH  26  28
ATOM     28  C   UNL     1      -5.890  12.869  19.373  0.00  0.00    +0.000 A 
ATOM     29  C   UNL     1      -6.931  13.718  19.778  0.00  0.00    +0.000 A 
ATOM     30  C   UNL     1      -7.916  14.150  18.885  0.00  0.00    +0.000 A 
ATOM     31  C   UNL     1      -7.867  13.761  17.556  0.00  0.00    +0.000 A 
ATOM     32  C   UNL     1      -6.836  12.932  17.126  0.00  0.00    +0.000 A 
ATOM     33  C   UNL     1      -5.845  12.467  18.021  0.00  0.00    +0.000 A 
BRANCH  33  34
ATOM     34  C   UNL     1      -4.812  11.526  17.456  0.00  0.00    +0.000 C 
ATOM     35  F   UNL     1      -3.527  11.968  17.565  0.00  0.00    +0.000 F 
ATOM     36  F   UNL     1      -4.834  10.307  18.065  0.00  0.00    +0.000 F 
ATOM     37  F   UNL     1      -5.001  11.279  16.130  0.00  0.00    +0.000 F 
ENDBRANCH  33  34
ENDBRANCH  26  28
ENDBRANCH  23  25
ENDBRANCH   1  23
TORSDOF 8
ENDMDL
MODEL 3
REMARK VINA RESULT:      -7.7      4.788     11.511
REMARK  Name = 
REMARK  8 active torsions:
REMARK  status: ('A' for Active; 'I' for Inactive)
REMARK    1  A    between atoms: C_2  and  C_3
REMARK    2  A    between atoms: C_3  and  N_4
REMARK    3  A    between atoms: C_8  and  C_10
REMARK    4  A    between atoms: C_13  and  O_14
REMARK    5  A    between atoms: O_14  and  C_15
REMARK    6  A    between atoms: C_15  and  C_16
REMARK    7  A    between atoms: N_26  and  C_27
REMARK    8  A    between atoms: C_32  and  C_33
REMARK                            x       y       z     vdW  Elec       q    Type
REMARK                         _______ _______ _______ _____ _____    ______ ____
ROOT
ATOM      1  N   UNL     1      -0.889  12.479  19.751  0.00  0.00    +0.000 NA
ATOM      2  C   UNL     1      -0.537  11.342  18.854  0.00  0.00    +0.000 C 
ATOM      3  C   UNL     1      -0.715   9.942  19.486  0.00  0.00    +0.000 C 
ATOM      4  N   UNL     1       0.076   9.864  20.716  0.00  0.00    +0.000 N 
ATOM      5  C   UNL     1       1.111   8.993  21.041  0.00  0.00    +0.000 C 
ATOM      6  O   UNL     1       1.646   9.020  22.152  0.00  0.00    +0.000 OA
ATOM      7  C   UNL     1      -0.288  10.900  21.686  0.00  0.00    +0.000 C 
ATOM      8  C   UNL     1      -0.177  12.305  21.050  0.00  0.00    +0.000 C 
ENDROOT
BRANCH   5   9
ATOM      9  C   UNL     1       1.623   7.966  20.093  0.00  0.00    +0.000 A 
ATOM     10  C   UNL     1       2.161   8.249  18.834  0.00  0.00    +0.000 A 
ATOM     11  C   UNL     1       2.638   7.217  18.018  0.00  0.00    +0.000 A 
ATOM     12  C   UNL     1       2.680   5.908  18.493  0.00  0.00    +0.000 A 
ATOM     13  C   UNL     1       2.172   5.618  19.760  0.00  0.00    +0.000 A 
ATOM     14  C   UNL     1       1.652   6.642  20.554  0.00  0.00    +0.000 A 
BRANCH  12  15
ATOM     15  O   UNL     1       3.268   4.990  17.663  0.00  0.00    +0.000 OA
BRANCH  15  16
ATOM     16  C   UNL     1       4.391   4.322  18.247  0.00  0.00    +0.000 C 
BRANCH  16  17
ATOM     17  C   UNL     1       5.628   5.184  18.222  0.00  0.00    +0.000 A 
ATOM     18  C   UNL     1       5.838   6.045  17.133  0.00  0.00    +0.000 A 
ATOM     19  C   UNL     1       6.934   6.904  17.108  0.00  0.00    +0.000 A 
ATOM     20  C   UNL     1       7.831   6.916  18.174  0.00  0.00    +0.000 A 
ATOM     21  C   UNL     1       7.632   6.066  19.262  0.00  0.00    +0.000 A 
ATOM     22  C   UNL     1       6.532   5.207  19.290  0.00  0.00    +0.000 A 
ENDBRANCH  16  17
ENDBRANCH  15  16
ENDBRANCH  12  15
ENDBRANCH   5   9
BRANCH   1  23
ATOM     23  C   UNL     1      -2.346  12.569  19.988  0.00  0.00    +0.000 C 
BRANCH  23  25
ATOM     24  O   UNL     1      -2.086  14.884  20.533  0.00  0.00    +0.000 OA
ATOM     25  C   UNL     1      -2.733  13.862  20.714  0.00  0.00    +0.000 C 
ATOM     26  N   UNL     1      -3.836  13.715  21.545  0.00  0.00    +0.000 N 
ATOM     27  H   UNL     1      -4.085  12.747  21.738  0.00  0.00    +0.000 HD
BRANCH  26  28
ATOM     28  C   UNL     1      -4.522  14.743  22.243  0.00  0.00    +0.000 A 
ATOM     29  C   UNL     1      -5.486  15.538  21.604  0.00  0.00    +0.000 A 
ATOM     30  C   UNL     1      -6.174  16.546  22.285  0.00  0.00    +0.000 A 
ATOM     31  C   UNL     1      -5.930  16.768  23.631  0.00  0.00    +0.000 A 
ATOM     32  C   UNL     1      -4.989  15.983  24.290  0.00  0.00    +0.000 A 
ATOM     33  C   UNL     1      -4.267  14.973  23.611  0.00  0.00    +0.000 A 
BRANCH  33  34
ATOM     34  C   UNL     1      -3.232  14.227  24.413  0.00  0.00    +0.000 C 
ATOM     35  F   UNL     1      -3.411  12.876  24.446  0.00  0.00    +0.000 F 
ATOM     36  F   UNL     1      -1.970  14.419  23.935  0.00  0.00    +0.000 F 
ATOM     37  F   UNL     1      -3.196  14.623  25.716  0.00  0.00    +0.000 F 
ENDBRANCH  33  34
ENDBRANCH  26  28
ENDBRANCH  23  25
ENDBRANCH   1  23
TORSDOF 8
ENDMDL
MODEL 4
REMARK VINA RESULT:      -7.7      4.924     11.563
REMARK  Name = 
REMARK  8 active torsions:
REMARK  status: ('A' for Active; 'I' for Inactive)
REMARK    1  A    between atoms: C_2  and  C_3
REMARK    2  A    between atoms: C_3  and  N_4
REMARK    3  A    between atoms: C_8  and  C_10
REMARK    4  A    between atoms: C_13  and  O_14
REMARK    5  A    between atoms: O_14  and  C_15
REMARK    6  A    between atoms: C_15  and  C_16
REMARK    7  A    between atoms: N_26  and  C_27
REMARK    8  A    between atoms: C_32  and  C_33
REMARK                            x       y       z     vdW  Elec       q    Type
REMARK                         _______ _______ _______ _____ _____    ______ ____
ROOT
ATOM      1  N   UNL     1      -0.567  12.499  19.814  0.00  0.00    +0.000 NA
ATOM      2  C   UNL     1      -0.290  11.337  18.923  0.00  0.00    +0.000 C 
ATOM      3  C   UNL     1      -0.573   9.955  19.557  0.00  0.00    +0.000 C 
ATOM      4  N   UNL     1       0.201   9.824  20.793  0.00  0.00    +0.000 N 
ATOM      5  C   UNL     1       1.168   8.883  21.129  0.00  0.00    +0.000 C 
ATOM      6  O   UNL     1       1.694   8.875  22.245  0.00  0.00    +0.000 OA
ATOM      7  C   UNL     1      -0.096  10.887  21.758  0.00  0.00    +0.000 C 
ATOM      8  C   UNL     1       0.119  12.279  21.120  0.00  0.00    +0.000 C 
ENDROOT
BRANCH   5   9
ATOM      9  C   UNL     1       1.613   7.819  20.188  0.00  0.00    +0.000 A 
ATOM     10  C   UNL     1       2.143   8.058  18.916  0.00  0.00    +0.000 A 
ATOM     11  C   UNL     1       2.555   6.994  18.108  0.00  0.00    +0.000 A 
ATOM     12  C   UNL     1       2.542   5.690  18.601  0.00  0.00    +0.000 A 
ATOM     13  C   UNL     1       2.042   5.443  19.880  0.00  0.00    +0.000 A 
ATOM     14  C   UNL     1       1.586   6.502  20.668  0.00  0.00    +0.000 A 
BRANCH  12  15
ATOM     15  O   UNL     1       3.070   4.734  17.775  0.00  0.00    +0.000 OA
BRANCH  15  16
ATOM     16  C   UNL     1       4.210   4.064  18.324  0.00  0.00    +0.000 C 
BRANCH  16  17
ATOM     17  C   UNL     1       5.464   4.891  18.182  0.00  0.00    +0.000 A 
ATOM     18  C   UNL     1       5.759   5.473  16.939  0.00  0.00    +0.000 A 
ATOM     19  C   UNL     1       6.873   6.296  16.788  0.00  0.00    +0.000 A 
ATOM     20  C   UNL     1       7.700   6.552  17.879  0.00  0.00    +0.000 A 
ATOM     21  C   UNL     1       7.416   5.980  19.119  0.00  0.00    +0.000 A 
ATOM     22  C   UNL     1       6.298   5.157  19.273  0.00  0.00    +0.000 A 
ENDBRANCH  16  17
ENDBRANCH  15  16
ENDBRANCH  12  15
ENDBRANCH   5   9
BRANCH   1  23
ATOM     23  C   UNL     1      -2.016  12.693  20.039  0.00  0.00    +0.000 C 
BRANCH  23  25
ATOM     24  O   UNL     1      -2.007  15.050  20.454  0.00  0.00    +0.000 OA
ATOM     25  C   UNL     1      -2.306  13.942  20.878  0.00  0.00    +0.000 C 
ATOM     26  N   UNL     1      -2.909  13.656  22.096  0.00  0.00    +0.000 N 
ATOM     27  H   UNL     1      -2.861  12.674  22.363  0.00  0.00    +0.000 HD
BRANCH  26  28
ATOM     28  C   UNL     1      -3.424  14.588  23.034  0.00  0.00    +0.000 A 
ATOM     29  C   UNL     1      -2.591  15.205  23.980  0.00  0.00    +0.000 A 
ATOM     30  C   UNL     1      -3.086  16.132  24.902  0.00  0.00    +0.000 A 
ATOM     31  C   UNL     1      -4.426  16.482  24.882  0.00  0.00    +0.000 A 
ATOM     32  C   UNL     1      -5.270  15.897  23.943  0.00  0.00    +0.000 A 
ATOM     33  C   UNL     1      -4.790  14.940  23.018  0.00  0.00    +0.000 A 
BRANCH  33  34
ATOM     34  C   UNL     1      -5.807  14.329  22.089  0.00  0.00    +0.000 C 
ATOM     35  F   UNL     1      -5.885  12.969  22.154  0.00  0.00    +0.000 F 
ATOM     36  F   UNL     1      -7.069  14.781  22.333  0.00  0.00    +0.000 F 
ATOM     37  F   UNL     1      -5.558  14.618  20.781  0.00  0.00    +0.000 F 
ENDBRANCH  33  34
ENDBRANCH  26  28
ENDBRANCH  23  25
ENDBRANCH   1  23
TORSDOF 8
ENDMDL
MODEL 5
REMARK VINA RESULT:      -7.6      2.097      2.455
REMARK  Name = 
REMARK  8 active torsions:
REMARK  status: ('A' for Active; 'I' for Inactive)
REMARK    1  A    between atoms: C_2  and  C_3
REMARK    2  A    between atoms: C_3  and  N_4
REMARK    3  A    between atoms: C_8  and  C_10
REMARK    4  A    between atoms: C_13  and  O_14
REMARK    5  A    between atoms: O_14  and  C_15
REMARK    6  A    between atoms: C_15  and  C_16
REMARK    7  A    between atoms: N_26  and  C_27
REMARK    8  A    between atoms: C_32  and  C_33
REMARK                            x       y       z     vdW  Elec       q    Type
REMARK                         _______ _______ _______ _____ _____    ______ ____
ROOT
ATOM      1  N   UNL     1       0.483   9.249  19.503  0.00  0.00    +0.000 NA
ATOM      2  C   UNL     1      -0.773   9.996  19.206  0.00  0.00    +0.000 C 
ATOM      3  C   UNL     1      -0.749  11.487  19.616  0.00  0.00    +0.000 C 
ATOM      4  N   UNL     1      -0.440  11.589  21.043  0.00  0.00    +0.000 N 
ATOM      5  C   UNL     1      -1.195  12.151  22.068  0.00  0.00    +0.000 C 
ATOM      6  O   UNL     1      -0.765  12.209  23.223  0.00  0.00    +0.000 OA
ATOM      7  C   UNL     1       0.835  10.956  21.390  0.00  0.00    +0.000 C 
ATOM      8  C   UNL     1       0.854   9.480  20.929  0.00  0.00    +0.000 C 
ENDROOT
BRANCH   5   9
ATOM      9  C   UNL     1      -2.545  12.736  21.841  0.00  0.00    +0.000 A 
ATOM     10  C   UNL     1      -2.941  13.383  20.667  0.00  0.00    +0.000 A 
ATOM     11  C   UNL     1      -4.241  13.884  20.537  0.00  0.00    +0.000 A 
ATOM     12  C   UNL     1      -5.187  13.650  21.532  0.00  0.00    +0.000 A 
ATOM     13  C   UNL     1      -4.811  12.980  22.697  0.00  0.00    +0.000 A 
ATOM     14  C   UNL     1      -3.500  12.523  22.846  0.00  0.00    +0.000 A 
BRANCH  12  15
ATOM     15  O   UNL     1      -6.458  14.082  21.261  0.00  0.00    +0.000 OA
BRANCH  15  16
ATOM     16  C   UNL     1      -6.969  13.618  20.006  0.00  0.00    +0.000 C 
BRANCH  16  17
ATOM     17  C   UNL     1      -7.102  12.116  19.979  0.00  0.00    +0.000 A 
ATOM     18  C   UNL     1      -6.441  11.391  18.976  0.00  0.00    +0.000 A 
ATOM     19  C   UNL     1      -6.486   9.998  18.958  0.00  0.00    +0.000 A 
ATOM     20  C   UNL     1      -7.189   9.315  19.948  0.00  0.00    +0.000 A 
ATOM     21  C   UNL     1      -7.849  10.025  20.951  0.00  0.00    +0.000 A 
ATOM     22  C   UNL     1      -7.801  11.420  20.972  0.00  0.00    +0.000 A 
ENDBRANCH  16  17
ENDBRANCH  15  16
ENDBRANCH  12  15
ENDBRANCH   5   9
BRANCH   1  23
ATOM     23  C   UNL     1       1.597   9.664  18.623  0.00  0.00    +0.000 C 
BRANCH  23  25
ATOM     24  O   UNL     1       2.910   8.567  16.951  0.00  0.00    +0.000 OA
ATOM     25  C   UNL     1       2.337   8.463  18.026  0.00  0.00    +0.000 C 
ATOM     26  N   UNL     1       2.265   7.325  18.820  0.00  0.00    +0.000 N 
ATOM     27  H   UNL     1       1.555   7.371  19.549  0.00  0.00    +0.000 HD
BRANCH  26  28
ATOM     28  C   UNL     1       2.951   6.099  18.619  0.00  0.00    +0.000 A 
ATOM     29  C   UNL     1       3.824   5.923  17.534  0.00  0.00    +0.000 A 
ATOM     30  C   UNL     1       4.512   4.723  17.333  0.00  0.00    +0.000 A 
ATOM     31  C   UNL     1       4.360   3.676  18.228  0.00  0.00    +0.000 A 
ATOM     32  C   UNL     1       3.512   3.832  19.320  0.00  0.00    +0.000 A 
ATOM     33  C   UNL     1       2.790   5.031  19.526  0.00  0.00    +0.000 A 
BRANCH  33  34
ATOM     34  C   UNL     1       1.857   5.063  20.709  0.00  0.00    +0.000 C 
ATOM     35  F   UNL     1       1.716   6.292  21.283  0.00  0.00    +0.000 F 
ATOM     36  F   UNL     1       0.595   4.663  20.383  0.00  0.00    +0.000 F 
ATOM     37  F   UNL     1       2.259   4.235  21.713  0.00  0.00    +0.000 F 
ENDBRANCH  33  34
ENDBRANCH  26  28
ENDBRANCH  23  25
ENDBRANCH   1  23
TORSDOF 8
ENDMDL
MODEL 6
REMARK VINA RESULT:      -7.6      4.960     11.607
REMARK  Name = 
REMARK  8 active torsions:
REMARK  status: ('A' for Active; 'I' for Inactive)
REMARK    1  A    between atoms: C_2  and  C_3
REMARK    2  A    between atoms: C_3  and  N_4
REMARK    3  A    between atoms: C_8  and  C_10
REMARK    4  A    between atoms: C_13  and  O_14
REMARK    5  A    between atoms: O_14  and  C_15
REMARK    6  A    between atoms: C_15  and  C_16
REMARK    7  A    between atoms: N_26  and  C_27
REMARK    8  A    between atoms: C_32  and  C_33
REMARK                            x       y       z     vdW  Elec       q    Type
REMARK                         _______ _______ _______ _____ _____    ______ ____
ROOT
ATOM      1  N   UNL     1      -0.817  12.551  19.935  0.00  0.00    +0.000 NA
ATOM      2  C   UNL     1      -0.487  11.373  19.084  0.00  0.00    +0.000 C 
ATOM      3  C   UNL     1      -0.675  10.002  19.775  0.00  0.00    +0.000 C 
ATOM      4  N   UNL     1       0.125   9.967  21.000  0.00  0.00    +0.000 N 
ATOM      5  C   UNL     1       1.153   9.098  21.353  0.00  0.00    +0.000 C 
ATOM      6  O   UNL     1       1.698   9.166  22.458  0.00  0.00    +0.000 OA
ATOM      7  C   UNL     1      -0.218  11.047  21.929  0.00  0.00    +0.000 C 
ATOM      8  C   UNL     1      -0.097  12.423  21.234  0.00  0.00    +0.000 C 
ENDROOT
BRANCH   5   9
ATOM      9  C   UNL     1       1.645   8.026  20.445  0.00  0.00    +0.000 A 
ATOM     10  C   UNL     1       1.638   6.663  20.753  0.00  0.00    +0.000 A 
ATOM     11  C   UNL     1       2.102   5.723  19.826  0.00  0.00    +0.000 A 
ATOM     12  C   UNL     1       2.477   6.126  18.546  0.00  0.00    +0.000 A 
ATOM     13  C   UNL     1       2.460   7.482  18.217  0.00  0.00    +0.000 A 
ATOM     14  C   UNL     1       2.043   8.423  19.160  0.00  0.00    +0.000 A 
BRANCH  12  15
ATOM     15  O   UNL     1       2.808   5.120  17.677  0.00  0.00    +0.000 OA
BRANCH  15  16
ATOM     16  C   UNL     1       3.859   4.272  18.152  0.00  0.00    +0.000 C 
BRANCH  16  17
ATOM     17  C   UNL     1       5.203   4.952  18.075  0.00  0.00    +0.000 A 
ATOM     18  C   UNL     1       5.620   5.502  16.853  0.00  0.00    +0.000 A 
ATOM     19  C   UNL     1       6.824   6.196  16.761  0.00  0.00    +0.000 A 
ATOM     20  C   UNL     1       7.623   6.353  17.892  0.00  0.00    +0.000 A 
ATOM     21  C   UNL     1       7.217   5.813  19.112  0.00  0.00    +0.000 A 
ATOM     22  C   UNL     1       6.009   5.120  19.207  0.00  0.00    +0.000 A 
ENDBRANCH  16  17
ENDBRANCH  15  16
ENDBRANCH  12  15
ENDBRANCH   5   9
BRANCH   1  23
ATOM     23  C   UNL     1      -2.272  12.668  20.180  0.00  0.00    +0.000 C 
BRANCH  23  25
ATOM     24  O   UNL     1      -2.274  15.032  20.544  0.00  0.00    +0.000 OA
ATOM     25  C   UNL     1      -2.623  13.937  20.962  0.00  0.00    +0.000 C 
ATOM     26  N   UNL     1      -3.337  13.684  22.126  0.00  0.00    +0.000 N 
ATOM     27  H   UNL     1      -3.324  12.708  22.418  0.00  0.00    +0.000 HD
BRANCH  26  28
ATOM     28  C   UNL     1      -3.925  14.641  22.993  0.00  0.00    +0.000 A 
ATOM     29  C   UNL     1      -3.151  15.355  23.921  0.00  0.00    +0.000 A 
ATOM     30  C   UNL     1      -3.719  16.307  24.773  0.00  0.00    +0.000 A 
ATOM     31  C   UNL     1      -5.074  16.585  24.699  0.00  0.00    +0.000 A 
ATOM     32  C   UNL     1      -5.860  15.902  23.776  0.00  0.00    +0.000 A 
ATOM     33  C   UNL     1      -5.307  14.919  22.923  0.00  0.00    +0.000 A 
BRANCH  33  34
ATOM     34  C   UNL     1      -6.264  14.202  22.007  0.00  0.00    +0.000 C 
ATOM     35  F   UNL     1      -5.983  14.337  20.679  0.00  0.00    +0.000 F 
ATOM     36  F   UNL     1      -6.298  12.860  22.241  0.00  0.00    +0.000 F 
ATOM     37  F   UNL     1      -7.548  14.634  22.153  0.00  0.00    +0.000 F 
ENDBRANCH  33  34
ENDBRANCH  26  28
ENDBRANCH  23  25
ENDBRANCH   1  23
TORSDOF 8
ENDMDL
MODEL 7
REMARK VINA RESULT:      -7.6      3.729      6.058
REMARK  Name = 
REMARK  8 active torsions:
REMARK  status: ('A' for Active; 'I' for Inactive)
REMARK    1  A    between atoms: C_2  and  C_3
REMARK    2  A    between atoms: C_3  and  N_4
REMARK    3  A    between atoms: C_8  and  C_10
REMARK    4  A    between atoms: C_13  and  O_14
REMARK    5  A    between atoms: O_14  and  C_15
REMARK    6  A    between atoms: C_15  and  C_16
REMARK    7  A    between atoms: N_26  and  C_27
REMARK    8  A    between atoms: C_32  and  C_33
REMARK                            x       y       z     vdW  Elec       q    Type
REMARK                         _______ _______ _______ _____ _____    ______ ____
ROOT
ATOM      1  N   UNL     1       0.495   9.363  19.541  0.00  0.00    +0.000 NA
ATOM      2  C   UNL     1       0.648  10.820  19.266  0.00  0.00    +0.000 C 
ATOM      3  C   UNL     1       1.089  11.665  20.483  0.00  0.00    +0.000 C 
ATOM      4  N   UNL     1       0.138  11.468  21.578  0.00  0.00    +0.000 N 
ATOM      5  C   UNL     1      -0.655  12.404  22.233  0.00  0.00    +0.000 C 
ATOM      6  O   UNL     1      -1.373  12.083  23.184  0.00  0.00    +0.000 OA
ATOM      7  C   UNL     1       0.010  10.060  21.966  0.00  0.00    +0.000 C 
ATOM      8  C   UNL     1      -0.368   9.190  20.745  0.00  0.00    +0.000 C 
ENDROOT
BRANCH   5   9
ATOM      9  C   UNL     1      -0.674  13.844  21.855  0.00  0.00    +0.000 A 
ATOM     10  C   UNL     1       0.101  14.833  22.466  0.00  0.00    +0.000 A 
ATOM     11  C   UNL     1       0.032  16.160  22.029  0.00  0.00    +0.000 A 
ATOM     12  C   UNL     1      -0.729  16.493  20.910  0.00  0.00    +0.000 A 
ATOM     13  C   UNL     1      -1.485  15.507  20.274  0.00  0.00    +0.000 A 
ATOM     14  C   UNL     1      -1.452  14.192  20.742  0.00  0.00    +0.000 A 
BRANCH  12  15
ATOM     15  O   UNL     1      -0.642  17.794  20.494  0.00  0.00    +0.000 OA
BRANCH  15  16
ATOM     16  C   UNL     1       0.702  18.273  20.377  0.00  0.00    +0.000 C 
BRANCH  16  17
ATOM     17  C   UNL     1       1.325  17.871  19.063  0.00  0.00    +0.000 A 
ATOM     18  C   UNL     1       0.813  18.410  17.872  0.00  0.00    +0.000 A 
ATOM     19  C   UNL     1       1.405  18.114  16.646  0.00  0.00    +0.000 A 
ATOM     20  C   UNL     1       2.520  17.279  16.598  0.00  0.00    +0.000 A 
ATOM     21  C   UNL     1       3.037  16.739  17.775  0.00  0.00    +0.000 A 
ATOM     22  C   UNL     1       2.447  17.038  19.004  0.00  0.00    +0.000 A 
ENDBRANCH  16  17
ENDBRANCH  15  16
ENDBRANCH  12  15
ENDBRANCH   5   9
BRANCH   1  23
ATOM     23  C   UNL     1       1.799   8.701  19.762  0.00  0.00    +0.000 C 
BRANCH  23  25
ATOM     24  O   UNL     1       2.119   8.592  17.394  0.00  0.00    +0.000 OA
ATOM     25  C   UNL     1       2.351   8.075  18.477  0.00  0.00    +0.000 C 
ATOM     26  N   UNL     1       3.093   6.923  18.703  0.00  0.00    +0.000 N 
ATOM     27  H   UNL     1       2.974   6.528  19.635  0.00  0.00    +0.000 HD
BRANCH  26  28
ATOM     28  C   UNL     1       3.845   6.190  17.748  0.00  0.00    +0.000 A 
ATOM     29  C   UNL     1       4.989   6.739  17.147  0.00  0.00    +0.000 A 
ATOM     30  C   UNL     1       5.742   6.023  16.213  0.00  0.00    +0.000 A 
ATOM     31  C   UNL     1       5.382   4.728  15.875  0.00  0.00    +0.000 A 
ATOM     32  C   UNL     1       4.261   4.156  16.469  0.00  0.00    +0.000 A 
ATOM     33  C   UNL     1       3.474   4.875  17.399  0.00  0.00    +0.000 A 
BRANCH  33  34
ATOM     34  C   UNL     1       2.250   4.176  17.931  0.00  0.00    +0.000 C 
ATOM     35  F   UNL     1       1.070   4.770  17.595  0.00  0.00    +0.000 F 
ATOM     36  F   UNL     1       2.154   2.891  17.487  0.00  0.00    +0.000 F 
ATOM     37  F   UNL     1       2.244   4.097  19.291  0.00  0.00    +0.000 F 
ENDBRANCH  33  34
ENDBRANCH  26  28
ENDBRANCH  23  25
ENDBRANCH   1  23
TORSDOF 8
ENDMDL
MODEL 8
REMARK VINA RESULT:      -7.5      4.850     11.105
REMARK  Name = 
REMARK  8 active torsions:
REMARK  status: ('A' for Active; 'I' for Inactive)
REMARK    1  A    between atoms: C_2  and  C_3
REMARK    2  A    between atoms: C_3  and  N_4
REMARK    3  A    between atoms: C_8  and  C_10
REMARK    4  A    between atoms: C_13  and  O_14
REMARK    5  A    between atoms: O_14  and  C_15
REMARK    6  A    between atoms: C_15  and  C_16
REMARK    7  A    between atoms: N_26  and  C_27
REMARK    8  A    between atoms: C_32  and  C_33
REMARK                            x       y       z     vdW  Elec       q    Type
REMARK                         _______ _______ _______ _____ _____    ______ ____
ROOT
ATOM      1  N   UNL     1      -1.805  12.145  22.808  0.00  0.00    +0.000 NA
ATOM      2  C   UNL     1      -0.663  11.193  22.699  0.00  0.00    +0.000 C 
ATOM      3  C   UNL     1       0.335  11.509  21.560  0.00  0.00    +0.000 C 
ATOM      4  N   UNL     1      -0.387  11.561  20.288  0.00  0.00    +0.000 N 
ATOM      5  C   UNL     1      -0.207  10.792  19.143  0.00  0.00    +0.000 C 
ATOM      6  O   UNL     1      -0.868  10.998  18.122  0.00  0.00    +0.000 OA
ATOM      7  C   UNL     1      -1.469  12.551  20.294  0.00  0.00    +0.000 C 
ATOM      8  C   UNL     1      -2.441  12.288  21.467  0.00  0.00    +0.000 C 
ENDROOT
BRANCH   5   9
ATOM      9  C   UNL     1       0.798   9.697  19.063  0.00  0.00    +0.000 A 
ATOM     10  C   UNL     1       0.974   8.711  20.038  0.00  0.00    +0.000 A 
ATOM     11  C   UNL     1       1.932   7.706  19.867  0.00  0.00    +0.000 A 
ATOM     12  C   UNL     1       2.648   7.614  18.674  0.00  0.00    +0.000 A 
ATOM     13  C   UNL     1       2.458   8.576  17.681  0.00  0.00    +0.000 A 
ATOM     14  C   UNL     1       1.537   9.606  17.874  0.00  0.00    +0.000 A 
BRANCH  12  15
ATOM     15  O   UNL     1       3.478   6.531  18.559  0.00  0.00    +0.000 OA
BRANCH  15  16
ATOM     16  C   UNL     1       3.469   5.673  19.705  0.00  0.00    +0.000 C 
BRANCH  16  17
ATOM     17  C   UNL     1       2.654   4.427  19.463  0.00  0.00    +0.000 A 
ATOM     18  C   UNL     1       1.805   3.961  20.478  0.00  0.00    +0.000 A 
ATOM     19  C   UNL     1       0.987   2.852  20.267  0.00  0.00    +0.000 A 
ATOM     20  C   UNL     1       1.007   2.201  19.035  0.00  0.00    +0.000 A 
ATOM     21  C   UNL     1       1.846   2.657  18.019  0.00  0.00    +0.000 A 
ATOM     22  C   UNL     1       2.662   3.770  18.228  0.00  0.00    +0.000 A 
ENDBRANCH  16  17
ENDBRANCH  15  16
ENDBRANCH  12  15
ENDBRANCH   5   9
BRANCH   1  23
ATOM     23  C   UNL     1      -1.377  13.472  23.302  0.00  0.00    +0.000 C 
BRANCH  23  25
ATOM     24  O   UNL     1      -2.286  15.390  22.199  0.00  0.00    +0.000 OA
ATOM     25  C   UNL     1      -2.445  14.545  23.068  0.00  0.00    +0.000 C 
ATOM     26  N   UNL     1      -3.534  14.429  23.923  0.00  0.00    +0.000 N 
ATOM     27  H   UNL     1      -3.373  13.816  24.720  0.00  0.00    +0.000 HD
BRANCH  26  28
ATOM     28  C   UNL     1      -4.741  15.175  23.874  0.00  0.00    +0.000 A 
ATOM     29  C   UNL     1      -4.739  16.571  24.016  0.00  0.00    +0.000 A 
ATOM     30  C   UNL     1      -5.921  17.316  23.960  0.00  0.00    +0.000 A 
ATOM     31  C   UNL     1      -7.132  16.681  23.735  0.00  0.00    +0.000 A 
ATOM     32  C   UNL     1      -7.158  15.300  23.575  0.00  0.00    +0.000 A 
ATOM     33  C   UNL     1      -5.974  14.528  23.653  0.00  0.00    +0.000 A 
BRANCH  33  34
ATOM     34  C   UNL     1      -6.132  13.035  23.524  0.00  0.00    +0.000 C 
ATOM     35  F   UNL     1      -5.598  12.321  24.556  0.00  0.00    +0.000 F 
ATOM     36  F   UNL     1      -7.439  12.656  23.453  0.00  0.00    +0.000 F 
ATOM     37  F   UNL     1      -5.543  12.543  22.398  0.00  0.00    +0.000 F 
ENDBRANCH  33  34
ENDBRANCH  26  28
ENDBRANCH  23  25
ENDBRANCH   1  23
TORSDOF 8
ENDMDL
MODEL 9
REMARK VINA RESULT:      -7.5      3.696      5.957
REMARK  Name = 
REMARK  8 active torsions:
REMARK  status: ('A' for Active; 'I' for Inactive)
REMARK    1  A    between atoms: C_2  and  C_3
REMARK    2  A    between atoms: C_3  and  N_4
REMARK    3  A    between atoms: C_8  and  C_10
REMARK    4  A    between atoms: C_13  and  O_14
REMARK    5  A    between atoms: O_14  and  C_15
REMARK    6  A    between atoms: C_15  and  C_16
REMARK    7  A    between atoms: N_26  and  C_27
REMARK    8  A    between atoms: C_32  and  C_33
REMARK                            x       y       z     vdW  Elec       q    Type
REMARK                         _______ _______ _______ _____ _____    ______ ____
ROOT
ATOM      1  N   UNL     1       0.420   8.969  19.837  0.00  0.00    +0.000 NA
ATOM      2  C   UNL     1       0.542  10.381  19.375  0.00  0.00    +0.000 C 
ATOM      3  C   UNL     1       1.081  11.365  20.440  0.00  0.00    +0.000 C 
ATOM      4  N   UNL     1       0.225  11.307  21.627  0.00  0.00    +0.000 N 
ATOM      5  C   UNL     1      -0.513  12.320  22.228  0.00  0.00    +0.000 C 
ATOM      6  O   UNL     1      -1.147  12.121  23.268  0.00  0.00    +0.000 OA
ATOM      7  C   UNL     1       0.138   9.957  22.192  0.00  0.00    +0.000 C 
ATOM      8  C   UNL     1      -0.337   8.947  21.122  0.00  0.00    +0.000 C 
ENDROOT
BRANCH   5   9
ATOM      9  C   UNL     1      -0.571  13.703  21.681  0.00  0.00    +0.000 A 
ATOM     10  C   UNL     1      -1.172  14.050  20.468  0.00  0.00    +0.000 A 
ATOM     11  C   UNL     1      -1.197  15.383  20.043  0.00  0.00    +0.000 A 
ATOM     12  C   UNL     1      -0.717  16.394  20.875  0.00  0.00    +0.000 A 
ATOM     13  C   UNL     1      -0.141  16.062  22.101  0.00  0.00    +0.000 A 
ATOM     14  C   UNL     1      -0.074  14.726  22.502  0.00  0.00    +0.000 A 
BRANCH  12  15
ATOM     15  O   UNL     1      -0.889  17.674  20.418  0.00  0.00    +0.000 OA
BRANCH  15  16
ATOM     16  C   UNL     1       0.332  18.412  20.300  0.00  0.00    +0.000 C 
BRANCH  16  17
ATOM     17  C   UNL     1       1.049  18.102  19.010  0.00  0.00    +0.000 A 
ATOM     18  C   UNL     1       2.144  17.224  19.033  0.00  0.00    +0.000 A 
ATOM     19  C   UNL     1       2.789  16.862  17.852  0.00  0.00    +0.000 A 
ATOM     20  C   UNL     1       2.343  17.370  16.634  0.00  0.00    +0.000 A 
ATOM     21  C   UNL     1       1.255  18.243  16.599  0.00  0.00    +0.000 A 
ATOM     22  C   UNL     1       0.606  18.603  17.781  0.00  0.00    +0.000 A 
ENDBRANCH  16  17
ENDBRANCH  15  16
ENDBRANCH  12  15
ENDBRANCH   5   9
BRANCH   1  23
ATOM     23  C   UNL     1       1.741   8.331  20.026  0.00  0.00    +0.000 C 
BRANCH  23  25
ATOM     24  O   UNL     1       1.924   8.183  17.645  0.00  0.00    +0.000 OA
ATOM     25  C   UNL     1       2.281   7.731  18.723  0.00  0.00    +0.000 C 
ATOM     26  N   UNL     1       3.165   6.680  18.929  0.00  0.00    +0.000 N 
ATOM     27  H   UNL     1       3.151   6.304  19.876  0.00  0.00    +0.000 HD
BRANCH  26  28
ATOM     28  C   UNL     1       3.936   6.008  17.945  0.00  0.00    +0.000 A 
ATOM     29  C   UNL     1       5.121   6.568  17.442  0.00  0.00    +0.000 A 
ATOM     30  C   UNL     1       5.894   5.911  16.481  0.00  0.00    +0.000 A 
ATOM     31  C   UNL     1       5.511   4.663  16.016  0.00  0.00    +0.000 A 
ATOM     32  C   UNL     1       4.349   4.079  16.511  0.00  0.00    +0.000 A 
ATOM     33  C   UNL     1       3.542   4.741  17.467  0.00  0.00    +0.000 A 
BRANCH  33  34
ATOM     34  C   UNL     1       2.276   4.039  17.885  0.00  0.00    +0.000 C 
ATOM     35  F   UNL     1       1.130   4.638  17.452  0.00  0.00    +0.000 F 
ATOM     36  F   UNL     1       2.218   2.758  17.424  0.00  0.00    +0.000 F 
ATOM     37  F   UNL     1       2.151   3.950  19.239  0.00  0.00    +0.000 F 
ENDBRANCH  33  34
ENDBRANCH  26  28
ENDBRANCH  23  25
ENDBRANCH   1  23
TORSDOF 8
ENDMDL
