MODEL 1
REMARK VINA RESULT:      -8.6      0.000      0.000
REMARK  Name = 
REMARK  7 active torsions:
REMARK  status: ('A' for Active; 'I' for Inactive)
REMARK    1  A    between atoms: C_1  and  C_2
REMARK    2  A    between atoms: C_2  and  C_3
REMARK    3  A    between atoms: C_10  and  S_11
REMARK    4  A    between atoms: S_11  and  N_14
REMARK    5  A    between atoms: N_14  and  C_15
REMARK    6  A    between atoms: N_19  and  C_20
REMARK    7  A    between atoms: C_20  and  C_21
REMARK                            x       y       z     vdW  Elec       q    Type
REMARK                         _______ _______ _______ _____ _____    ______ ____
ROOT
ATOM      1  S   UNL     1       3.313   5.849  18.332  0.00  0.00    +0.000 S 
ATOM      2  O   UNL     1       4.225   5.647  19.437  0.00  0.00    +0.000 OA
ATOM      3  O   UNL     1       2.274   4.883  18.037  0.00  0.00    +0.000 OA
ENDROOT
BRANCH   1  13
ATOM      4  C   UNL     1       1.567   9.246  22.676  0.00  0.00    +0.000 C 
ATOM      5  C   UNL     1       0.625   9.221  21.477  0.00  0.00    +0.000 C 
ATOM      6  C   UNL     1      -0.594   8.328  21.707  0.00  0.00    +0.000 C 
ATOM      7  C   UNL     1       0.172  10.654  21.098  0.00  0.00    +0.000 C 
ATOM      8  O   UNL     1      -0.416  11.449  21.806  0.00  0.00    +0.000 OA
ATOM      9  N   UNL     1       0.539  10.867  19.768  0.00  0.00    +0.000 N 
ATOM     10  C   UNL     1       1.204   9.771  19.239  0.00  0.00    +0.000 A 
ATOM     11  C   UNL     1       1.689   9.601  17.957  0.00  0.00    +0.000 A 
ATOM     12  C   UNL     1       2.316   8.380  17.659  0.00  0.00    +0.000 A 
ATOM     13  C   UNL     1       2.454   7.383  18.656  0.00  0.00    +0.000 A 
ATOM     14  C   UNL     1       1.957   7.583  19.945  0.00  0.00    +0.000 A 
ATOM     15  C   UNL     1       1.321   8.781  20.211  0.00  0.00    +0.000 A 
ATOM     16  H   UNL     1       0.341  11.734  19.291  0.00  0.00    +0.000 HD
ENDBRANCH   1  13
BRANCH   1  17
ATOM     17  N   UNL     1       4.192   6.197  16.983  0.00  0.00    +0.000 N 
ATOM     18  H   UNL     1       3.688   6.791  16.341  0.00  0.00    +0.000 HD
BRANCH  17  19
ATOM     19  C   UNL     1       5.552   6.446  17.106  0.00  0.00    +0.000 A 
ATOM     20  C   UNL     1       6.106   7.641  17.500  0.00  0.00    +0.000 A 
ATOM     21  C   UNL     1       7.496   7.411  17.495  0.00  0.00    +0.000 A 
ATOM     22  N   UNL     1       7.806   6.176  17.095  0.00  0.00    +0.000 NA
ATOM     23  N   UNL     1       6.607   5.609  16.830  0.00  0.00    +0.000 N 
BRANCH  23  24
ATOM     24  C   UNL     1       6.572   4.290  16.225  0.00  0.00    +0.000 C 
BRANCH  24  25
ATOM     25  C   UNL     1       6.765   4.407  14.735  0.00  0.00    +0.000 A 
ATOM     26  C   UNL     1       6.032   3.600  13.862  0.00  0.00    +0.000 A 
ATOM     27  C   UNL     1       6.288   3.677  12.496  0.00  0.00    +0.000 A 
ATOM     28  C   UNL     1       7.253   4.562  12.034  0.00  0.00    +0.000 A 
ATOM     29  C   UNL     1       7.924   5.340  12.962  0.00  0.00    +0.000 A 
ATOM     30  N   UNL     1       7.717   5.277  14.301  0.00  0.00    +0.000 NA
ENDBRANCH  24  25
ENDBRANCH  23  24
ENDBRANCH  17  19
ENDBRANCH   1  17
TORSDOF 5
ENDMDL
MODEL 2
REMARK VINA RESULT:      -8.5      2.350      3.695
REMARK  Name = 
REMARK  7 active torsions:
REMARK  status: ('A' for Active; 'I' for Inactive)
REMARK    1  A    between atoms: C_1  and  C_2
REMARK    2  A    between atoms: C_2  and  C_3
REMARK    3  A    between atoms: C_10  and  S_11
REMARK    4  A    between atoms: S_11  and  N_14
REMARK    5  A    between atoms: N_14  and  C_15
REMARK    6  A    between atoms: N_19  and  C_20
REMARK    7  A    between atoms: C_20  and  C_21
REMARK                            x       y       z     vdW  Elec       q    Type
REMARK                         _______ _______ _______ _____ _____    ______ ____
ROOT
ATOM      1  S   UNL     1       3.008   6.590  18.338  0.00  0.00    +0.000 S 
ATOM      2  O   UNL     1       2.058   5.777  17.609  0.00  0.00    +0.000 OA
ATOM      3  O   UNL     1       4.218   7.072  17.703  0.00  0.00    +0.000 OA
ENDROOT
BRANCH   1  13
ATOM      4  C   UNL     1       1.395   9.476  23.084  0.00  0.00    +0.000 C 
ATOM      5  C   UNL     1       0.396   9.545  21.934  0.00  0.00    +0.000 C 
ATOM      6  C   UNL     1      -0.787   8.597  22.128  0.00  0.00    +0.000 C 
ATOM      7  C   UNL     1      -0.110  10.995  21.724  0.00  0.00    +0.000 C 
ATOM      8  O   UNL     1      -0.682  11.697  22.537  0.00  0.00    +0.000 OA
ATOM      9  N   UNL     1       0.186  11.352  20.408  0.00  0.00    +0.000 N 
ATOM     10  C   UNL     1       0.850  10.335  19.739  0.00  0.00    +0.000 A 
ATOM     11  C   UNL     1       1.276  10.310  18.425  0.00  0.00    +0.000 A 
ATOM     12  C   UNL     1       1.917   9.144  17.975  0.00  0.00    +0.000 A 
ATOM     13  C   UNL     1       2.129   8.057  18.858  0.00  0.00    +0.000 A 
ATOM     14  C   UNL     1       1.691   8.110  20.182  0.00  0.00    +0.000 A 
ATOM     15  C   UNL     1       1.040   9.256  20.599  0.00  0.00    +0.000 A 
ATOM     16  H   UNL     1      -0.057  12.257  20.032  0.00  0.00    +0.000 HD
ENDBRANCH   1  13
BRANCH   1  17
ATOM     17  N   UNL     1       3.352   5.842  19.765  0.00  0.00    +0.000 N 
ATOM     18  H   UNL     1       3.511   6.500  20.514  0.00  0.00    +0.000 HD
BRANCH  17  19
ATOM     19  C   UNL     1       2.666   4.684  20.106  0.00  0.00    +0.000 A 
ATOM     20  C   UNL     1       1.372   4.638  20.570  0.00  0.00    +0.000 A 
ATOM     21  C   UNL     1       1.107   3.267  20.758  0.00  0.00    +0.000 A 
ATOM     22  N   UNL     1       2.161   2.501  20.470  0.00  0.00    +0.000 NA
ATOM     23  N   UNL     1       3.116   3.386  20.103  0.00  0.00    +0.000 N 
BRANCH  23  24
ATOM     24  C   UNL     1       4.464   2.904  19.858  0.00  0.00    +0.000 C 
BRANCH  24  25
ATOM     25  C   UNL     1       5.010   3.531  18.601  0.00  0.00    +0.000 A 
ATOM     26  C   UNL     1       4.400   3.290  17.369  0.00  0.00    +0.000 A 
ATOM     27  C   UNL     1       4.973   3.821  16.216  0.00  0.00    +0.000 A 
ATOM     28  C   UNL     1       6.125   4.588  16.322  0.00  0.00    +0.000 A 
ATOM     29  C   UNL     1       6.659   4.797  17.583  0.00  0.00    +0.000 A 
ATOM     30  N   UNL     1       6.141   4.278  18.724  0.00  0.00    +0.000 NA
ENDBRANCH  24  25
ENDBRANCH  23  24
ENDBRANCH  17  19
ENDBRANCH   1  17
TORSDOF 5
ENDMDL
MODEL 3
REMARK VINA RESULT:      -8.5      2.591      4.231
REMARK  Name = 
REMARK  7 active torsions:
REMARK  status: ('A' for Active; 'I' for Inactive)
REMARK    1  A    between atoms: C_1  and  C_2
REMARK    2  A    between atoms: C_2  and  C_3
REMARK    3  A    between atoms: C_10  and  S_11
REMARK    4  A    between atoms: S_11  and  N_14
REMARK    5  A    between atoms: N_14  and  C_15
REMARK    6  A    between atoms: N_19  and  C_20
REMARK    7  A    between atoms: C_20  and  C_21
REMARK                            x       y       z     vdW  Elec       q    Type
REMARK                         _______ _______ _______ _____ _____    ______ ____
ROOT
ATOM      1  S   UNL     1       2.774   6.755  18.793  0.00  0.00    +0.000 S 
ATOM      2  O   UNL     1       1.849   6.042  17.939  0.00  0.00    +0.000 OA
ATOM      3  O   UNL     1       3.893   7.485  18.233  0.00  0.00    +0.000 OA
ENDROOT
BRANCH   1  13
ATOM      4  C   UNL     1      -1.240  10.839  17.981  0.00  0.00    +0.000 C 
ATOM      5  C   UNL     1      -0.225  11.162  19.072  0.00  0.00    +0.000 C 
ATOM      6  C   UNL     1       0.847  12.145  18.604  0.00  0.00    +0.000 C 
ATOM      7  C   UNL     1      -0.929  11.704  20.343  0.00  0.00    +0.000 C 
ATOM      8  O   UNL     1      -1.638  12.688  20.424  0.00  0.00    +0.000 OA
ATOM      9  N   UNL     1      -0.578  10.866  21.402  0.00  0.00    +0.000 N 
ATOM     10  C   UNL     1       0.238   9.825  20.983  0.00  0.00    +0.000 A 
ATOM     11  C   UNL     1       0.806   8.822  21.744  0.00  0.00    +0.000 A 
ATOM     12  C   UNL     1       1.616   7.886  21.080  0.00  0.00    +0.000 A 
ATOM     13  C   UNL     1       1.812   7.973  19.680  0.00  0.00    +0.000 A 
ATOM     14  C   UNL     1       1.224   8.996  18.934  0.00  0.00    +0.000 A 
ATOM     15  C   UNL     1       0.451   9.922  19.609  0.00  0.00    +0.000 A 
ATOM     16  H   UNL     1      -0.911  11.023  22.342  0.00  0.00    +0.000 HD
ENDBRANCH   1  13
BRANCH   1  17
ATOM     17  N   UNL     1       3.274   5.739  19.989  0.00  0.00    +0.000 N 
ATOM     18  H   UNL     1       3.523   6.234  20.833  0.00  0.00    +0.000 HD
BRANCH  17  19
ATOM     19  C   UNL     1       2.624   4.525  20.163  0.00  0.00    +0.000 A 
ATOM     20  C   UNL     1       1.345   4.374  20.644  0.00  0.00    +0.000 A 
ATOM     21  C   UNL     1       1.115   2.984  20.623  0.00  0.00    +0.000 A 
ATOM     22  N   UNL     1       2.178   2.299  20.196  0.00  0.00    +0.000 NA
ATOM     23  N   UNL     1       3.103   3.255  19.948  0.00  0.00    +0.000 N 
BRANCH  23  24
ATOM     24  C   UNL     1       4.453   2.852  19.599  0.00  0.00    +0.000 C 
BRANCH  24  25
ATOM     25  C   UNL     1       4.961   3.699  18.460  0.00  0.00    +0.000 A 
ATOM     26  C   UNL     1       4.379   3.603  17.195  0.00  0.00    +0.000 A 
ATOM     27  C   UNL     1       4.920   4.341  16.145  0.00  0.00    +0.000 A 
ATOM     28  C   UNL     1       6.011   5.164  16.386  0.00  0.00    +0.000 A 
ATOM     29  C   UNL     1       6.519   5.218  17.673  0.00  0.00    +0.000 A 
ATOM     30  N   UNL     1       6.033   4.498  18.713  0.00  0.00    +0.000 NA
ENDBRANCH  24  25
ENDBRANCH  23  24
ENDBRANCH  17  19
ENDBRANCH   1  17
TORSDOF 5
ENDMDL
MODEL 4
REMARK VINA RESULT:      -8.3      2.547      4.077
REMARK  Name = 
REMARK  7 active torsions:
REMARK  status: ('A' for Active; 'I' for Inactive)
REMARK    1  A    between atoms: C_1  and  C_2
REMARK    2  A    between atoms: C_2  and  C_3
REMARK    3  A    between atoms: C_10  and  S_11
REMARK    4  A    between atoms: S_11  and  N_14
REMARK    5  A    between atoms: N_14  and  C_15
REMARK    6  A    between atoms: N_19  and  C_20
REMARK    7  A    between atoms: C_20  and  C_21
REMARK                            x       y       z     vdW  Elec       q    Type
REMARK                         _______ _______ _______ _____ _____    ______ ____
ROOT
ATOM      1  S   UNL     1       2.723   6.852  18.428  0.00  0.00    +0.000 S 
ATOM      2  O   UNL     1       1.758   5.923  17.878  0.00  0.00    +0.000 OA
ATOM      3  O   UNL     1       3.530   7.686  17.561  0.00  0.00    +0.000 OA
ENDROOT
BRANCH   1  13
ATOM      4  C   UNL     1      -1.246  11.049  18.138  0.00  0.00    +0.000 C 
ATOM      5  C   UNL     1      -0.196  11.248  19.226  0.00  0.00    +0.000 C 
ATOM      6  C   UNL     1       0.878  12.259  18.827  0.00  0.00    +0.000 C 
ATOM      7  C   UNL     1      -0.856  11.671  20.564  0.00  0.00    +0.000 C 
ATOM      8  O   UNL     1      -1.547  12.652  20.762  0.00  0.00    +0.000 OA
ATOM      9  N   UNL     1      -0.490  10.728  21.524  0.00  0.00    +0.000 N 
ATOM     10  C   UNL     1       0.297   9.723  20.981  0.00  0.00    +0.000 A 
ATOM     11  C   UNL     1       0.869   8.642  21.623  0.00  0.00    +0.000 A 
ATOM     12  C   UNL     1       1.646   7.765  20.847  0.00  0.00    +0.000 A 
ATOM     13  C   UNL     1       1.804   7.988  19.457  0.00  0.00    +0.000 A 
ATOM     14  C   UNL     1       1.213   9.088  18.834  0.00  0.00    +0.000 A 
ATOM     15  C   UNL     1       0.474   9.953  19.619  0.00  0.00    +0.000 A 
ATOM     16  H   UNL     1      -0.795  10.795  22.484  0.00  0.00    +0.000 HD
ENDBRANCH   1  13
BRANCH   1  17
ATOM     17  N   UNL     1       3.664   6.049  19.514  0.00  0.00    +0.000 N 
ATOM     18  H   UNL     1       3.709   6.521  20.405  0.00  0.00    +0.000 HD
BRANCH  17  19
ATOM     19  C   UNL     1       3.613   4.662  19.562  0.00  0.00    +0.000 A 
ATOM     20  C   UNL     1       3.019   3.925  20.559  0.00  0.00    +0.000 A 
ATOM     21  C   UNL     1       3.199   2.583  20.170  0.00  0.00    +0.000 A 
ATOM     22  N   UNL     1       3.885   2.472  19.031  0.00  0.00    +0.000 NA
ATOM     23  N   UNL     1       4.158   3.752  18.689  0.00  0.00    +0.000 N 
BRANCH  23  24
ATOM     24  C   UNL     1       5.031   4.005  17.557  0.00  0.00    +0.000 C 
BRANCH  24  25
ATOM     25  C   UNL     1       6.075   5.024  17.935  0.00  0.00    +0.000 A 
ATOM     26  C   UNL     1       6.372   6.083  17.075  0.00  0.00    +0.000 A 
ATOM     27  C   UNL     1       7.394   6.964  17.417  0.00  0.00    +0.000 A 
ATOM     28  C   UNL     1       8.082   6.777  18.608  0.00  0.00    +0.000 A 
ATOM     29  C   UNL     1       7.716   5.712  19.415  0.00  0.00    +0.000 A 
ATOM     30  N   UNL     1       6.741   4.823  19.104  0.00  0.00    +0.000 NA
ENDBRANCH  24  25
ENDBRANCH  23  24
ENDBRANCH  17  19
ENDBRANCH   1  17
TORSDOF 5
ENDMDL
MODEL 5
REMARK VINA RESULT:      -8.1      2.122      2.912
REMARK  Name = 
REMARK  7 active torsions:
REMARK  status: ('A' for Active; 'I' for Inactive)
REMARK    1  A    between atoms: C_1  and  C_2
REMARK    2  A    between atoms: C_2  and  C_3
REMARK    3  A    between atoms: C_10  and  S_11
REMARK    4  A    between atoms: S_11  and  N_14
REMARK    5  A    between atoms: N_14  and  C_15
REMARK    6  A    between atoms: N_19  and  C_20
REMARK    7  A    between atoms: C_20  and  C_21
REMARK                            x       y       z     vdW  Elec       q    Type
REMARK                         _______ _______ _______ _____ _____    ______ ____
ROOT
ATOM      1  S   UNL     1       2.992   6.573  18.230  0.00  0.00    +0.000 S 
ATOM      2  O   UNL     1       2.004   5.641  17.732  0.00  0.00    +0.000 OA
ATOM      3  O   UNL     1       4.051   7.065  17.372  0.00  0.00    +0.000 OA
ENDROOT
BRANCH   1  13
ATOM      4  C   UNL     1       1.448   9.473  22.990  0.00  0.00    +0.000 C 
ATOM      5  C   UNL     1       0.418   9.510  21.868  0.00  0.00    +0.000 C 
ATOM      6  C   UNL     1      -0.741   8.541  22.102  0.00  0.00    +0.000 C 
ATOM      7  C   UNL     1      -0.123  10.948  21.658  0.00  0.00    +0.000 C 
ATOM      8  O   UNL     1      -0.687  11.646  22.479  0.00  0.00    +0.000 OA
ATOM      9  N   UNL     1       0.130  11.298  20.331  0.00  0.00    +0.000 N 
ATOM     10  C   UNL     1       0.797  10.288  19.654  0.00  0.00    +0.000 A 
ATOM     11  C   UNL     1       1.188  10.259  18.329  0.00  0.00    +0.000 A 
ATOM     12  C   UNL     1       1.840   9.102  17.873  0.00  0.00    +0.000 A 
ATOM     13  C   UNL     1       2.098   8.027  18.759  0.00  0.00    +0.000 A 
ATOM     14  C   UNL     1       1.694   8.085  20.094  0.00  0.00    +0.000 A 
ATOM     15  C   UNL     1       1.031   9.221  20.518  0.00  0.00    +0.000 A 
ATOM     16  H   UNL     1      -0.141  12.194  19.953  0.00  0.00    +0.000 HD
ENDBRANCH   1  13
BRANCH   1  17
ATOM     17  N   UNL     1       3.605   5.984  19.641  0.00  0.00    +0.000 N 
ATOM     18  H   UNL     1       3.205   6.436  20.450  0.00  0.00    +0.000 HD
BRANCH  17  19
ATOM     19  C   UNL     1       3.845   4.622  19.760  0.00  0.00    +0.000 A 
ATOM     20  C   UNL     1       2.997   3.717  20.354  0.00  0.00    +0.000 A 
ATOM     21  C   UNL     1       3.647   2.474  20.218  0.00  0.00    +0.000 A 
ATOM     22  N   UNL     1       4.833   2.583  19.617  0.00  0.00    +0.000 NA
ATOM     23  N   UNL     1       4.953   3.908  19.371  0.00  0.00    +0.000 N 
BRANCH  23  24
ATOM     24  C   UNL     1       6.208   4.414  18.845  0.00  0.00    +0.000 C 
BRANCH  24  25
ATOM     25  C   UNL     1       6.181   4.384  17.339  0.00  0.00    +0.000 A 
ATOM     26  C   UNL     1       7.250   4.899  16.603  0.00  0.00    +0.000 A 
ATOM     27  C   UNL     1       7.161   4.927  15.214  0.00  0.00    +0.000 A 
ATOM     28  C   UNL     1       6.022   4.430  14.596  0.00  0.00    +0.000 A 
ATOM     29  C   UNL     1       5.013   3.919  15.396  0.00  0.00    +0.000 A 
ATOM     30  N   UNL     1       5.055   3.896  16.750  0.00  0.00    +0.000 NA
ENDBRANCH  24  25
ENDBRANCH  23  24
ENDBRANCH  17  19
ENDBRANCH   1  17
TORSDOF 5
ENDMDL
MODEL 6
REMARK VINA RESULT:      -8.1      2.287      3.402
REMARK  Name = 
REMARK  7 active torsions:
REMARK  status: ('A' for Active; 'I' for Inactive)
REMARK    1  A    between atoms: C_1  and  C_2
REMARK    2  A    between atoms: C_2  and  C_3
REMARK    3  A    between atoms: C_10  and  S_11
REMARK    4  A    between atoms: S_11  and  N_14
REMARK    5  A    between atoms: N_14  and  C_15
REMARK    6  A    between atoms: N_19  and  C_20
REMARK    7  A    between atoms: C_20  and  C_21
REMARK                            x       y       z     vdW  Elec       q    Type
REMARK                         _______ _______ _______ _____ _____    ______ ____
ROOT
ATOM      1  S   UNL     1       2.677   6.890  18.755  0.00  0.00    +0.000 S 
ATOM      2  O   UNL     1       1.760   5.979  18.104  0.00  0.00    +0.000 OA
ATOM      3  O   UNL     1       3.615   7.678  17.983  0.00  0.00    +0.000 OA
ENDROOT
BRANCH   1  13
ATOM      4  C   UNL     1      -1.314  10.987  17.895  0.00  0.00    +0.000 C 
ATOM      5  C   UNL     1      -0.348  11.278  19.037  0.00  0.00    +0.000 C 
ATOM      6  C   UNL     1       0.739  12.278  18.646  0.00  0.00    +0.000 C 
ATOM      7  C   UNL     1      -1.108  11.780  20.292  0.00  0.00    +0.000 C 
ATOM      8  O   UNL     1      -1.824  12.760  20.373  0.00  0.00    +0.000 OA
ATOM      9  N   UNL     1      -0.799  10.912  21.339  0.00  0.00    +0.000 N 
ATOM     10  C   UNL     1       0.038   9.886  20.925  0.00  0.00    +0.000 A 
ATOM     11  C   UNL     1       0.576   8.862  21.679  0.00  0.00    +0.000 A 
ATOM     12  C   UNL     1       1.418   7.948  21.023  0.00  0.00    +0.000 A 
ATOM     13  C   UNL     1       1.673   8.078  19.636  0.00  0.00    +0.000 A 
ATOM     14  C   UNL     1       1.113   9.122  18.897  0.00  0.00    +0.000 A 
ATOM     15  C   UNL     1       0.309  10.025  19.565  0.00  0.00    +0.000 A 
ATOM     16  H   UNL     1      -1.173  11.039  22.269  0.00  0.00    +0.000 HD
ENDBRANCH   1  13
BRANCH   1  17
ATOM     17  N   UNL     1       3.444   6.084  19.969  0.00  0.00    +0.000 N 
ATOM     18  H   UNL     1       3.065   6.309  20.877  0.00  0.00    +0.000 HD
BRANCH  17  19
ATOM     19  C   UNL     1       3.819   4.762  19.775  0.00  0.00    +0.000 A 
ATOM     20  C   UNL     1       3.126   3.667  20.235  0.00  0.00    +0.000 A 
ATOM     21  C   UNL     1       3.866   2.557  19.783  0.00  0.00    +0.000 A 
ATOM     22  N   UNL     1       4.966   2.917  19.117  0.00  0.00    +0.000 NA
ATOM     23  N   UNL     1       4.938   4.269  19.149  0.00  0.00    +0.000 N 
BRANCH  23  24
ATOM     24  C   UNL     1       6.078   5.007  18.635  0.00  0.00    +0.000 C 
BRANCH  24  25
ATOM     25  C   UNL     1       6.126   4.893  17.133  0.00  0.00    +0.000 A 
ATOM     26  C   UNL     1       4.947   4.779  16.395  0.00  0.00    +0.000 A 
ATOM     27  C   UNL     1       5.027   4.597  15.017  0.00  0.00    +0.000 A 
ATOM     28  C   UNL     1       6.274   4.550  14.410  0.00  0.00    +0.000 A 
ATOM     29  C   UNL     1       7.397   4.689  15.210  0.00  0.00    +0.000 A 
ATOM     30  N   UNL     1       7.357   4.844  16.556  0.00  0.00    +0.000 NA
ENDBRANCH  24  25
ENDBRANCH  23  24
ENDBRANCH  17  19
ENDBRANCH   1  17
TORSDOF 5
ENDMDL
MODEL 7
REMARK VINA RESULT:      -8.0      2.507      8.843
REMARK  Name = 
REMARK  7 active torsions:
REMARK  status: ('A' for Active; 'I' for Inactive)
REMARK    1  A    between atoms: C_1  and  C_2
REMARK    2  A    between atoms: C_2  and  C_3
REMARK    3  A    between atoms: C_10  and  S_11
REMARK    4  A    between atoms: S_11  and  N_14
REMARK    5  A    between atoms: N_14  and  C_15
REMARK    6  A    between atoms: N_19  and  C_20
REMARK    7  A    between atoms: C_20  and  C_21
REMARK                            x       y       z     vdW  Elec       q    Type
REMARK                         _______ _______ _______ _____ _____    ______ ____
ROOT
ATOM      1  S   UNL     1       2.028   5.237  20.531  0.00  0.00    +0.000 S 
ATOM      2  O   UNL     1       0.666   5.229  20.042  0.00  0.00    +0.000 OA
ATOM      3  O   UNL     1       2.424   4.397  21.643  0.00  0.00    +0.000 OA
ENDROOT
BRANCH   1  13
ATOM      4  C   UNL     1       7.504   5.399  18.678  0.00  0.00    +0.000 C 
ATOM      5  C   UNL     1       6.461   5.502  17.571  0.00  0.00    +0.000 C 
ATOM      6  C   UNL     1       6.268   6.935  17.077  0.00  0.00    +0.000 C 
ATOM      7  C   UNL     1       6.818   4.571  16.384  0.00  0.00    +0.000 C 
ATOM      8  O   UNL     1       7.833   4.595  15.714  0.00  0.00    +0.000 OA
ATOM      9  N   UNL     1       5.741   3.704  16.196  0.00  0.00    +0.000 N 
ATOM     10  C   UNL     1       4.739   3.924  17.129  0.00  0.00    +0.000 A 
ATOM     11  C   UNL     1       3.519   3.286  17.241  0.00  0.00    +0.000 A 
ATOM     12  C   UNL     1       2.661   3.707  18.272  0.00  0.00    +0.000 A 
ATOM     13  C   UNL     1       3.062   4.731  19.164  0.00  0.00    +0.000 A 
ATOM     14  C   UNL     1       4.303   5.357  19.029  0.00  0.00    +0.000 A 
ATOM     15  C   UNL     1       5.121   4.947  17.994  0.00  0.00    +0.000 A 
ATOM     16  H   UNL     1       5.738   3.004  15.469  0.00  0.00    +0.000 HD
ENDBRANCH   1  13
BRANCH   1  17
ATOM     17  N   UNL     1       2.486   6.799  20.782  0.00  0.00    +0.000 N 
ATOM     18  H   UNL     1       3.487   6.894  20.873  0.00  0.00    +0.000 HD
BRANCH  17  19
ATOM     19  C   UNL     1       1.837   7.815  20.094  0.00  0.00    +0.000 A 
ATOM     20  C   UNL     1       2.029   8.121  18.767  0.00  0.00    +0.000 A 
ATOM     21  C   UNL     1       1.151   9.193  18.514  0.00  0.00    +0.000 A 
ATOM     22  N   UNL     1       0.477   9.566  19.605  0.00  0.00    +0.000 NA
ATOM     23  N   UNL     1       0.932   8.733  20.569  0.00  0.00    +0.000 N 
BRANCH  23  24
ATOM     24  C   UNL     1       0.513   8.953  21.941  0.00  0.00    +0.000 C 
BRANCH  24  25
ATOM     25  C   UNL     1       0.087  10.387  22.122  0.00  0.00    +0.000 A 
ATOM     26  C   UNL     1      -1.056  10.697  22.861  0.00  0.00    +0.000 A 
ATOM     27  C   UNL     1      -1.466  12.024  22.946  0.00  0.00    +0.000 A 
ATOM     28  C   UNL     1      -0.722  13.007  22.308  0.00  0.00    +0.000 A 
ATOM     29  C   UNL     1       0.410  12.621  21.610  0.00  0.00    +0.000 A 
ATOM     30  N   UNL     1       0.827  11.337  21.487  0.00  0.00    +0.000 NA
ENDBRANCH  24  25
ENDBRANCH  23  24
ENDBRANCH  17  19
ENDBRANCH   1  17
TORSDOF 5
ENDMDL
MODEL 8
REMARK VINA RESULT:      -8.0      2.503      3.679
REMARK  Name = 
REMARK  7 active torsions:
REMARK  status: ('A' for Active; 'I' for Inactive)
REMARK    1  A    between atoms: C_1  and  C_2
REMARK    2  A    between atoms: C_2  and  C_3
REMARK    3  A    between atoms: C_10  and  S_11
REMARK    4  A    between atoms: S_11  and  N_14
REMARK    5  A    between atoms: N_14  and  C_15
REMARK    6  A    between atoms: N_19  and  C_20
REMARK    7  A    between atoms: C_20  and  C_21
REMARK                            x       y       z     vdW  Elec       q    Type
REMARK                         _______ _______ _______ _____ _____    ______ ____
ROOT
ATOM      1  S   UNL     1       2.800   6.748  18.145  0.00  0.00    +0.000 S 
ATOM      2  O   UNL     1       1.757   5.826  17.750  0.00  0.00    +0.000 OA
ATOM      3  O   UNL     1       3.749   7.257  17.176  0.00  0.00    +0.000 OA
ENDROOT
BRANCH   1  13
ATOM      4  C   UNL     1       1.547   9.369  23.146  0.00  0.00    +0.000 C 
ATOM      5  C   UNL     1       0.475   9.515  22.072  0.00  0.00    +0.000 C 
ATOM      6  C   UNL     1      -0.707   8.571  22.289  0.00  0.00    +0.000 C 
ATOM      7  C   UNL     1      -0.023  10.981  21.981  0.00  0.00    +0.000 C 
ATOM      8  O   UNL     1      -0.529  11.640  22.869  0.00  0.00    +0.000 OA
ATOM      9  N   UNL     1       0.191  11.411  20.671  0.00  0.00    +0.000 N 
ATOM     10  C   UNL     1       0.794  10.429  19.901  0.00  0.00    +0.000 A 
ATOM     11  C   UNL     1       1.131  10.476  18.562  0.00  0.00    +0.000 A 
ATOM     12  C   UNL     1       1.725   9.331  18.003  0.00  0.00    +0.000 A 
ATOM     13  C   UNL     1       1.978   8.192  18.805  0.00  0.00    +0.000 A 
ATOM     14  C   UNL     1       1.630   8.172  20.157  0.00  0.00    +0.000 A 
ATOM     15  C   UNL     1       1.024   9.298  20.682  0.00  0.00    +0.000 A 
ATOM     16  H   UNL     1      -0.063  12.339  20.364  0.00  0.00    +0.000 HD
ENDBRANCH   1  13
BRANCH   1  17
ATOM     17  N   UNL     1       3.575   6.132  19.460  0.00  0.00    +0.000 N 
ATOM     18  H   UNL     1       3.569   6.770  20.242  0.00  0.00    +0.000 HD
BRANCH  17  19
ATOM     19  C   UNL     1       3.422   4.787  19.769  0.00  0.00    +0.000 A 
ATOM     20  C   UNL     1       2.726   4.297  20.849  0.00  0.00    +0.000 A 
ATOM     21  C   UNL     1       2.829   2.896  20.737  0.00  0.00    +0.000 A 
ATOM     22  N   UNL     1       3.563   2.523  19.687  0.00  0.00    +0.000 NA
ATOM     23  N   UNL     1       3.944   3.692  19.123  0.00  0.00    +0.000 N 
BRANCH  23  24
ATOM     24  C   UNL     1       4.891   3.666  18.023  0.00  0.00    +0.000 C 
BRANCH  24  25
ATOM     25  C   UNL     1       5.954   4.712  18.237  0.00  0.00    +0.000 A 
ATOM     26  C   UNL     1       6.347   5.545  17.188  0.00  0.00    +0.000 A 
ATOM     27  C   UNL     1       7.384   6.450  17.396  0.00  0.00    +0.000 A 
ATOM     28  C   UNL     1       7.990   6.512  18.643  0.00  0.00    +0.000 A 
ATOM     29  C   UNL     1       7.530   5.665  19.638  0.00  0.00    +0.000 A 
ATOM     30  N   UNL     1       6.539   4.757  19.465  0.00  0.00    +0.000 NA
ENDBRANCH  24  25
ENDBRANCH  23  24
ENDBRANCH  17  19
ENDBRANCH   1  17
TORSDOF 5
ENDMDL
MODEL 9
REMARK VINA RESULT:      -7.9      2.341      3.693
REMARK  Name = 
REMARK  7 active torsions:
REMARK  status: ('A' for Active; 'I' for Inactive)
REMARK    1  A    between atoms: C_1  and  C_2
REMARK    2  A    between atoms: C_2  and  C_3
REMARK    3  A    between atoms: C_10  and  S_11
REMARK    4  A    between atoms: S_11  and  N_14
REMARK    5  A    between atoms: N_14  and  C_15
REMARK    6  A    between atoms: N_19  and  C_20
REMARK    7  A    between atoms: C_20  and  C_21
REMARK                            x       y       z     vdW  Elec       q    Type
REMARK                         _______ _______ _______ _____ _____    ______ ____
ROOT
ATOM      1  S   UNL     1       3.222   6.558  18.316  0.00  0.00    +0.000 S 
ATOM      2  O   UNL     1       3.925   6.933  17.107  0.00  0.00    +0.000 OA
ATOM      3  O   UNL     1       3.946   6.228  19.526  0.00  0.00    +0.000 OA
ENDROOT
BRANCH   1  13
ATOM      4  C   UNL     1       1.356   9.582  22.879  0.00  0.00    +0.000 C 
ATOM      5  C   UNL     1       0.336   9.446  21.753  0.00  0.00    +0.000 C 
ATOM      6  C   UNL     1      -0.722   8.383  22.045  0.00  0.00    +0.000 C 
ATOM      7  C   UNL     1      -0.343  10.807  21.452  0.00  0.00    +0.000 C 
ATOM      8  O   UNL     1      -0.981  11.495  22.226  0.00  0.00    +0.000 OA
ATOM      9  N   UNL     1      -0.114  11.097  20.107  0.00  0.00    +0.000 N 
ATOM     10  C   UNL     1       0.656  10.118  19.496  0.00  0.00    +0.000 A 
ATOM     11  C   UNL     1       1.060  10.045  18.177  0.00  0.00    +0.000 A 
ATOM     12  C   UNL     1       1.828   8.932  17.796  0.00  0.00    +0.000 A 
ATOM     13  C   UNL     1       2.183   7.947  18.749  0.00  0.00    +0.000 A 
ATOM     14  C   UNL     1       1.764   8.047  20.077  0.00  0.00    +0.000 A 
ATOM     15  C   UNL     1       0.987   9.136  20.426  0.00  0.00    +0.000 A 
ATOM     16  H   UNL     1      -0.469  11.936  19.672  0.00  0.00    +0.000 HD
ENDBRANCH   1  13
BRANCH   1  17
ATOM     17  N   UNL     1       2.130   5.383  17.944  0.00  0.00    +0.000 N 
ATOM     18  H   UNL     1       2.133   5.154  16.961  0.00  0.00    +0.000 HD
BRANCH  17  19
ATOM     19  C   UNL     1       1.957   4.318  18.818  0.00  0.00    +0.000 A 
ATOM     20  C   UNL     1       1.305   4.383  20.026  0.00  0.00    +0.000 A 
ATOM     21  C   UNL     1       1.363   3.072  20.538  0.00  0.00    +0.000 A 
ATOM     22  N   UNL     1       2.031   2.242  19.734  0.00  0.00    +0.000 NA
ATOM     23  N   UNL     1       2.415   3.027  18.701  0.00  0.00    +0.000 N 
BRANCH  23  24
ATOM     24  C   UNL     1       3.302   2.477  17.692  0.00  0.00    +0.000 C 
BRANCH  24  25
ATOM     25  C   UNL     1       4.549   3.317  17.595  0.00  0.00    +0.000 A 
ATOM     26  C   UNL     1       4.997   3.776  16.355  0.00  0.00    +0.000 A 
ATOM     27  C   UNL     1       6.193   4.485  16.289  0.00  0.00    +0.000 A 
ATOM     28  C   UNL     1       6.902   4.730  17.457  0.00  0.00    +0.000 A 
ATOM     29  C   UNL     1       6.382   4.257  18.650  0.00  0.00    +0.000 A 
ATOM     30  N   UNL     1       5.233   3.546  18.749  0.00  0.00    +0.000 NA
ENDBRANCH  24  25
ENDBRANCH  23  24
ENDBRANCH  17  19
ENDBRANCH   1  17
TORSDOF 5
ENDMDL
