MODEL 1
REMARK VINA RESULT:      -9.0      0.000      0.000
REMARK  Name = 
REMARK  7 active torsions:
REMARK  status: ('A' for Active; 'I' for Inactive)
REMARK    1  A    between atoms: C_1  and  C_2
REMARK    2  A    between atoms: C_6  and  C_7
REMARK    3  A    between atoms: N_13  and  C_14
REMARK    4  A    between atoms: C_18  and  C_19
REMARK    5  A    between atoms: C_19  and  C_20
REMARK    6  A    between atoms: C_20  and  C_22
REMARK    7  A    between atoms: N_26  and  C_27
REMARK                            x       y       z     vdW  Elec       q    Type
REMARK                         _______ _______ _______ _____ _____    ______ ____
ROOT
ATOM      1  C   UNL     1      -1.440  13.019  19.337  0.00  0.00    +0.000 C 
ATOM      2  C   UNL     1      -0.694  11.763  19.669  0.00  0.00    +0.000 A 
ATOM      3  C   UNL     1       0.128  11.172  18.717  0.00  0.00    +0.000 A 
ATOM      4  C   UNL     1       0.799  10.017  19.072  0.00  0.00    +0.000 A 
ATOM      5  C   UNL     1       0.685   9.393  20.308  0.00  0.00    +0.000 A 
ATOM      6  C   UNL     1      -0.108   9.977  21.291  0.00  0.00    +0.000 A 
ATOM      7  C   UNL     1      -0.794  11.171  20.950  0.00  0.00    +0.000 A 
ATOM      8  C   UNL     1       1.494   8.123  20.285  0.00  0.00    +0.000 C 
ATOM      9  N   UNL     1       2.137   8.159  18.975  0.00  0.00    +0.000 N 
ATOM     10  C   UNL     1       1.714   9.263  18.233  0.00  0.00    +0.000 C 
ATOM     11  O   UNL     1       1.958   9.612  17.089  0.00  0.00    +0.000 OA
ENDROOT
BRANCH   9  12
ATOM     12  C   UNL     1       2.915   7.105  18.424  0.00  0.00    +0.000 A 
ATOM     13  C   UNL     1       4.143   7.391  17.808  0.00  0.00    +0.000 A 
ATOM     14  C   UNL     1       4.844   6.421  17.099  0.00  0.00    +0.000 A 
ATOM     15  C   UNL     1       4.321   5.139  16.993  0.00  0.00    +0.000 A 
ATOM     16  C   UNL     1       3.120   4.794  17.638  0.00  0.00    +0.000 A 
ATOM     17  C   UNL     1       2.446   5.783  18.384  0.00  0.00    +0.000 A 
BRANCH  16  18
ATOM     18  C   UNL     1       2.511   3.440  17.316  0.00  0.00    +0.000 C 
BRANCH  18  19
ATOM     19  C   UNL     1       2.815   2.250  18.227  0.00  0.00    +0.000 C 
ATOM     20  O   UNL     1       3.357   1.220  17.829  0.00  0.00    +0.000 OA
BRANCH  19  21
ATOM     21  C   UNL     1       2.413   2.429  19.610  0.00  0.00    +0.000 A 
ATOM     22  N   UNL     1       1.173   2.683  19.988  0.00  0.00    +0.000 NA
ATOM     23  N   UNL     1       1.160   2.850  21.353  0.00  0.00    +0.000 NA
ATOM     24  C   UNL     1       2.388   2.689  21.783  0.00  0.00    +0.000 A 
ATOM     25  N   UNL     1       3.203   2.397  20.732  0.00  0.00    +0.000 N 
ATOM     26  C   UNL     1       4.615   2.139  20.812  0.00  0.00    +0.000 C 
ENDBRANCH  19  21
ENDBRANCH  18  19
ENDBRANCH  16  18
ENDBRANCH   9  12
BRANCH   6  27
ATOM     27  C   UNL     1      -0.249   9.414  22.680  0.00  0.00    +0.000 C 
ATOM     28  F   UNL     1       0.933   9.286  23.340  0.00  0.00    +0.000 F 
ATOM     29  F   UNL     1      -1.038  10.189  23.472  0.00  0.00    +0.000 F 
ATOM     30  F   UNL     1      -0.815   8.176  22.684  0.00  0.00    +0.000 F 
ENDBRANCH   6  27
TORSDOF 5
ENDMDL
MODEL 2
REMARK VINA RESULT:      -9.0      2.455      3.736
REMARK  Name = 
REMARK  7 active torsions:
REMARK  status: ('A' for Active; 'I' for Inactive)
REMARK    1  A    between atoms: C_1  and  C_2
REMARK    2  A    between atoms: C_6  and  C_7
REMARK    3  A    between atoms: N_13  and  C_14
REMARK    4  A    between atoms: C_18  and  C_19
REMARK    5  A    between atoms: C_19  and  C_20
REMARK    6  A    between atoms: C_20  and  C_22
REMARK    7  A    between atoms: N_26  and  C_27
REMARK                            x       y       z     vdW  Elec       q    Type
REMARK                         _______ _______ _______ _____ _____    ______ ____
ROOT
ATOM      1  C   UNL     1      -1.194  13.030  19.380  0.00  0.00    +0.000 C 
ATOM      2  C   UNL     1      -0.515  11.747  19.748  0.00  0.00    +0.000 A 
ATOM      3  C   UNL     1       0.240  11.065  18.801  0.00  0.00    +0.000 A 
ATOM      4  C   UNL     1       0.851   9.888  19.190  0.00  0.00    +0.000 A 
ATOM      5  C   UNL     1       0.739   9.327  20.457  0.00  0.00    +0.000 A 
ATOM      6  C   UNL     1       0.014  10.002  21.434  0.00  0.00    +0.000 A 
ATOM      7  C   UNL     1      -0.610  11.220  21.058  0.00  0.00    +0.000 A 
ATOM      8  C   UNL     1       1.469   8.010  20.470  0.00  0.00    +0.000 C 
ATOM      9  N   UNL     1       2.071   7.949  19.141  0.00  0.00    +0.000 N 
ATOM     10  C   UNL     1       1.693   9.042  18.361  0.00  0.00    +0.000 C 
ATOM     11  O   UNL     1       1.920   9.324  17.196  0.00  0.00    +0.000 OA
ENDROOT
BRANCH   9  12
ATOM     12  C   UNL     1       2.767   6.825  18.618  0.00  0.00    +0.000 A 
ATOM     13  C   UNL     1       2.777   5.616  19.329  0.00  0.00    +0.000 A 
ATOM     14  C   UNL     1       3.591   4.554  18.947  0.00  0.00    +0.000 A 
ATOM     15  C   UNL     1       4.417   4.690  17.839  0.00  0.00    +0.000 A 
ATOM     16  C   UNL     1       4.402   5.865  17.066  0.00  0.00    +0.000 A 
ATOM     17  C   UNL     1       3.539   6.913  17.449  0.00  0.00    +0.000 A 
BRANCH  16  18
ATOM     18  C   UNL     1       5.469   6.018  15.996  0.00  0.00    +0.000 C 
BRANCH  18  19
ATOM     19  C   UNL     1       6.839   5.374  16.212  0.00  0.00    +0.000 C 
ATOM     20  O   UNL     1       7.428   4.738  15.340  0.00  0.00    +0.000 OA
BRANCH  19  21
ATOM     21  C   UNL     1       7.399   5.575  17.536  0.00  0.00    +0.000 A 
ATOM     22  N   UNL     1       7.640   4.595  18.389  0.00  0.00    +0.000 NA
ATOM     23  N   UNL     1       8.112   5.142  19.559  0.00  0.00    +0.000 NA
ATOM     24  C   UNL     1       8.157   6.442  19.397  0.00  0.00    +0.000 A 
ATOM     25  N   UNL     1       7.746   6.759  18.138  0.00  0.00    +0.000 N 
ATOM     26  C   UNL     1       7.675   8.085  17.587  0.00  0.00    +0.000 C 
ENDBRANCH  19  21
ENDBRANCH  18  19
ENDBRANCH  16  18
ENDBRANCH   9  12
BRANCH   6  27
ATOM     27  C   UNL     1      -0.117   9.512  22.851  0.00  0.00    +0.000 C 
ATOM     28  F   UNL     1      -0.839  10.341  23.652  0.00  0.00    +0.000 F 
ATOM     29  F   UNL     1      -0.728   8.298  22.922  0.00  0.00    +0.000 F 
ATOM     30  F   UNL     1       1.090   9.361  23.462  0.00  0.00    +0.000 F 
ENDBRANCH   6  27
TORSDOF 5
ENDMDL
MODEL 3
REMARK VINA RESULT:      -8.8      2.900      4.130
REMARK  Name = 
REMARK  7 active torsions:
REMARK  status: ('A' for Active; 'I' for Inactive)
REMARK    1  A    between atoms: C_1  and  C_2
REMARK    2  A    between atoms: C_6  and  C_7
REMARK    3  A    between atoms: N_13  and  C_14
REMARK    4  A    between atoms: C_18  and  C_19
REMARK    5  A    between atoms: C_19  and  C_20
REMARK    6  A    between atoms: C_20  and  C_22
REMARK    7  A    between atoms: N_26  and  C_27
REMARK                            x       y       z     vdW  Elec       q    Type
REMARK                         _______ _______ _______ _____ _____    ______ ____
ROOT
ATOM      1  C   UNL     1      -1.607  12.638  18.866  0.00  0.00    +0.000 C 
ATOM      2  C   UNL     1      -0.832  11.481  19.418  0.00  0.00    +0.000 A 
ATOM      3  C   UNL     1       0.052  10.786  18.600  0.00  0.00    +0.000 A 
ATOM      4  C   UNL     1       0.747   9.729  19.156  0.00  0.00    +0.000 A 
ATOM      5  C   UNL     1       0.602   9.299  20.470  0.00  0.00    +0.000 A 
ATOM      6  C   UNL     1      -0.253   9.994  21.320  0.00  0.00    +0.000 A 
ATOM      7  C   UNL     1      -0.966  11.091  20.771  0.00  0.00    +0.000 A 
ATOM      8  C   UNL     1       1.456   8.075  20.676  0.00  0.00    +0.000 C 
ATOM      9  N   UNL     1       2.154   7.936  19.401  0.00  0.00    +0.000 N 
ATOM     10  C   UNL     1       1.724   8.893  18.480  0.00  0.00    +0.000 C 
ATOM     11  O   UNL     1       2.004   9.070  17.305  0.00  0.00    +0.000 OA
ENDROOT
BRANCH   9  12
ATOM     12  C   UNL     1       2.992   6.843  19.051  0.00  0.00    +0.000 A 
ATOM     13  C   UNL     1       2.679   5.551  19.498  0.00  0.00    +0.000 A 
ATOM     14  C   UNL     1       3.564   4.490  19.334  0.00  0.00    +0.000 A 
ATOM     15  C   UNL     1       4.789   4.710  18.717  0.00  0.00    +0.000 A 
ATOM     16  C   UNL     1       5.123   5.977  18.207  0.00  0.00    +0.000 A 
ATOM     17  C   UNL     1       4.193   7.028  18.349  0.00  0.00    +0.000 A 
BRANCH  16  18
ATOM     18  C   UNL     1       6.549   6.190  17.728  0.00  0.00    +0.000 C 
BRANCH  18  19
ATOM     19  C   UNL     1       7.313   5.014  17.117  0.00  0.00    +0.000 C 
ATOM     20  O   UNL     1       8.056   4.283  17.771  0.00  0.00    +0.000 OA
BRANCH  19  21
ATOM     21  C   UNL     1       7.092   4.823  15.696  0.00  0.00    +0.000 A 
ATOM     22  N   UNL     1       7.744   5.483  14.755  0.00  0.00    +0.000 NA
ATOM     23  N   UNL     1       7.248   5.098  13.531  0.00  0.00    +0.000 NA
ATOM     24  C   UNL     1       6.311   4.208  13.745  0.00  0.00    +0.000 A 
ATOM     25  N   UNL     1       6.195   3.983  15.083  0.00  0.00    +0.000 N 
ATOM     26  C   UNL     1       5.283   3.060  15.704  0.00  0.00    +0.000 C 
ENDBRANCH  19  21
ENDBRANCH  18  19
ENDBRANCH  16  18
ENDBRANCH   9  12
BRANCH   6  27
ATOM     27  C   UNL     1      -0.434   9.647  22.773  0.00  0.00    +0.000 C 
ATOM     28  F   UNL     1      -1.188  10.547  23.460  0.00  0.00    +0.000 F 
ATOM     29  F   UNL     1      -1.042   8.442  22.944  0.00  0.00    +0.000 F 
ATOM     30  F   UNL     1       0.750   9.567  23.439  0.00  0.00    +0.000 F 
ENDBRANCH   6  27
TORSDOF 5
ENDMDL
MODEL 4
REMARK VINA RESULT:      -8.6      2.196      2.959
REMARK  Name = 
REMARK  7 active torsions:
REMARK  status: ('A' for Active; 'I' for Inactive)
REMARK    1  A    between atoms: C_1  and  C_2
REMARK    2  A    between atoms: C_6  and  C_7
REMARK    3  A    between atoms: N_13  and  C_14
REMARK    4  A    between atoms: C_18  and  C_19
REMARK    5  A    between atoms: C_19  and  C_20
REMARK    6  A    between atoms: C_20  and  C_22
REMARK    7  A    between atoms: N_26  and  C_27
REMARK                            x       y       z     vdW  Elec       q    Type
REMARK                         _______ _______ _______ _____ _____    ______ ____
ROOT
ATOM      1  C   UNL     1      -0.829  10.304  23.394  0.00  0.00    +0.000 C 
ATOM      2  C   UNL     1      -0.152  10.019  22.089  0.00  0.00    +0.000 A 
ATOM      3  C   UNL     1       0.457   8.787  21.878  0.00  0.00    +0.000 A 
ATOM      4  C   UNL     1       1.065   8.569  20.657  0.00  0.00    +0.000 A 
ATOM      5  C   UNL     1       1.131   9.509  19.635  0.00  0.00    +0.000 A 
ATOM      6  C   UNL     1       0.505  10.740  19.805  0.00  0.00    +0.000 A 
ATOM      7  C   UNL     1      -0.138  10.977  21.048  0.00  0.00    +0.000 A 
ATOM      8  C   UNL     1       1.943   8.937  18.503  0.00  0.00    +0.000 C 
ATOM      9  N   UNL     1       2.227   7.576  18.949  0.00  0.00    +0.000 N 
ATOM     10  C   UNL     1       1.736   7.351  20.236  0.00  0.00    +0.000 C 
ATOM     11  O   UNL     1       1.823   6.387  20.980  0.00  0.00    +0.000 OA
ENDROOT
BRANCH   9  12
ATOM     12  C   UNL     1       3.082   6.663  18.274  0.00  0.00    +0.000 A 
ATOM     13  C   UNL     1       4.102   7.146  17.440  0.00  0.00    +0.000 A 
ATOM     14  C   UNL     1       4.838   6.294  16.623  0.00  0.00    +0.000 A 
ATOM     15  C   UNL     1       4.559   4.933  16.625  0.00  0.00    +0.000 A 
ATOM     16  C   UNL     1       3.581   4.398  17.483  0.00  0.00    +0.000 A 
ATOM     17  C   UNL     1       2.874   5.276  18.332  0.00  0.00    +0.000 A 
BRANCH  16  18
ATOM     18  C   UNL     1       3.194   2.942  17.289  0.00  0.00    +0.000 C 
BRANCH  18  19
ATOM     19  C   UNL     1       3.450   1.946  18.420  0.00  0.00    +0.000 C 
ATOM     20  O   UNL     1       4.110   0.919  18.275  0.00  0.00    +0.000 OA
BRANCH  19  21
ATOM     21  C   UNL     1       2.851   2.309  19.692  0.00  0.00    +0.000 A 
ATOM     22  N   UNL     1       3.540   2.479  20.807  0.00  0.00    +0.000 NA
ATOM     23  N   UNL     1       2.658   2.759  21.824  0.00  0.00    +0.000 NA
ATOM     24  C   UNL     1       1.451   2.762  21.313  0.00  0.00    +0.000 A 
ATOM     25  N   UNL     1       1.524   2.511  19.976  0.00  0.00    +0.000 N 
ATOM     26  C   UNL     1       0.407   2.450  19.072  0.00  0.00    +0.000 C 
ENDBRANCH  19  21
ENDBRANCH  18  19
ENDBRANCH  16  18
ENDBRANCH   9  12
BRANCH   6  27
ATOM     27  C   UNL     1       0.465  11.800  18.738  0.00  0.00    +0.000 C 
ATOM     28  F   UNL     1      -0.416  11.534  17.736  0.00  0.00    +0.000 F 
ATOM     29  F   UNL     1       0.111  13.017  19.233  0.00  0.00    +0.000 F 
ATOM     30  F   UNL     1       1.672  11.977  18.136  0.00  0.00    +0.000 F 
ENDBRANCH   6  27
TORSDOF 5
ENDMDL
MODEL 5
REMARK VINA RESULT:      -8.5      2.933      4.207
REMARK  Name = 
REMARK  7 active torsions:
REMARK  status: ('A' for Active; 'I' for Inactive)
REMARK    1  A    between atoms: C_1  and  C_2
REMARK    2  A    between atoms: C_6  and  C_7
REMARK    3  A    between atoms: N_13  and  C_14
REMARK    4  A    between atoms: C_18  and  C_19
REMARK    5  A    between atoms: C_19  and  C_20
REMARK    6  A    between atoms: C_20  and  C_22
REMARK    7  A    between atoms: N_26  and  C_27
REMARK                            x       y       z     vdW  Elec       q    Type
REMARK                         _______ _______ _______ _____ _____    ______ ____
ROOT
ATOM      1  C   UNL     1      -0.913  12.527  18.558  0.00  0.00    +0.000 C 
ATOM      2  C   UNL     1      -0.312  11.329  19.226  0.00  0.00    +0.000 A 
ATOM      3  C   UNL     1       0.532  10.487  18.512  0.00  0.00    +0.000 A 
ATOM      4  C   UNL     1       1.065   9.397  19.173  0.00  0.00    +0.000 A 
ATOM      5  C   UNL     1       0.793   9.072  20.496  0.00  0.00    +0.000 A 
ATOM      6  C   UNL     1      -0.026   9.913  21.245  0.00  0.00    +0.000 A 
ATOM      7  C   UNL     1      -0.572  11.045  20.587  0.00  0.00    +0.000 A 
ATOM      8  C   UNL     1       1.486   7.777  20.829  0.00  0.00    +0.000 C 
ATOM      9  N   UNL     1       2.237   7.478  19.614  0.00  0.00    +0.000 N 
ATOM     10  C   UNL     1       1.978   8.415  18.613  0.00  0.00    +0.000 C 
ATOM     11  O   UNL     1       2.347   8.483  17.452  0.00  0.00    +0.000 OA
ENDROOT
BRANCH   9  12
ATOM     12  C   UNL     1       2.963   6.277  19.385  0.00  0.00    +0.000 A 
ATOM     13  C   UNL     1       2.544   5.082  19.986  0.00  0.00    +0.000 A 
ATOM     14  C   UNL     1       3.323   3.930  19.937  0.00  0.00    +0.000 A 
ATOM     15  C   UNL     1       4.547   3.960  19.282  0.00  0.00    +0.000 A 
ATOM     16  C   UNL     1       4.983   5.122  18.620  0.00  0.00    +0.000 A 
ATOM     17  C   UNL     1       4.158   6.266  18.649  0.00  0.00    +0.000 A 
BRANCH  16  18
ATOM     18  C   UNL     1       6.410   5.142  18.099  0.00  0.00    +0.000 C 
BRANCH  18  19
ATOM     19  C   UNL     1       6.755   6.035  16.906  0.00  0.00    +0.000 C 
ATOM     20  O   UNL     1       6.987   7.238  17.011  0.00  0.00    +0.000 OA
BRANCH  19  21
ATOM     21  C   UNL     1       6.792   5.348  15.628  0.00  0.00    +0.000 A 
ATOM     22  N   UNL     1       7.751   5.509  14.734  0.00  0.00    +0.000 NA
ATOM     23  N   UNL     1       7.443   4.756  13.625  0.00  0.00    +0.000 NA
ATOM     24  C   UNL     1       6.307   4.147  13.863  0.00  0.00    +0.000 A 
ATOM     25  N   UNL     1       5.875   4.465  15.114  0.00  0.00    +0.000 N 
ATOM     26  C   UNL     1       4.674   3.976  15.737  0.00  0.00    +0.000 C 
ENDBRANCH  19  21
ENDBRANCH  18  19
ENDBRANCH  16  18
ENDBRANCH   9  12
BRANCH   6  27
ATOM     27  C   UNL     1      -0.332   9.684  22.701  0.00  0.00    +0.000 C 
ATOM     28  F   UNL     1       0.775   9.602  23.486  0.00  0.00    +0.000 F 
ATOM     29  F   UNL     1      -1.093  10.680  23.230  0.00  0.00    +0.000 F 
ATOM     30  F   UNL     1      -1.024   8.531  22.911  0.00  0.00    +0.000 F 
ENDBRANCH   6  27
TORSDOF 5
ENDMDL
MODEL 6
REMARK VINA RESULT:      -8.4      3.312      7.991
REMARK  Name = 
REMARK  7 active torsions:
REMARK  status: ('A' for Active; 'I' for Inactive)
REMARK    1  A    between atoms: C_1  and  C_2
REMARK    2  A    between atoms: C_6  and  C_7
REMARK    3  A    between atoms: N_13  and  C_14
REMARK    4  A    between atoms: C_18  and  C_19
REMARK    5  A    between atoms: C_19  and  C_20
REMARK    6  A    between atoms: C_20  and  C_22
REMARK    7  A    between atoms: N_26  and  C_27
REMARK                            x       y       z     vdW  Elec       q    Type
REMARK                         _______ _______ _______ _____ _____    ______ ____
ROOT
ATOM      1  C   UNL     1       4.763   5.215  16.425  0.00  0.00    +0.000 C 
ATOM      2  C   UNL     1       3.868   5.538  17.583  0.00  0.00    +0.000 A 
ATOM      3  C   UNL     1       3.403   6.836  17.759  0.00  0.00    +0.000 A 
ATOM      4  C   UNL     1       2.577   7.083  18.839  0.00  0.00    +0.000 A 
ATOM      5  C   UNL     1       2.201   6.127  19.774  0.00  0.00    +0.000 A 
ATOM      6  C   UNL     1       2.626   4.812  19.607  0.00  0.00    +0.000 A 
ATOM      7  C   UNL     1       3.465   4.535  18.496  0.00  0.00    +0.000 A 
ATOM      8  C   UNL     1       1.373   6.793  20.841  0.00  0.00    +0.000 C 
ATOM      9  N   UNL     1       1.244   8.165  20.358  0.00  0.00    +0.000 N 
ATOM     10  C   UNL     1       1.974   8.359  19.185  0.00  0.00    +0.000 C 
ATOM     11  O   UNL     1       2.179   9.359  18.514  0.00  0.00    +0.000 OA
ENDROOT
BRANCH   9  12
ATOM     12  C   UNL     1       0.648   9.229  21.087  0.00  0.00    +0.000 A 
ATOM     13  C   UNL     1       0.344   9.060  22.446  0.00  0.00    +0.000 A 
ATOM     14  C   UNL     1      -0.402  10.002  23.147  0.00  0.00    +0.000 A 
ATOM     15  C   UNL     1      -0.862  11.137  22.491  0.00  0.00    +0.000 A 
ATOM     16  C   UNL     1      -0.537  11.372  21.143  0.00  0.00    +0.000 A 
ATOM     17  C   UNL     1       0.254  10.422  20.463  0.00  0.00    +0.000 A 
BRANCH  16  18
ATOM     18  C   UNL     1      -1.236  12.524  20.441  0.00  0.00    +0.000 C 
BRANCH  18  19
ATOM     19  C   UNL     1      -1.423  12.468  18.924  0.00  0.00    +0.000 C 
ATOM     20  O   UNL     1      -0.668  13.030  18.132  0.00  0.00    +0.000 OA
BRANCH  19  21
ATOM     21  C   UNL     1      -2.569  11.693  18.485  0.00  0.00    +0.000 A 
ATOM     22  N   UNL     1      -3.821  12.015  18.753  0.00  0.00    +0.000 NA
ATOM     23  N   UNL     1      -4.642  11.039  18.238  0.00  0.00    +0.000 NA
ATOM     24  C   UNL     1      -3.878  10.144  17.661  0.00  0.00    +0.000 A 
ATOM     25  N   UNL     1      -2.575  10.523  17.766  0.00  0.00    +0.000 N 
ATOM     26  C   UNL     1      -1.446   9.803  17.240  0.00  0.00    +0.000 C 
ENDBRANCH  19  21
ENDBRANCH  18  19
ENDBRANCH  16  18
ENDBRANCH   9  12
BRANCH   6  27
ATOM     27  C   UNL     1       2.225   3.692  20.528  0.00  0.00    +0.000 C 
ATOM     28  F   UNL     1       0.895   3.407  20.494  0.00  0.00    +0.000 F 
ATOM     29  F   UNL     1       2.864   2.528  20.232  0.00  0.00    +0.000 F 
ATOM     30  F   UNL     1       2.517   3.959  21.830  0.00  0.00    +0.000 F 
ENDBRANCH   6  27
TORSDOF 5
ENDMDL
MODEL 7
REMARK VINA RESULT:      -8.3      2.348      3.762
REMARK  Name = 
REMARK  7 active torsions:
REMARK  status: ('A' for Active; 'I' for Inactive)
REMARK    1  A    between atoms: C_1  and  C_2
REMARK    2  A    between atoms: C_6  and  C_7
REMARK    3  A    between atoms: N_13  and  C_14
REMARK    4  A    between atoms: C_18  and  C_19
REMARK    5  A    between atoms: C_19  and  C_20
REMARK    6  A    between atoms: C_20  and  C_22
REMARK    7  A    between atoms: N_26  and  C_27
REMARK                            x       y       z     vdW  Elec       q    Type
REMARK                         _______ _______ _______ _____ _____    ______ ____
ROOT
ATOM      1  C   UNL     1       0.798  12.713  18.673  0.00  0.00    +0.000 C 
ATOM      2  C   UNL     1       0.843  11.407  19.405  0.00  0.00    +0.000 A 
ATOM      3  C   UNL     1       1.408  10.291  18.798  0.00  0.00    +0.000 A 
ATOM      4  C   UNL     1       1.431   9.110  19.514  0.00  0.00    +0.000 A 
ATOM      5  C   UNL     1       0.903   8.956  20.790  0.00  0.00    +0.000 A 
ATOM      6  C   UNL     1       0.357  10.062  21.435  0.00  0.00    +0.000 A 
ATOM      7  C   UNL     1       0.337  11.288  20.721  0.00  0.00    +0.000 A 
ATOM      8  C   UNL     1       1.039   7.513  21.200  0.00  0.00    +0.000 C 
ATOM      9  N   UNL     1       1.773   6.917  20.088  0.00  0.00    +0.000 N 
ATOM     10  C   UNL     1       1.991   7.845  19.069  0.00  0.00    +0.000 C 
ATOM     11  O   UNL     1       2.496   7.731  17.963  0.00  0.00    +0.000 OA
ENDROOT
BRANCH   9  12
ATOM     12  C   UNL     1       2.042   5.529  19.945  0.00  0.00    +0.000 A 
ATOM     13  C   UNL     1       1.261   4.591  20.637  0.00  0.00    +0.000 A 
ATOM     14  C   UNL     1       1.602   3.243  20.669  0.00  0.00    +0.000 A 
ATOM     15  C   UNL     1       2.742   2.810  20.006  0.00  0.00    +0.000 A 
ATOM     16  C   UNL     1       3.526   3.705  19.256  0.00  0.00    +0.000 A 
ATOM     17  C   UNL     1       3.139   5.061  19.205  0.00  0.00    +0.000 A 
BRANCH  16  18
ATOM     18  C   UNL     1       4.858   3.203  18.727  0.00  0.00    +0.000 C 
BRANCH  18  19
ATOM     19  C   UNL     1       5.509   3.924  17.545  0.00  0.00    +0.000 C 
ATOM     20  O   UNL     1       5.252   3.659  16.372  0.00  0.00    +0.000 OA
BRANCH  19  21
ATOM     21  C   UNL     1       6.460   4.955  17.916  0.00  0.00    +0.000 A 
ATOM     22  N   UNL     1       7.459   4.766  18.760  0.00  0.00    +0.000 NA
ATOM     23  N   UNL     1       8.122   5.959  18.925  0.00  0.00    +0.000 NA
ATOM     24  C   UNL     1       7.522   6.852  18.176  0.00  0.00    +0.000 A 
ATOM     25  N   UNL     1       6.493   6.265  17.505  0.00  0.00    +0.000 N 
ATOM     26  C   UNL     1       5.614   6.921  16.575  0.00  0.00    +0.000 C 
ENDBRANCH  19  21
ENDBRANCH  18  19
ENDBRANCH  16  18
ENDBRANCH   9  12
BRANCH   6  27
ATOM     27  C   UNL     1      -0.184  10.016  22.839  0.00  0.00    +0.000 C 
ATOM     28  F   UNL     1      -0.651  11.213  23.284  0.00  0.00    +0.000 F 
ATOM     29  F   UNL     1      -1.219   9.141  22.963  0.00  0.00    +0.000 F 
ATOM     30  F   UNL     1       0.753   9.620  23.744  0.00  0.00    +0.000 F 
ENDBRANCH   6  27
TORSDOF 5
ENDMDL
MODEL 8
REMARK VINA RESULT:      -8.2      2.191      2.998
REMARK  Name = 
REMARK  7 active torsions:
REMARK  status: ('A' for Active; 'I' for Inactive)
REMARK    1  A    between atoms: C_1  and  C_2
REMARK    2  A    between atoms: C_6  and  C_7
REMARK    3  A    between atoms: N_13  and  C_14
REMARK    4  A    between atoms: C_18  and  C_19
REMARK    5  A    between atoms: C_19  and  C_20
REMARK    6  A    between atoms: C_20  and  C_22
REMARK    7  A    between atoms: N_26  and  C_27
REMARK                            x       y       z     vdW  Elec       q    Type
REMARK                         _______ _______ _______ _____ _____    ______ ____
ROOT
ATOM      1  C   UNL     1      -0.742   9.864  23.336  0.00  0.00    +0.000 C 
ATOM      2  C   UNL     1      -0.090   9.697  21.998  0.00  0.00    +0.000 A 
ATOM      3  C   UNL     1       0.673   8.566  21.734  0.00  0.00    +0.000 A 
ATOM      4  C   UNL     1       1.250   8.455  20.483  0.00  0.00    +0.000 A 
ATOM      5  C   UNL     1       1.139   9.412  19.481  0.00  0.00    +0.000 A 
ATOM      6  C   UNL     1       0.357  10.541  19.706  0.00  0.00    +0.000 A 
ATOM      7  C   UNL     1      -0.255  10.666  20.980  0.00  0.00    +0.000 A 
ATOM      8  C   UNL     1       1.971   8.977  18.303  0.00  0.00    +0.000 C 
ATOM      9  N   UNL     1       2.460   7.662  18.705  0.00  0.00    +0.000 N 
ATOM     10  C   UNL     1       2.062   7.349  20.006  0.00  0.00    +0.000 C 
ATOM     11  O   UNL     1       2.315   6.394  20.723  0.00  0.00    +0.000 OA
ENDROOT
BRANCH   9  12
ATOM     12  C   UNL     1       3.401   6.888  17.974  0.00  0.00    +0.000 A 
ATOM     13  C   UNL     1       4.162   7.488  16.960  0.00  0.00    +0.000 A 
ATOM     14  C   UNL     1       4.955   6.733  16.102  0.00  0.00    +0.000 A 
ATOM     15  C   UNL     1       4.997   5.352  16.246  0.00  0.00    +0.000 A 
ATOM     16  C   UNL     1       4.292   4.713  17.282  0.00  0.00    +0.000 A 
ATOM     17  C   UNL     1       3.525   5.503  18.164  0.00  0.00    +0.000 A 
BRANCH  16  18
ATOM     18  C   UNL     1       4.224   3.196  17.256  0.00  0.00    +0.000 C 
BRANCH  18  19
ATOM     19  C   UNL     1       3.040   2.491  17.920  0.00  0.00    +0.000 C 
ATOM     20  O   UNL     1       2.132   1.959  17.284  0.00  0.00    +0.000 OA
BRANCH  19  21
ATOM     21  C   UNL     1       3.071   2.496  19.371  0.00  0.00    +0.000 A 
ATOM     22  N   UNL     1       4.109   2.101  20.086  0.00  0.00    +0.000 NA
ATOM     23  N   UNL     1       3.777   2.182  21.418  0.00  0.00    +0.000 NA
ATOM     24  C   UNL     1       2.548   2.631  21.492  0.00  0.00    +0.000 A 
ATOM     25  N   UNL     1       2.073   2.867  20.238  0.00  0.00    +0.000 N 
ATOM     26  C   UNL     1       0.769   3.380  19.917  0.00  0.00    +0.000 C 
ENDBRANCH  19  21
ENDBRANCH  18  19
ENDBRANCH  16  18
ENDBRANCH   9  12
BRANCH   6  27
ATOM     27  C   UNL     1       0.124  11.604  18.666  0.00  0.00    +0.000 C 
ATOM     28  F   UNL     1      -0.586  12.670  19.124  0.00  0.00    +0.000 F 
ATOM     29  F   UNL     1       1.287  12.111  18.177  0.00  0.00    +0.000 F 
ATOM     30  F   UNL     1      -0.563  11.134  17.588  0.00  0.00    +0.000 F 
ENDBRANCH   6  27
TORSDOF 5
ENDMDL
MODEL 9
REMARK VINA RESULT:      -8.2      3.574      8.344
REMARK  Name = 
REMARK  7 active torsions:
REMARK  status: ('A' for Active; 'I' for Inactive)
REMARK    1  A    between atoms: C_1  and  C_2
REMARK    2  A    between atoms: C_6  and  C_7
REMARK    3  A    between atoms: N_13  and  C_14
REMARK    4  A    between atoms: C_18  and  C_19
REMARK    5  A    between atoms: C_19  and  C_20
REMARK    6  A    between atoms: C_20  and  C_22
REMARK    7  A    between atoms: N_26  and  C_27
REMARK                            x       y       z     vdW  Elec       q    Type
REMARK                         _______ _______ _______ _____ _____    ______ ____
ROOT
ATOM      1  C   UNL     1       5.805   5.021  15.301  0.00  0.00    +0.000 C 
ATOM      2  C   UNL     1       4.887   5.218  16.468  0.00  0.00    +0.000 A 
ATOM      3  C   UNL     1       4.330   6.469  16.708  0.00  0.00    +0.000 A 
ATOM      4  C   UNL     1       3.486   6.600  17.794  0.00  0.00    +0.000 A 
ATOM      5  C   UNL     1       3.177   5.572  18.677  0.00  0.00    +0.000 A 
ATOM      6  C   UNL     1       3.697   4.302  18.446  0.00  0.00    +0.000 A 
ATOM      7  C   UNL     1       4.555   4.144  17.326  0.00  0.00    +0.000 A 
ATOM      8  C   UNL     1       2.302   6.121  19.773  0.00  0.00    +0.000 C 
ATOM      9  N   UNL     1       2.076   7.503  19.360  0.00  0.00    +0.000 N 
ATOM     10  C   UNL     1       2.792   7.810  18.202  0.00  0.00    +0.000 C 
ATOM     11  O   UNL     1       2.926   8.855  17.585  0.00  0.00    +0.000 OA
ENDROOT
BRANCH   9  12
ATOM     12  C   UNL     1       1.403   8.483  20.139  0.00  0.00    +0.000 A 
ATOM     13  C   UNL     1       1.565   8.499  21.532  0.00  0.00    +0.000 A 
ATOM     14  C   UNL     1       0.788   9.318  22.345  0.00  0.00    +0.000 A 
ATOM     15  C   UNL     1      -0.175  10.137  21.771  0.00  0.00    +0.000 A 
ATOM     16  C   UNL     1      -0.337  10.192  20.375  0.00  0.00    +0.000 A 
ATOM     17  C   UNL     1       0.489   9.382  19.567  0.00  0.00    +0.000 A 
BRANCH  16  18
ATOM     18  C   UNL     1      -1.535  10.953  19.834  0.00  0.00    +0.000 C 
BRANCH  18  19
ATOM     19  C   UNL     1      -1.405  11.699  18.504  0.00  0.00    +0.000 C 
ATOM     20  O   UNL     1      -0.478  12.466  18.252  0.00  0.00    +0.000 OA
BRANCH  19  21
ATOM     21  C   UNL     1      -2.467  11.427  17.553  0.00  0.00    +0.000 A 
ATOM     22  N   UNL     1      -2.261  10.962  16.334  0.00  0.00    +0.000 NA
ATOM     23  N   UNL     1      -3.473  10.876  15.690  0.00  0.00    +0.000 NA
ATOM     24  C   UNL     1      -4.396  11.283  16.528  0.00  0.00    +0.000 A 
ATOM     25  N   UNL     1      -3.818  11.613  17.715  0.00  0.00    +0.000 N 
ATOM     26  C   UNL     1      -4.510  12.085  18.884  0.00  0.00    +0.000 C 
ENDBRANCH  19  21
ENDBRANCH  18  19
ENDBRANCH  16  18
ENDBRANCH   9  12
BRANCH   6  27
ATOM     27  C   UNL     1       3.375   3.109  19.305  0.00  0.00    +0.000 C 
ATOM     28  F   UNL     1       2.044   2.935  19.522  0.00  0.00    +0.000 F 
ATOM     29  F   UNL     1       3.820   1.946  18.759  0.00  0.00    +0.000 F 
ATOM     30  F   UNL     1       3.947   3.188  20.538  0.00  0.00    +0.000 F 
ENDBRANCH   6  27
TORSDOF 5
ENDMDL
