MODEL 1
REMARK VINA RESULT:      -9.0      0.000      0.000
REMARK  Name = 
REMARK  4 active torsions:
REMARK  status: ('A' for Active; 'I' for Inactive)
REMARK    1  A    between atoms: C_2  and  C_3
REMARK    2  A    between atoms: C_3  and  C_4
REMARK    3  A    between atoms: C_4  and  N_5
REMARK    4  A    between atoms: C_19  and  C_20
REMARK                            x       y       z     vdW  Elec       q    Type
REMARK                         _______ _______ _______ _____ _____    ______ ____
ROOT
ATOM      1  O   UNL     1       0.556   8.919  21.741  0.00  0.00    +0.000 OA
ATOM      2  C   UNL     1       1.143   8.281  20.886  0.00  0.00    +0.000 C 
ATOM      3  N   UNL     1       1.594   7.014  21.175  0.00  0.00    +0.000 N 
ATOM      4  C   UNL     1       2.264   6.208  20.307  0.00  0.00    +0.000 A 
ATOM      5  N   UNL     1       2.912   6.537  19.228  0.00  0.00    +0.000 NA
ATOM      6  C   UNL     1       3.492   5.405  18.681  0.00  0.00    +0.000 A 
ATOM      7  C   UNL     1       3.109   4.221  19.247  0.00  0.00    +0.000 A 
ATOM      8  S   UNL     1       2.240   4.549  20.693  0.00  0.00    +0.000 S 
ATOM      9  H   UNL     1       1.317   6.633  22.066  0.00  0.00    +0.000 HD
ENDROOT
BRANCH   6  10
ATOM     10  C   UNL     1       4.631   5.529  17.802  0.00  0.00    +0.000 A 
ATOM     11  C   UNL     1       5.841   6.176  18.136  0.00  0.00    +0.000 A 
ATOM     12  C   UNL     1       6.901   6.184  17.216  0.00  0.00    +0.000 A 
ATOM     13  C   UNL     1       6.682   5.590  15.989  0.00  0.00    +0.000 A 
ATOM     14  C   UNL     1       5.450   5.093  15.631  0.00  0.00    +0.000 A 
ATOM     15  C   UNL     1       4.424   5.019  16.518  0.00  0.00    +0.000 A 
ATOM     16  O   UNL     1       5.430   4.560  14.382  0.00  0.00    +0.000 OA
ATOM     17  C   UNL     1       6.841   4.350  14.247  0.00  0.00    +0.000 C 
ATOM     18  O   UNL     1       7.607   5.300  15.029  0.00  0.00    +0.000 OA
ENDBRANCH   6  10
BRANCH   2  19
ATOM     19  C   UNL     1       1.331   8.791  19.461  0.00  0.00    +0.000 C 
BRANCH  19  20
ATOM     20  C   UNL     1       1.491  10.302  19.398  0.00  0.00    +0.000 C 
BRANCH  20  21
ATOM     21  N   UNL     1       0.232  10.999  19.573  0.00  0.00    +0.000 N 
ATOM     22  C   UNL     1      -0.053  11.911  20.572  0.00  0.00    +0.000 A 
ATOM     23  O   UNL     1       0.715  12.271  21.460  0.00  0.00    +0.000 OA
ATOM     24  O   UNL     1      -1.362  12.395  20.460  0.00  0.00    +0.000 OA
ATOM     25  C   UNL     1      -1.838  11.716  19.352  0.00  0.00    +0.000 A 
ATOM     26  C   UNL     1      -3.106  11.855  18.829  0.00  0.00    +0.000 A 
ATOM     27  C   UNL     1      -3.409  11.103  17.695  0.00  0.00    +0.000 A 
ATOM     28 CL   UNL     1      -4.972  11.232  16.985  0.00  0.00    +0.000 Cl
ATOM     29  C   UNL     1      -2.459  10.237  17.122  0.00  0.00    +0.000 A 
ATOM     30  C   UNL     1      -1.182  10.102  17.684  0.00  0.00    +0.000 A 
ATOM     31  C   UNL     1      -0.901  10.864  18.799  0.00  0.00    +0.000 A 
ENDBRANCH  20  21
ENDBRANCH  19  20
ENDBRANCH   2  19
TORSDOF 4
ENDMDL
MODEL 2
REMARK VINA RESULT:      -8.8      2.293      2.887
REMARK  Name = 
REMARK  4 active torsions:
REMARK  status: ('A' for Active; 'I' for Inactive)
REMARK    1  A    between atoms: C_2  and  C_3
REMARK    2  A    between atoms: C_3  and  C_4
REMARK    3  A    between atoms: C_4  and  N_5
REMARK    4  A    between atoms: C_19  and  C_20
REMARK                            x       y       z     vdW  Elec       q    Type
REMARK                         _______ _______ _______ _____ _____    ______ ____
ROOT
ATOM      1  O   UNL     1       0.712   9.459  21.361  0.00  0.00    +0.000 OA
ATOM      2  C   UNL     1       1.289   8.692  20.611  0.00  0.00    +0.000 C 
ATOM      3  N   UNL     1       1.412   7.367  20.960  0.00  0.00    +0.000 N 
ATOM      4  C   UNL     1       2.036   6.417  20.211  0.00  0.00    +0.000 A 
ATOM      5  N   UNL     1       2.910   6.577  19.261  0.00  0.00    +0.000 NA
ATOM      6  C   UNL     1       3.326   5.336  18.809  0.00  0.00    +0.000 A 
ATOM      7  C   UNL     1       2.614   4.273  19.290  0.00  0.00    +0.000 A 
ATOM      8  S   UNL     1       1.602   4.810  20.571  0.00  0.00    +0.000 S 
ATOM      9  H   UNL     1       0.916   7.074  21.787  0.00  0.00    +0.000 HD
ENDROOT
BRANCH   6  10
ATOM     10  C   UNL     1       4.597   5.199  18.138  0.00  0.00    +0.000 A 
ATOM     11  C   UNL     1       5.802   4.814  18.765  0.00  0.00    +0.000 A 
ATOM     12  C   UNL     1       6.966   4.660  17.996  0.00  0.00    +0.000 A 
ATOM     13  C   UNL     1       6.880   4.948  16.649  0.00  0.00    +0.000 A 
ATOM     14  C   UNL     1       5.733   5.459  16.085  0.00  0.00    +0.000 A 
ATOM     15  C   UNL     1       4.577   5.564  16.790  0.00  0.00    +0.000 A 
ATOM     16  O   UNL     1       5.847   5.689  14.752  0.00  0.00    +0.000 OA
ATOM     17  C   UNL     1       6.963   4.823  14.510  0.00  0.00    +0.000 C 
ATOM     18  O   UNL     1       7.805   4.684  15.682  0.00  0.00    +0.000 OA
ENDBRANCH   6  10
BRANCH   2  19
ATOM     19  C   UNL     1       1.816   9.115  19.244  0.00  0.00    +0.000 C 
BRANCH  19  20
ATOM     20  C   UNL     1       0.701   9.472  18.274  0.00  0.00    +0.000 C 
BRANCH  20  21
ATOM     21  N   UNL     1       0.199  10.816  18.478  0.00  0.00    +0.000 N 
ATOM     22  C   UNL     1      -1.126  11.164  18.661  0.00  0.00    +0.000 A 
ATOM     23  O   UNL     1      -2.079  10.389  18.682  0.00  0.00    +0.000 OA
ATOM     24  O   UNL     1      -1.271  12.547  18.824  0.00  0.00    +0.000 OA
ATOM     25  C   UNL     1       0.033  12.998  18.717  0.00  0.00    +0.000 A 
ATOM     26  C   UNL     1       0.418  14.319  18.811  0.00  0.00    +0.000 A 
ATOM     27  C   UNL     1       1.780  14.591  18.696  0.00  0.00    +0.000 A 
ATOM     28 CL   UNL     1       2.333  16.218  18.809  0.00  0.00    +0.000 Cl
ATOM     29  C   UNL     1       2.713  13.557  18.484  0.00  0.00    +0.000 A 
ATOM     30  C   UNL     1       2.291  12.225  18.374  0.00  0.00    +0.000 A 
ATOM     31  C   UNL     1       0.941  11.978  18.503  0.00  0.00    +0.000 A 
ENDBRANCH  20  21
ENDBRANCH  19  20
ENDBRANCH   2  19
TORSDOF 4
ENDMDL
MODEL 3
REMARK VINA RESULT:      -8.6      4.003      8.115
REMARK  Name = 
REMARK  4 active torsions:
REMARK  status: ('A' for Active; 'I' for Inactive)
REMARK    1  A    between atoms: C_2  and  C_3
REMARK    2  A    between atoms: C_3  and  C_4
REMARK    3  A    between atoms: C_4  and  N_5
REMARK    4  A    between atoms: C_19  and  C_20
REMARK                            x       y       z     vdW  Elec       q    Type
REMARK                         _______ _______ _______ _____ _____    ______ ____
ROOT
ATOM      1  O   UNL     1       0.267   9.285  23.959  0.00  0.00    +0.000 OA
ATOM      2  C   UNL     1      -0.047   9.664  22.846  0.00  0.00    +0.000 C 
ATOM      3  N   UNL     1      -0.544  10.935  22.677  0.00  0.00    +0.000 N 
ATOM      4  C   UNL     1      -0.932  11.470  21.487  0.00  0.00    +0.000 A 
ATOM      5  N   UNL     1      -1.255  10.856  20.387  0.00  0.00    +0.000 NA
ATOM      6  C   UNL     1      -1.642  11.788  19.440  0.00  0.00    +0.000 A 
ATOM      7  C   UNL     1      -1.417  13.092  19.780  0.00  0.00    +0.000 A 
ATOM      8  S   UNL     1      -0.995  13.172  21.444  0.00  0.00    +0.000 S 
ATOM      9  H   UNL     1      -0.524  11.535  23.487  0.00  0.00    +0.000 HD
ENDROOT
BRANCH   6  10
ATOM     10  C   UNL     1      -2.490  11.392  18.339  0.00  0.00    +0.000 A 
ATOM     11  C   UNL     1      -3.863  11.700  18.230  0.00  0.00    +0.000 A 
ATOM     12  C   UNL     1      -4.572  11.308  17.083  0.00  0.00    +0.000 A 
ATOM     13  C   UNL     1      -3.886  10.584  16.128  0.00  0.00    +0.000 A 
ATOM     14  C   UNL     1      -2.588  10.172  16.321  0.00  0.00    +0.000 A 
ATOM     15  C   UNL     1      -1.860  10.584  17.391  0.00  0.00    +0.000 A 
ATOM     16  O   UNL     1      -2.090   9.462  15.276  0.00  0.00    +0.000 OA
ATOM     17  C   UNL     1      -3.020   9.916  14.284  0.00  0.00    +0.000 C 
ATOM     18  O   UNL     1      -4.299  10.275  14.865  0.00  0.00    +0.000 OA
ENDBRANCH   6  10
BRANCH   2  19
ATOM     19  C   UNL     1       0.167   8.816  21.595  0.00  0.00    +0.000 C 
BRANCH  19  20
ATOM     20  C   UNL     1       1.638   8.657  21.243  0.00  0.00    +0.000 C 
BRANCH  20  21
ATOM     21  N   UNL     1       1.833   7.966  19.984  0.00  0.00    +0.000 N 
ATOM     22  C   UNL     1       1.906   8.563  18.738  0.00  0.00    +0.000 A 
ATOM     23  O   UNL     1       1.820   9.766  18.509  0.00  0.00    +0.000 OA
ATOM     24  O   UNL     1       2.093   7.611  17.729  0.00  0.00    +0.000 OA
ATOM     25  C   UNL     1       2.115   6.423  18.440  0.00  0.00    +0.000 A 
ATOM     26  C   UNL     1       2.280   5.174  17.878  0.00  0.00    +0.000 A 
ATOM     27  C   UNL     1       2.295   4.086  18.749  0.00  0.00    +0.000 A 
ATOM     28 CL   UNL     1       2.502   2.498  18.117  0.00  0.00    +0.000 Cl
ATOM     29  C   UNL     1       2.139   4.263  20.137  0.00  0.00    +0.000 A 
ATOM     30  C   UNL     1       1.956   5.543  20.679  0.00  0.00    +0.000 A 
ATOM     31  C   UNL     1       1.956   6.605  19.800  0.00  0.00    +0.000 A 
ENDBRANCH  20  21
ENDBRANCH  19  20
ENDBRANCH   2  19
TORSDOF 4
ENDMDL
MODEL 4
REMARK VINA RESULT:      -8.6      1.838      2.251
REMARK  Name = 
REMARK  4 active torsions:
REMARK  status: ('A' for Active; 'I' for Inactive)
REMARK    1  A    between atoms: C_2  and  C_3
REMARK    2  A    between atoms: C_3  and  C_4
REMARK    3  A    between atoms: C_4  and  N_5
REMARK    4  A    between atoms: C_19  and  C_20
REMARK                            x       y       z     vdW  Elec       q    Type
REMARK                         _______ _______ _______ _____ _____    ______ ____
ROOT
ATOM      1  O   UNL     1       0.627   9.372  21.397  0.00  0.00    +0.000 OA
ATOM      2  C   UNL     1       1.219   8.612  20.652  0.00  0.00    +0.000 C 
ATOM      3  N   UNL     1       1.432   7.310  21.042  0.00  0.00    +0.000 N 
ATOM      4  C   UNL     1       2.081   6.370  20.302  0.00  0.00    +0.000 A 
ATOM      5  N   UNL     1       2.907   6.544  19.313  0.00  0.00    +0.000 NA
ATOM      6  C   UNL     1       3.377   5.313  18.888  0.00  0.00    +0.000 A 
ATOM      7  C   UNL     1       2.749   4.229  19.435  0.00  0.00    +0.000 A 
ATOM      8  S   UNL     1       1.756   4.755  20.735  0.00  0.00    +0.000 S 
ATOM      9  H   UNL     1       0.986   7.020  21.898  0.00  0.00    +0.000 HD
ENDROOT
BRANCH   6  10
ATOM     10  C   UNL     1       4.627   5.223  18.171  0.00  0.00    +0.000 A 
ATOM     11  C   UNL     1       5.872   4.906  18.758  0.00  0.00    +0.000 A 
ATOM     12  C   UNL     1       7.012   4.793  17.948  0.00  0.00    +0.000 A 
ATOM     13  C   UNL     1       6.863   5.053  16.600  0.00  0.00    +0.000 A 
ATOM     14  C   UNL     1       5.673   5.499  16.073  0.00  0.00    +0.000 A 
ATOM     15  C   UNL     1       4.540   5.563  16.819  0.00  0.00    +0.000 A 
ATOM     16  O   UNL     1       5.726   5.711  14.733  0.00  0.00    +0.000 OA
ATOM     17  C   UNL     1       6.872   4.893  14.462  0.00  0.00    +0.000 C 
ATOM     18  O   UNL     1       7.763   4.815  15.603  0.00  0.00    +0.000 OA
ENDBRANCH   6  10
BRANCH   2  19
ATOM     19  C   UNL     1       1.667   9.013  19.250  0.00  0.00    +0.000 C 
BRANCH  19  20
ATOM     20  C   UNL     1       0.593   9.774  18.489  0.00  0.00    +0.000 C 
BRANCH  20  21
ATOM     21  N   UNL     1       0.641  11.200  18.744  0.00  0.00    +0.000 N 
ATOM     22  C   UNL     1       1.693  12.041  18.432  0.00  0.00    +0.000 A 
ATOM     23  O   UNL     1       2.745  11.710  17.891  0.00  0.00    +0.000 OA
ATOM     24  O   UNL     1       1.422  13.360  18.817  0.00  0.00    +0.000 OA
ATOM     25  C   UNL     1       0.163  13.252  19.382  0.00  0.00    +0.000 A 
ATOM     26  C   UNL     1      -0.550  14.304  19.919  0.00  0.00    +0.000 A 
ATOM     27  C   UNL     1      -1.815  14.016  20.429  0.00  0.00    +0.000 A 
ATOM     28 CL   UNL     1      -2.763  15.281  21.110  0.00  0.00    +0.000 Cl
ATOM     29  C   UNL     1      -2.329  12.705  20.402  0.00  0.00    +0.000 A 
ATOM     30  C   UNL     1      -1.575  11.652  19.866  0.00  0.00    +0.000 A 
ATOM     31  C   UNL     1      -0.332  11.963  19.356  0.00  0.00    +0.000 A 
ENDBRANCH  20  21
ENDBRANCH  19  20
ENDBRANCH   2  19
TORSDOF 4
ENDMDL
MODEL 5
REMARK VINA RESULT:      -8.4      3.598      8.401
REMARK  Name = 
REMARK  4 active torsions:
REMARK  status: ('A' for Active; 'I' for Inactive)
REMARK    1  A    between atoms: C_2  and  C_3
REMARK    2  A    between atoms: C_3  and  C_4
REMARK    3  A    between atoms: C_4  and  N_5
REMARK    4  A    between atoms: C_19  and  C_20
REMARK                            x       y       z     vdW  Elec       q    Type
REMARK                         _______ _______ _______ _____ _____    ______ ____
ROOT
ATOM      1  O   UNL     1       2.376   1.798  17.006  0.00  0.00    +0.000 OA
ATOM      2  C   UNL     1       2.475   2.922  17.464  0.00  0.00    +0.000 C 
ATOM      3  N   UNL     1       1.917   3.207  18.689  0.00  0.00    +0.000 N 
ATOM      4  C   UNL     1       1.957   4.422  19.301  0.00  0.00    +0.000 A 
ATOM      5  N   UNL     1       2.177   5.590  18.774  0.00  0.00    +0.000 NA
ATOM      6  C   UNL     1       2.069   6.562  19.754  0.00  0.00    +0.000 A 
ATOM      7  C   UNL     1       1.965   6.090  21.033  0.00  0.00    +0.000 A 
ATOM      8  S   UNL     1       1.688   4.395  20.983  0.00  0.00    +0.000 S 
ATOM      9  H   UNL     1       1.537   2.426  19.200  0.00  0.00    +0.000 HD
ENDROOT
BRANCH   6  10
ATOM     10  C   UNL     1       1.783   7.929  19.390  0.00  0.00    +0.000 A 
ATOM     11  C   UNL     1       2.060   8.502  18.129  0.00  0.00    +0.000 A 
ATOM     12  C   UNL     1       1.684   9.830  17.873  0.00  0.00    +0.000 A 
ATOM     13  C   UNL     1       1.097  10.535  18.905  0.00  0.00    +0.000 A 
ATOM     14  C   UNL     1       0.966  10.004  20.167  0.00  0.00    +0.000 A 
ATOM     15  C   UNL     1       1.267   8.705  20.430  0.00  0.00    +0.000 A 
ATOM     16  O   UNL     1       0.376  10.852  21.048  0.00  0.00    +0.000 OA
ATOM     17  C   UNL     1      -0.256  11.706  20.086  0.00  0.00    +0.000 C 
ATOM     18  O   UNL     1       0.475  11.747  18.835  0.00  0.00    +0.000 OA
ENDBRANCH   6  10
BRANCH   2  19
ATOM     19  C   UNL     1       3.273   4.025  16.777  0.00  0.00    +0.000 C 
BRANCH  19  20
ATOM     20  C   UNL     1       4.757   3.704  16.689  0.00  0.00    +0.000 C 
BRANCH  20  21
ATOM     21  N   UNL     1       5.520   4.320  17.756  0.00  0.00    +0.000 N 
ATOM     22  C   UNL     1       5.603   3.862  19.058  0.00  0.00    +0.000 A 
ATOM     23  O   UNL     1       5.046   2.865  19.508  0.00  0.00    +0.000 OA
ATOM     24  O   UNL     1       6.418   4.691  19.838  0.00  0.00    +0.000 OA
ATOM     25  C   UNL     1       6.804   5.666  18.933  0.00  0.00    +0.000 A 
ATOM     26  C   UNL     1       7.630   6.730  19.229  0.00  0.00    +0.000 A 
ATOM     27  C   UNL     1       7.928   7.609  18.189  0.00  0.00    +0.000 A 
ATOM     28 CL   UNL     1       8.957   8.956  18.485  0.00  0.00    +0.000 Cl
ATOM     29  C   UNL     1       7.397   7.414  16.899  0.00  0.00    +0.000 A 
ATOM     30  C   UNL     1       6.546   6.333  16.630  0.00  0.00    +0.000 A 
ATOM     31  C   UNL     1       6.275   5.471  17.672  0.00  0.00    +0.000 A 
ENDBRANCH  20  21
ENDBRANCH  19  20
ENDBRANCH   2  19
TORSDOF 4
ENDMDL
MODEL 6
REMARK VINA RESULT:      -8.4      2.431      3.087
REMARK  Name = 
REMARK  4 active torsions:
REMARK  status: ('A' for Active; 'I' for Inactive)
REMARK    1  A    between atoms: C_2  and  C_3
REMARK    2  A    between atoms: C_3  and  C_4
REMARK    3  A    between atoms: C_4  and  N_5
REMARK    4  A    between atoms: C_19  and  C_20
REMARK                            x       y       z     vdW  Elec       q    Type
REMARK                         _______ _______ _______ _____ _____    ______ ____
ROOT
ATOM      1  O   UNL     1       0.800   9.038  22.438  0.00  0.00    +0.000 OA
ATOM      2  C   UNL     1       1.156   8.449  21.433  0.00  0.00    +0.000 C 
ATOM      3  N   UNL     1       1.501   7.119  21.513  0.00  0.00    +0.000 N 
ATOM      4  C   UNL     1       1.916   6.357  20.465  0.00  0.00    +0.000 A 
ATOM      5  N   UNL     1       2.405   6.743  19.323  0.00  0.00    +0.000 NA
ATOM      6  C   UNL     1       2.749   5.631  18.574  0.00  0.00    +0.000 A 
ATOM      7  C   UNL     1       2.334   4.433  19.084  0.00  0.00    +0.000 A 
ATOM      8  S   UNL     1       1.766   4.674  20.688  0.00  0.00    +0.000 S 
ATOM      9  H   UNL     1       1.337   6.667  22.398  0.00  0.00    +0.000 HD
ENDROOT
BRANCH   6  10
ATOM     10  C   UNL     1       3.729   5.743  17.519  0.00  0.00    +0.000 A 
ATOM     11  C   UNL     1       4.129   6.957  16.918  0.00  0.00    +0.000 A 
ATOM     12  C   UNL     1       5.133   6.947  15.937  0.00  0.00    +0.000 A 
ATOM     13  C   UNL     1       5.650   5.721  15.569  0.00  0.00    +0.000 A 
ATOM     14  C   UNL     1       5.145   4.540  16.063  0.00  0.00    +0.000 A 
ATOM     15  C   UNL     1       4.215   4.520  17.053  0.00  0.00    +0.000 A 
ATOM     16  O   UNL     1       5.775   3.441  15.574  0.00  0.00    +0.000 OA
ATOM     17  C   UNL     1       6.980   4.092  15.151  0.00  0.00    +0.000 C 
ATOM     18  O   UNL     1       6.752   5.480  14.802  0.00  0.00    +0.000 OA
ENDBRANCH   6  10
BRANCH   2  19
ATOM     19  C   UNL     1       1.156   9.098  20.053  0.00  0.00    +0.000 C 
BRANCH  19  20
ATOM     20  C   UNL     1      -0.021  10.039  19.850  0.00  0.00    +0.000 C 
BRANCH  20  21
ATOM     21  N   UNL     1       0.283  11.399  20.249  0.00  0.00    +0.000 N 
ATOM     22  C   UNL     1       1.202  12.233  19.639  0.00  0.00    +0.000 A 
ATOM     23  O   UNL     1       1.897  11.951  18.667  0.00  0.00    +0.000 OA
ATOM     24  O   UNL     1       1.258  13.479  20.275  0.00  0.00    +0.000 OA
ATOM     25  C   UNL     1       0.335  13.334  21.296  0.00  0.00    +0.000 A 
ATOM     26  C   UNL     1       0.024  14.312  22.218  0.00  0.00    +0.000 A 
ATOM     27  C   UNL     1      -0.945  13.998  23.170  0.00  0.00    +0.000 A 
ATOM     28 CL   UNL     1      -1.388  15.173  24.348  0.00  0.00    +0.000 Cl
ATOM     29  C   UNL     1      -1.566  12.735  23.186  0.00  0.00    +0.000 A 
ATOM     30  C   UNL     1      -1.218  11.753  22.247  0.00  0.00    +0.000 A 
ATOM     31  C   UNL     1      -0.265  12.090  21.308  0.00  0.00    +0.000 A 
ENDBRANCH  20  21
ENDBRANCH  19  20
ENDBRANCH   2  19
TORSDOF 4
ENDMDL
MODEL 7
REMARK VINA RESULT:      -8.3      1.981      2.664
REMARK  Name = 
REMARK  4 active torsions:
REMARK  status: ('A' for Active; 'I' for Inactive)
REMARK    1  A    between atoms: C_2  and  C_3
REMARK    2  A    between atoms: C_3  and  C_4
REMARK    3  A    between atoms: C_4  and  N_5
REMARK    4  A    between atoms: C_19  and  C_20
REMARK                            x       y       z     vdW  Elec       q    Type
REMARK                         _______ _______ _______ _____ _____    ______ ____
ROOT
ATOM      1  O   UNL     1       0.696   9.279  22.281  0.00  0.00    +0.000 OA
ATOM      2  C   UNL     1       1.067   8.635  21.317  0.00  0.00    +0.000 C 
ATOM      3  N   UNL     1       1.499   7.340  21.492  0.00  0.00    +0.000 N 
ATOM      4  C   UNL     1       1.939   6.523  20.496  0.00  0.00    +0.000 A 
ATOM      5  N   UNL     1       2.378   6.846  19.315  0.00  0.00    +0.000 NA
ATOM      6  C   UNL     1       2.777   5.701  18.647  0.00  0.00    +0.000 A 
ATOM      7  C   UNL     1       2.450   4.524  19.261  0.00  0.00    +0.000 A 
ATOM      8  S   UNL     1       1.903   4.858  20.856  0.00  0.00    +0.000 S 
ATOM      9  H   UNL     1       1.383   6.951  22.414  0.00  0.00    +0.000 HD
ENDROOT
BRANCH   6  10
ATOM     10  C   UNL     1       3.724   5.789  17.561  0.00  0.00    +0.000 A 
ATOM     11  C   UNL     1       4.103   6.989  16.919  0.00  0.00    +0.000 A 
ATOM     12  C   UNL     1       5.078   6.956  15.909  0.00  0.00    +0.000 A 
ATOM     13  C   UNL     1       5.586   5.722  15.556  0.00  0.00    +0.000 A 
ATOM     14  C   UNL     1       5.099   4.553  16.093  0.00  0.00    +0.000 A 
ATOM     15  C   UNL     1       4.199   4.556  17.111  0.00  0.00    +0.000 A 
ATOM     16  O   UNL     1       5.716   3.444  15.612  0.00  0.00    +0.000 OA
ATOM     17  C   UNL     1       6.907   4.086  15.138  0.00  0.00    +0.000 C 
ATOM     18  O   UNL     1       6.665   5.464  14.762  0.00  0.00    +0.000 OA
ENDBRANCH   6  10
BRANCH   2  19
ATOM     19  C   UNL     1       0.996   9.170  19.890  0.00  0.00    +0.000 C 
BRANCH  19  20
ATOM     20  C   UNL     1       0.974  10.689  19.837  0.00  0.00    +0.000 C 
BRANCH  20  21
ATOM     21  N   UNL     1      -0.373  11.223  19.834  0.00  0.00    +0.000 N 
ATOM     22  C   UNL     1      -1.302  11.064  18.822  0.00  0.00    +0.000 A 
ATOM     23  O   UNL     1      -1.129  10.446  17.776  0.00  0.00    +0.000 OA
ATOM     24  O   UNL     1      -2.505  11.711  19.130  0.00  0.00    +0.000 OA
ATOM     25  C   UNL     1      -2.235  12.268  20.369  0.00  0.00    +0.000 A 
ATOM     26  C   UNL     1      -3.129  13.019  21.104  0.00  0.00    +0.000 A 
ATOM     27  C   UNL     1      -2.692  13.487  22.342  0.00  0.00    +0.000 A 
ATOM     28 CL   UNL     1      -3.756  14.426  23.317  0.00  0.00    +0.000 Cl
ATOM     29  C   UNL     1      -1.393  13.209  22.809  0.00  0.00    +0.000 A 
ATOM     30  C   UNL     1      -0.500  12.457  22.032  0.00  0.00    +0.000 A 
ATOM     31  C   UNL     1      -0.957  11.994  20.816  0.00  0.00    +0.000 A 
ENDBRANCH  20  21
ENDBRANCH  19  20
ENDBRANCH   2  19
TORSDOF 4
ENDMDL
MODEL 8
REMARK VINA RESULT:      -8.3      2.663      4.224
REMARK  Name = 
REMARK  4 active torsions:
REMARK  status: ('A' for Active; 'I' for Inactive)
REMARK    1  A    between atoms: C_2  and  C_3
REMARK    2  A    between atoms: C_3  and  C_4
REMARK    3  A    between atoms: C_4  and  N_5
REMARK    4  A    between atoms: C_19  and  C_20
REMARK                            x       y       z     vdW  Elec       q    Type
REMARK                         _______ _______ _______ _____ _____    ______ ____
ROOT
ATOM      1  O   UNL     1      -0.640  13.299  20.248  0.00  0.00    +0.000 OA
ATOM      2  C   UNL     1      -0.291  12.152  20.034  0.00  0.00    +0.000 C 
ATOM      3  N   UNL     1       0.310  11.428  21.037  0.00  0.00    +0.000 N 
ATOM      4  C   UNL     1       0.746  10.143  20.918  0.00  0.00    +0.000 A 
ATOM      5  N   UNL     1       1.022   9.476  19.837  0.00  0.00    +0.000 NA
ATOM      6  C   UNL     1       1.489   8.220  20.182  0.00  0.00    +0.000 A 
ATOM      7  C   UNL     1       1.370   7.896  21.504  0.00  0.00    +0.000 A 
ATOM      8  S   UNL     1       0.948   9.308  22.389  0.00  0.00    +0.000 S 
ATOM      9  H   UNL     1       0.335  11.859  21.947  0.00  0.00    +0.000 HD
ENDROOT
BRANCH   6  10
ATOM     10  C   UNL     1       2.306   7.471  19.255  0.00  0.00    +0.000 A 
ATOM     11  C   UNL     1       2.837   7.986  18.053  0.00  0.00    +0.000 A 
ATOM     12  C   UNL     1       3.666   7.178  17.259  0.00  0.00    +0.000 A 
ATOM     13  C   UNL     1       3.879   5.880  17.679  0.00  0.00    +0.000 A 
ATOM     14  C   UNL     1       3.237   5.355  18.776  0.00  0.00    +0.000 A 
ATOM     15  C   UNL     1       2.476   6.128  19.595  0.00  0.00    +0.000 A 
ATOM     16  O   UNL     1       3.566   4.061  19.023  0.00  0.00    +0.000 OA
ATOM     17  C   UNL     1       4.798   4.041  18.290  0.00  0.00    +0.000 C 
ATOM     18  O   UNL     1       4.790   4.988  17.192  0.00  0.00    +0.000 OA
ENDBRANCH   6  10
BRANCH   2  19
ATOM     19  C   UNL     1      -0.568  11.439  18.714  0.00  0.00    +0.000 C 
BRANCH  19  20
ATOM     20  C   UNL     1      -1.449  12.256  17.783  0.00  0.00    +0.000 C 
BRANCH  20  21
ATOM     21  N   UNL     1      -2.765  11.673  17.614  0.00  0.00    +0.000 N 
ATOM     22  C   UNL     1      -3.182  10.921  16.531  0.00  0.00    +0.000 A 
ATOM     23  O   UNL     1      -2.503  10.631  15.550  0.00  0.00    +0.000 OA
ATOM     24  O   UNL     1      -4.514  10.513  16.678  0.00  0.00    +0.000 OA
ATOM     25  C   UNL     1      -4.864  11.071  17.896  0.00  0.00    +0.000 A 
ATOM     26  C   UNL     1      -6.103  10.948  18.489  0.00  0.00    +0.000 A 
ATOM     27  C   UNL     1      -6.274  11.562  19.729  0.00  0.00    +0.000 A 
ATOM     28 CL   UNL     1      -7.793  11.444  20.530  0.00  0.00    +0.000 Cl
ATOM     29  C   UNL     1      -5.227  12.281  20.335  0.00  0.00    +0.000 A 
ATOM     30  C   UNL     1      -3.982  12.404  19.701  0.00  0.00    +0.000 A 
ATOM     31  C   UNL     1      -3.832  11.779  18.481  0.00  0.00    +0.000 A 
ENDBRANCH  20  21
ENDBRANCH  19  20
ENDBRANCH   2  19
TORSDOF 4
ENDMDL
MODEL 9
REMARK VINA RESULT:      -8.3      2.457      3.086
REMARK  Name = 
REMARK  4 active torsions:
REMARK  status: ('A' for Active; 'I' for Inactive)
REMARK    1  A    between atoms: C_2  and  C_3
REMARK    2  A    between atoms: C_3  and  C_4
REMARK    3  A    between atoms: C_4  and  N_5
REMARK    4  A    between atoms: C_19  and  C_20
REMARK                            x       y       z     vdW  Elec       q    Type
REMARK                         _______ _______ _______ _____ _____    ______ ____
ROOT
ATOM      1  O   UNL     1       0.650   8.626  22.200  0.00  0.00    +0.000 OA
ATOM      2  C   UNL     1       1.180   8.112  21.232  0.00  0.00    +0.000 C 
ATOM      3  N   UNL     1       1.477   6.769  21.255  0.00  0.00    +0.000 N 
ATOM      4  C   UNL     1       2.070   6.083  20.240  0.00  0.00    +0.000 A 
ATOM      5  N   UNL     1       2.776   6.547  19.250  0.00  0.00    +0.000 NA
ATOM      6  C   UNL     1       3.235   5.491  18.483  0.00  0.00    +0.000 A 
ATOM      7  C   UNL     1       2.707   4.270  18.795  0.00  0.00    +0.000 A 
ATOM      8  S   UNL     1       1.849   4.395  20.279  0.00  0.00    +0.000 S 
ATOM      9  H   UNL     1       1.139   6.249  22.050  0.00  0.00    +0.000 HD
ENDROOT
BRANCH   6  10
ATOM     10  C   UNL     1       4.400   5.657  17.645  0.00  0.00    +0.000 A 
ATOM     11  C   UNL     1       5.495   6.497  17.946  0.00  0.00    +0.000 A 
ATOM     12  C   UNL     1       6.599   6.534  17.080  0.00  0.00    +0.000 A 
ATOM     13  C   UNL     1       6.532   5.771  15.932  0.00  0.00    +0.000 A 
ATOM     14  C   UNL     1       5.397   5.073  15.587  0.00  0.00    +0.000 A 
ATOM     15  C   UNL     1       4.338   4.971  16.431  0.00  0.00    +0.000 A 
ATOM     16  O   UNL     1       5.520   4.394  14.418  0.00  0.00    +0.000 OA
ATOM     17  C   UNL     1       6.952   4.359  14.373  0.00  0.00    +0.000 C 
ATOM     18  O   UNL     1       7.542   5.493  15.058  0.00  0.00    +0.000 OA
ENDBRANCH   6  10
BRANCH   2  19
ATOM     19  C   UNL     1       1.456   8.875  19.940  0.00  0.00    +0.000 C 
BRANCH  19  20
ATOM     20  C   UNL     1       0.380   9.904  19.629  0.00  0.00    +0.000 C 
BRANCH  20  21
ATOM     21  N   UNL     1       0.728  11.228  20.105  0.00  0.00    +0.000 N 
ATOM     22  C   UNL     1       0.273  11.812  21.274  0.00  0.00    +0.000 A 
ATOM     23  O   UNL     1      -0.491  11.297  22.086  0.00  0.00    +0.000 OA
ATOM     24  O   UNL     1       0.794  13.101  21.435  0.00  0.00    +0.000 OA
ATOM     25  C   UNL     1       1.571  13.253  20.299  0.00  0.00    +0.000 A 
ATOM     26  C   UNL     1       2.304  14.380  19.993  0.00  0.00    +0.000 A 
ATOM     27  C   UNL     1       3.044  14.352  18.813  0.00  0.00    +0.000 A 
ATOM     28 CL   UNL     1       3.989  15.723  18.371  0.00  0.00    +0.000 Cl
ATOM     29  C   UNL     1       3.030  13.223  17.972  0.00  0.00    +0.000 A 
ATOM     30  C   UNL     1       2.261  12.097  18.299  0.00  0.00    +0.000 A 
ATOM     31  C   UNL     1       1.547  12.143  19.477  0.00  0.00    +0.000 A 
ENDBRANCH  20  21
ENDBRANCH  19  20
ENDBRANCH   2  19
TORSDOF 4
ENDMDL
