MODEL 1
REMARK VINA RESULT:      -8.9      0.000      0.000
REMARK  Name = 
REMARK  5 active torsions:
REMARK  status: ('A' for Active; 'I' for Inactive)
REMARK    1  A    between atoms: C_2  and  C_14
REMARK    2  A    between atoms: N_3  and  C_4
REMARK    3  A    between atoms: C_4  and  C_5
REMARK    4  A    between atoms: C_16  and  S_17
REMARK    5  A    between atoms: S_17  and  N_20
REMARK                            x       y       z     vdW  Elec       q    Type
REMARK                         _______ _______ _______ _____ _____    ______ ____
ROOT
ATOM      1  C   UNL     1       2.639   6.290  18.797  0.00  0.00    +0.000 A 
ATOM      2  C   UNL     1       3.612   6.483  17.796  0.00  0.00    +0.000 A 
ATOM      3  C   UNL     1       4.369   5.400  17.359  0.00  0.00    +0.000 A 
ATOM      4  C   UNL     1       4.147   4.142  17.930  0.00  0.00    +0.000 A 
ATOM      5  C   UNL     1       3.088   3.931  18.820  0.00  0.00    +0.000 A 
ATOM      6  C   UNL     1       2.320   5.003  19.251  0.00  0.00    +0.000 A 
ATOM      7 CL   UNL     1       1.009   4.636  20.317  0.00  0.00    +0.000 Cl
ENDROOT
BRANCH   1   9
ATOM      8  O   UNL     1       1.869   7.435  20.696  0.00  0.00    +0.000 OA
ATOM      9  C   UNL     1       2.074   7.461  19.489  0.00  0.00    +0.000 C 
ATOM     10  N   UNL     1       1.868   8.583  18.737  0.00  0.00    +0.000 N 
ATOM     11  H   UNL     1       1.759   8.536  17.731  0.00  0.00    +0.000 HD
BRANCH  10  12
ATOM     12  C   UNL     1       1.390   9.768  19.395  0.00  0.00    +0.000 C 
BRANCH  12  13
ATOM     13  C   UNL     1       0.083  10.159  18.813  0.00  0.00    +0.000 A 
ATOM     14  C   UNL     1      -0.864  11.015  19.338  0.00  0.00    +0.000 A 
ATOM     15  N   UNL     1      -1.918  10.978  18.465  0.00  0.00    +0.000 N 
ATOM     16  C   UNL     1      -3.154  11.615  18.541  0.00  0.00    +0.000 A 
ATOM     17  C   UNL     1      -4.058  11.402  17.569  0.00  0.00    +0.000 A 
ATOM     18  C   UNL     1      -3.711  10.514  16.467  0.00  0.00    +0.000 A 
ATOM     19  C   UNL     1      -2.510   9.909  16.399  0.00  0.00    +0.000 A 
ATOM     20  C   UNL     1      -1.552  10.129  17.427  0.00  0.00    +0.000 A 
ATOM     21  N   UNL     1      -0.345   9.640  17.607  0.00  0.00    +0.000 NA
ENDBRANCH  12  13
ENDBRANCH  10  12
ENDBRANCH   1   9
BRANCH   3  22
ATOM     22  S   UNL     1       5.503   5.583  15.985  0.00  0.00    +0.000 S 
ATOM     23  O   UNL     1       5.472   4.351  15.248  0.00  0.00    +0.000 OA
ATOM     24  O   UNL     1       5.144   6.849  15.343  0.00  0.00    +0.000 OA
BRANCH  22  25
ATOM     25  N   UNL     1       7.050   5.765  16.633  0.00  0.00    +0.000 NA
ATOM     26  C   UNL     1       7.624   4.748  17.527  0.00  0.00    +0.000 C 
ATOM     27  C   UNL     1       7.625   5.433  18.880  0.00  0.00    +0.000 C 
ATOM     28  C   UNL     1       7.952   6.886  18.542  0.00  0.00    +0.000 C 
ATOM     29  C   UNL     1       7.539   7.084  17.078  0.00  0.00    +0.000 C 
ENDBRANCH  22  25
ENDBRANCH   3  22
TORSDOF 5
ENDMDL
MODEL 2
REMARK VINA RESULT:      -8.8      1.463      1.804
REMARK  Name = 
REMARK  5 active torsions:
REMARK  status: ('A' for Active; 'I' for Inactive)
REMARK    1  A    between atoms: C_2  and  C_14
REMARK    2  A    between atoms: N_3  and  C_4
REMARK    3  A    between atoms: C_4  and  C_5
REMARK    4  A    between atoms: C_16  and  S_17
REMARK    5  A    between atoms: S_17  and  N_20
REMARK                            x       y       z     vdW  Elec       q    Type
REMARK                         _______ _______ _______ _____ _____    ______ ____
ROOT
ATOM      1  C   UNL     1       2.764   5.129  18.700  0.00  0.00    +0.000 A 
ATOM      2  C   UNL     1       3.766   5.688  17.881  0.00  0.00    +0.000 A 
ATOM      3  C   UNL     1       4.398   4.891  16.932  0.00  0.00    +0.000 A 
ATOM      4  C   UNL     1       4.025   3.547  16.816  0.00  0.00    +0.000 A 
ATOM      5  C   UNL     1       2.938   3.037  17.534  0.00  0.00    +0.000 A 
ATOM      6  C   UNL     1       2.292   3.829  18.472  0.00  0.00    +0.000 A 
ATOM      7 CL   UNL     1       0.934   3.124  19.277  0.00  0.00    +0.000 Cl
ENDROOT
BRANCH   1   9
ATOM      8  O   UNL     1       2.264   5.287  20.988  0.00  0.00    +0.000 OA
ATOM      9  C   UNL     1       2.329   5.855  19.905  0.00  0.00    +0.000 C 
ATOM     10  N   UNL     1       2.081   7.192  19.766  0.00  0.00    +0.000 N 
ATOM     11  H   UNL     1       1.855   7.599  18.866  0.00  0.00    +0.000 HD
BRANCH  10  12
ATOM     12  C   UNL     1       1.729   7.946  20.937  0.00  0.00    +0.000 C 
BRANCH  12  13
ATOM     13  C   UNL     1       0.868   9.088  20.544  0.00  0.00    +0.000 A 
ATOM     14  C   UNL     1       0.211   9.984  21.363  0.00  0.00    +0.000 A 
ATOM     15  N   UNL     1      -0.511  10.790  20.524  0.00  0.00    +0.000 N 
ATOM     16  C   UNL     1      -1.390  11.826  20.829  0.00  0.00    +0.000 A 
ATOM     17  C   UNL     1      -2.018  12.465  19.827  0.00  0.00    +0.000 A 
ATOM     18  C   UNL     1      -1.755  12.052  18.455  0.00  0.00    +0.000 A 
ATOM     19  C   UNL     1      -0.898  11.053  18.169  0.00  0.00    +0.000 A 
ATOM     20  C   UNL     1      -0.233  10.373  19.227  0.00  0.00    +0.000 A 
ATOM     21  N   UNL     1       0.608   9.363  19.215  0.00  0.00    +0.000 NA
ENDBRANCH  12  13
ENDBRANCH  10  12
ENDBRANCH   1   9
BRANCH   3  22
ATOM     22  S   UNL     1       5.564   5.610  15.778  0.00  0.00    +0.000 S 
ATOM     23  O   UNL     1       5.700   4.684  14.688  0.00  0.00    +0.000 OA
ATOM     24  O   UNL     1       5.097   6.978  15.545  0.00  0.00    +0.000 OA
BRANCH  22  25
ATOM     25  N   UNL     1       7.053   5.711  16.566  0.00  0.00    +0.000 NA
ATOM     26  C   UNL     1       7.523   4.628  17.443  0.00  0.00    +0.000 C 
ATOM     27  C   UNL     1       7.421   5.232  18.830  0.00  0.00    +0.000 C 
ATOM     28  C   UNL     1       7.810   6.693  18.609  0.00  0.00    +0.000 C 
ATOM     29  C   UNL     1       7.530   6.987  17.129  0.00  0.00    +0.000 C 
ENDBRANCH  22  25
ENDBRANCH   3  22
TORSDOF 5
ENDMDL
MODEL 3
REMARK VINA RESULT:      -8.7      1.697      2.239
REMARK  Name = 
REMARK  5 active torsions:
REMARK  status: ('A' for Active; 'I' for Inactive)
REMARK    1  A    between atoms: C_2  and  C_14
REMARK    2  A    between atoms: N_3  and  C_4
REMARK    3  A    between atoms: C_4  and  C_5
REMARK    4  A    between atoms: C_16  and  S_17
REMARK    5  A    between atoms: S_17  and  N_20
REMARK                            x       y       z     vdW  Elec       q    Type
REMARK                         _______ _______ _______ _____ _____    ______ ____
ROOT
ATOM      1  C   UNL     1       2.765   5.126  18.625  0.00  0.00    +0.000 A 
ATOM      2  C   UNL     1       3.753   5.710  17.807  0.00  0.00    +0.000 A 
ATOM      3  C   UNL     1       4.408   4.929  16.860  0.00  0.00    +0.000 A 
ATOM      4  C   UNL     1       4.071   3.576  16.745  0.00  0.00    +0.000 A 
ATOM      5  C   UNL     1       2.997   3.038  17.462  0.00  0.00    +0.000 A 
ATOM      6  C   UNL     1       2.329   3.813  18.399  0.00  0.00    +0.000 A 
ATOM      7 CL   UNL     1       0.990   3.073  19.203  0.00  0.00    +0.000 Cl
ENDROOT
BRANCH   1   9
ATOM      8  O   UNL     1       2.189   5.255  20.897  0.00  0.00    +0.000 OA
ATOM      9  C   UNL     1       2.310   5.842  19.829  0.00  0.00    +0.000 C 
ATOM     10  N   UNL     1       2.107   7.188  19.707  0.00  0.00    +0.000 N 
ATOM     11  H   UNL     1       1.925   7.619  18.809  0.00  0.00    +0.000 HD
BRANCH  10  12
ATOM     12  C   UNL     1       1.736   7.931  20.880  0.00  0.00    +0.000 C 
BRANCH  12  13
ATOM     13  C   UNL     1       0.888   9.082  20.484  0.00  0.00    +0.000 A 
ATOM     14  C   UNL     1       0.781   9.676  19.243  0.00  0.00    +0.000 A 
ATOM     15  N   UNL     1      -0.063  10.741  19.416  0.00  0.00    +0.000 N 
ATOM     16  C   UNL     1      -0.471  11.706  18.500  0.00  0.00    +0.000 A 
ATOM     17  C   UNL     1      -1.290  12.690  18.910  0.00  0.00    +0.000 A 
ATOM     18  C   UNL     1      -1.725  12.710  20.301  0.00  0.00    +0.000 A 
ATOM     19  C   UNL     1      -1.331  11.767  21.178  0.00  0.00    +0.000 A 
ATOM     20  C   UNL     1      -0.462  10.726  20.749  0.00  0.00    +0.000 A 
ATOM     21  N   UNL     1       0.084   9.726  21.404  0.00  0.00    +0.000 NA
ENDBRANCH  12  13
ENDBRANCH  10  12
ENDBRANCH   1   9
BRANCH   3  22
ATOM     22  S   UNL     1       5.555   5.678  15.705  0.00  0.00    +0.000 S 
ATOM     23  O   UNL     1       5.682   4.775  14.595  0.00  0.00    +0.000 OA
ATOM     24  O   UNL     1       5.077   7.048  15.506  0.00  0.00    +0.000 OA
BRANCH  22  25
ATOM     25  N   UNL     1       7.053   5.772  16.477  0.00  0.00    +0.000 NA
ATOM     26  C   UNL     1       7.566   4.650  17.279  0.00  0.00    +0.000 C 
ATOM     27  C   UNL     1       7.470   5.166  18.701  0.00  0.00    +0.000 C 
ATOM     28  C   UNL     1       7.816   6.647  18.565  0.00  0.00    +0.000 C 
ATOM     29  C   UNL     1       7.505   7.024  17.111  0.00  0.00    +0.000 C 
ENDBRANCH  22  25
ENDBRANCH   3  22
TORSDOF 5
ENDMDL
MODEL 4
REMARK VINA RESULT:      -8.6      0.599      1.161
REMARK  Name = 
REMARK  5 active torsions:
REMARK  status: ('A' for Active; 'I' for Inactive)
REMARK    1  A    between atoms: C_2  and  C_14
REMARK    2  A    between atoms: N_3  and  C_4
REMARK    3  A    between atoms: C_4  and  C_5
REMARK    4  A    between atoms: C_16  and  S_17
REMARK    5  A    between atoms: S_17  and  N_20
REMARK                            x       y       z     vdW  Elec       q    Type
REMARK                         _______ _______ _______ _____ _____    ______ ____
ROOT
ATOM      1  C   UNL     1       2.588   6.568  18.798  0.00  0.00    +0.000 A 
ATOM      2  C   UNL     1       3.533   6.706  17.761  0.00  0.00    +0.000 A 
ATOM      3  C   UNL     1       4.304   5.611  17.387  0.00  0.00    +0.000 A 
ATOM      4  C   UNL     1       4.126   4.395  18.055  0.00  0.00    +0.000 A 
ATOM      5  C   UNL     1       3.094   4.228  18.985  0.00  0.00    +0.000 A 
ATOM      6  C   UNL     1       2.310   5.312  19.354  0.00  0.00    +0.000 A 
ATOM      7 CL   UNL     1       1.034   4.997  20.477  0.00  0.00    +0.000 Cl
ENDROOT
BRANCH   1   9
ATOM      8  O   UNL     1       1.934   7.878  20.632  0.00  0.00    +0.000 OA
ATOM      9  C   UNL     1       2.012   7.775  19.415  0.00  0.00    +0.000 C 
ATOM     10  N   UNL     1       1.647   8.786  18.570  0.00  0.00    +0.000 N 
ATOM     11  H   UNL     1       1.439   8.614  17.594  0.00  0.00    +0.000 HD
BRANCH  10  12
ATOM     12  C   UNL     1       1.152  10.008  19.143  0.00  0.00    +0.000 C 
BRANCH  12  13
ATOM     13  C   UNL     1      -0.230  10.251  18.660  0.00  0.00    +0.000 A 
ATOM     14  C   UNL     1      -0.823   9.790  17.503  0.00  0.00    +0.000 A 
ATOM     15  N   UNL     1      -2.070  10.357  17.477  0.00  0.00    +0.000 N 
ATOM     16  C   UNL     1      -3.064  10.267  16.507  0.00  0.00    +0.000 A 
ATOM     17  C   UNL     1      -4.211  10.945  16.684  0.00  0.00    +0.000 A 
ATOM     18  C   UNL     1      -4.375  11.749  17.889  0.00  0.00    +0.000 A 
ATOM     19  C   UNL     1      -3.410  11.823  18.826  0.00  0.00    +0.000 A 
ATOM     20  C   UNL     1      -2.194  11.109  18.640  0.00  0.00    +0.000 A 
ATOM     21  N   UNL     1      -1.105  11.045  19.375  0.00  0.00    +0.000 NA
ENDBRANCH  12  13
ENDBRANCH  10  12
ENDBRANCH   1   9
BRANCH   3  22
ATOM     22  S   UNL     1       5.401   5.716  15.974  0.00  0.00    +0.000 S 
ATOM     23  O   UNL     1       5.333   4.452  15.296  0.00  0.00    +0.000 OA
ATOM     24  O   UNL     1       5.040   6.956  15.285  0.00  0.00    +0.000 OA
BRANCH  22  25
ATOM     25  N   UNL     1       6.969   5.905  16.570  0.00  0.00    +0.000 NA
ATOM     26  C   UNL     1       7.630   4.830  17.324  0.00  0.00    +0.000 C 
ATOM     27  C   UNL     1       7.666   5.368  18.741  0.00  0.00    +0.000 C 
ATOM     28  C   UNL     1       7.911   6.863  18.546  0.00  0.00    +0.000 C 
ATOM     29  C   UNL     1       7.419   7.193  17.131  0.00  0.00    +0.000 C 
ENDBRANCH  22  25
ENDBRANCH   3  22
TORSDOF 5
ENDMDL
MODEL 5
REMARK VINA RESULT:      -8.4      3.156      4.781
REMARK  Name = 
REMARK  5 active torsions:
REMARK  status: ('A' for Active; 'I' for Inactive)
REMARK    1  A    between atoms: C_2  and  C_14
REMARK    2  A    between atoms: N_3  and  C_4
REMARK    3  A    between atoms: C_4  and  C_5
REMARK    4  A    between atoms: C_16  and  S_17
REMARK    5  A    between atoms: S_17  and  N_20
REMARK                            x       y       z     vdW  Elec       q    Type
REMARK                         _______ _______ _______ _____ _____    ______ ____
ROOT
ATOM      1  C   UNL     1       4.179   5.996  17.795  0.00  0.00    +0.000 A 
ATOM      2  C   UNL     1       3.346   4.868  17.947  0.00  0.00    +0.000 A 
ATOM      3  C   UNL     1       3.909   3.596  17.943  0.00  0.00    +0.000 A 
ATOM      4  C   UNL     1       5.293   3.466  17.783  0.00  0.00    +0.000 A 
ATOM      5  C   UNL     1       6.125   4.590  17.772  0.00  0.00    +0.000 A 
ATOM      6  C   UNL     1       5.574   5.863  17.790  0.00  0.00    +0.000 A 
ATOM      7 CL   UNL     1       6.685   7.187  17.817  0.00  0.00    +0.000 Cl
ENDROOT
BRANCH   1   9
ATOM      8  O   UNL     1       3.853   7.875  16.428  0.00  0.00    +0.000 OA
ATOM      9  C   UNL     1       3.576   7.299  17.472  0.00  0.00    +0.000 C 
ATOM     10  N   UNL     1       2.648   7.786  18.351  0.00  0.00    +0.000 N 
ATOM     11  H   UNL     1       2.622   7.484  19.318  0.00  0.00    +0.000 HD
BRANCH  10  12
ATOM     12  C   UNL     1       1.984   9.019  18.028  0.00  0.00    +0.000 C 
BRANCH  12  13
ATOM     13  C   UNL     1       1.179   9.462  19.193  0.00  0.00    +0.000 A 
ATOM     14  C   UNL     1       0.391  10.589  19.307  0.00  0.00    +0.000 A 
ATOM     15  N   UNL     1      -0.071  10.586  20.596  0.00  0.00    +0.000 N 
ATOM     16  C   UNL     1      -0.864  11.522  21.255  0.00  0.00    +0.000 A 
ATOM     17  C   UNL     1      -1.170  11.322  22.549  0.00  0.00    +0.000 A 
ATOM     18  C   UNL     1      -0.661  10.131  23.217  0.00  0.00    +0.000 A 
ATOM     19  C   UNL     1       0.099   9.228  22.568  0.00  0.00    +0.000 A 
ATOM     20  C   UNL     1       0.427   9.437  21.200  0.00  0.00    +0.000 A 
ATOM     21  N   UNL     1       1.166   8.736  20.368  0.00  0.00    +0.000 NA
ENDBRANCH  12  13
ENDBRANCH  10  12
ENDBRANCH   1   9
BRANCH   3  22
ATOM     22  S   UNL     1       2.897   2.157  18.286  0.00  0.00    +0.000 S 
ATOM     23  O   UNL     1       1.857   2.131  17.296  0.00  0.00    +0.000 OA
ATOM     24  O   UNL     1       3.833   1.039  18.420  0.00  0.00    +0.000 OA
BRANCH  22  25
ATOM     25  N   UNL     1       2.178   2.399  19.793  0.00  0.00    +0.000 NA
ATOM     26  C   UNL     1       0.838   2.993  19.909  0.00  0.00    +0.000 C 
ATOM     27  C   UNL     1       1.114   4.368  20.486  0.00  0.00    +0.000 C 
ATOM     28  C   UNL     1       2.276   4.122  21.446  0.00  0.00    +0.000 C 
ATOM     29  C   UNL     1       2.972   2.847  20.952  0.00  0.00    +0.000 C 
ENDBRANCH  22  25
ENDBRANCH   3  22
TORSDOF 5
ENDMDL
MODEL 6
REMARK VINA RESULT:      -8.2      3.260      4.791
REMARK  Name = 
REMARK  5 active torsions:
REMARK  status: ('A' for Active; 'I' for Inactive)
REMARK    1  A    between atoms: C_2  and  C_14
REMARK    2  A    between atoms: N_3  and  C_4
REMARK    3  A    between atoms: C_4  and  C_5
REMARK    4  A    between atoms: C_16  and  S_17
REMARK    5  A    between atoms: S_17  and  N_20
REMARK                            x       y       z     vdW  Elec       q    Type
REMARK                         _______ _______ _______ _____ _____    ______ ____
ROOT
ATOM      1  C   UNL     1       4.106   6.031  17.746  0.00  0.00    +0.000 A 
ATOM      2  C   UNL     1       3.294   4.891  17.919  0.00  0.00    +0.000 A 
ATOM      3  C   UNL     1       3.869   3.626  17.861  0.00  0.00    +0.000 A 
ATOM      4  C   UNL     1       5.244   3.514  17.627  0.00  0.00    +0.000 A 
ATOM      5  C   UNL     1       6.063   4.647  17.595  0.00  0.00    +0.000 A 
ATOM      6  C   UNL     1       5.501   5.913  17.666  0.00  0.00    +0.000 A 
ATOM      7 CL   UNL     1       6.598   7.250  17.660  0.00  0.00    +0.000 Cl
ENDROOT
BRANCH   1   9
ATOM      8  O   UNL     1       3.699   7.937  16.439  0.00  0.00    +0.000 OA
ATOM      9  C   UNL     1       3.474   7.334  17.480  0.00  0.00    +0.000 C 
ATOM     10  N   UNL     1       2.578   7.787  18.408  0.00  0.00    +0.000 N 
ATOM     11  H   UNL     1       2.597   7.462  19.367  0.00  0.00    +0.000 HD
BRANCH  10  12
ATOM     12  C   UNL     1       1.886   9.018  18.143  0.00  0.00    +0.000 C 
BRANCH  12  13
ATOM     13  C   UNL     1       1.217   9.481  19.384  0.00  0.00    +0.000 A 
ATOM     14  C   UNL     1       1.055   8.798  20.572  0.00  0.00    +0.000 A 
ATOM     15  N   UNL     1       0.306   9.621  21.371  0.00  0.00    +0.000 N 
ATOM     16  C   UNL     1      -0.188   9.401  22.654  0.00  0.00    +0.000 A 
ATOM     17  C   UNL     1      -0.936  10.353  23.236  0.00  0.00    +0.000 A 
ATOM     18  C   UNL     1      -1.204  11.585  22.504  0.00  0.00    +0.000 A 
ATOM     19  C   UNL     1      -0.715  11.791  21.266  0.00  0.00    +0.000 A 
ATOM     20  C   UNL     1       0.076  10.785  20.646  0.00  0.00    +0.000 A 
ATOM     21  N   UNL     1       0.631  10.729  19.455  0.00  0.00    +0.000 NA
ENDBRANCH  12  13
ENDBRANCH  10  12
ENDBRANCH   1   9
BRANCH   3  22
ATOM     22  S   UNL     1       2.891   2.170  18.229  0.00  0.00    +0.000 S 
ATOM     23  O   UNL     1       1.826   2.127  17.267  0.00  0.00    +0.000 OA
ATOM     24  O   UNL     1       3.849   1.068  18.336  0.00  0.00    +0.000 OA
BRANCH  22  25
ATOM     25  N   UNL     1       2.209   2.397  19.755  0.00  0.00    +0.000 NA
ATOM     26  C   UNL     1       0.844   2.925  19.906  0.00  0.00    +0.000 C 
ATOM     27  C   UNL     1       1.069   4.320  20.456  0.00  0.00    +0.000 C 
ATOM     28  C   UNL     1       2.272   4.148  21.381  0.00  0.00    +0.000 C 
ATOM     29  C   UNL     1       3.015   2.902  20.882  0.00  0.00    +0.000 C 
ENDBRANCH  22  25
ENDBRANCH   3  22
TORSDOF 5
ENDMDL
MODEL 7
REMARK VINA RESULT:      -8.1      1.496      2.004
REMARK  Name = 
REMARK  5 active torsions:
REMARK  status: ('A' for Active; 'I' for Inactive)
REMARK    1  A    between atoms: C_2  and  C_14
REMARK    2  A    between atoms: N_3  and  C_4
REMARK    3  A    between atoms: C_4  and  C_5
REMARK    4  A    between atoms: C_16  and  S_17
REMARK    5  A    between atoms: S_17  and  N_20
REMARK                            x       y       z     vdW  Elec       q    Type
REMARK                         _______ _______ _______ _____ _____    ______ ____
ROOT
ATOM      1  C   UNL     1       2.590   6.761  19.104  0.00  0.00    +0.000 A 
ATOM      2  C   UNL     1       3.534   7.102  18.114  0.00  0.00    +0.000 A 
ATOM      3  C   UNL     1       4.465   6.155  17.699  0.00  0.00    +0.000 A 
ATOM      4  C   UNL     1       4.443   4.882  18.280  0.00  0.00    +0.000 A 
ATOM      5  C   UNL     1       3.420   4.508  19.158  0.00  0.00    +0.000 A 
ATOM      6  C   UNL     1       2.480   5.443  19.567  0.00  0.00    +0.000 A 
ATOM      7 CL   UNL     1       1.231   4.875  20.619  0.00  0.00    +0.000 Cl
ENDROOT
BRANCH   1   9
ATOM      8  O   UNL     1       1.600   7.772  20.976  0.00  0.00    +0.000 OA
ATOM      9  C   UNL     1       1.832   7.829  19.776  0.00  0.00    +0.000 C 
ATOM     10  N   UNL     1       1.474   8.906  19.013  0.00  0.00    +0.000 N 
ATOM     11  H   UNL     1       1.401   8.842  18.005  0.00  0.00    +0.000 HD
BRANCH  10  12
ATOM     12  C   UNL     1       0.799  10.001  19.654  0.00  0.00    +0.000 C 
BRANCH  12  13
ATOM     13  C   UNL     1      -0.426  10.338  18.888  0.00  0.00    +0.000 A 
ATOM     14  C   UNL     1      -1.488  11.128  19.279  0.00  0.00    +0.000 A 
ATOM     15  N   UNL     1      -2.396  11.060  18.256  0.00  0.00    +0.000 N 
ATOM     16  C   UNL     1      -3.663  11.627  18.156  0.00  0.00    +0.000 A 
ATOM     17  C   UNL     1      -4.397  11.394  17.055  0.00  0.00    +0.000 A 
ATOM     18  C   UNL     1      -3.839  10.555  16.002  0.00  0.00    +0.000 A 
ATOM     19  C   UNL     1      -2.609  10.016  16.104  0.00  0.00    +0.000 A 
ATOM     20  C   UNL     1      -1.830  10.259  17.269  0.00  0.00    +0.000 A 
ATOM     21  N   UNL     1      -0.638   9.830  17.621  0.00  0.00    +0.000 NA
ENDBRANCH  12  13
ENDBRANCH  10  12
ENDBRANCH   1   9
BRANCH   3  22
ATOM     22  S   UNL     1       5.574   6.510  16.338  0.00  0.00    +0.000 S 
ATOM     23  O   UNL     1       4.792   7.150  15.316  0.00  0.00    +0.000 OA
ATOM     24  O   UNL     1       6.726   7.188  16.934  0.00  0.00    +0.000 OA
BRANCH  22  25
ATOM     25  N   UNL     1       6.114   5.031  15.733  0.00  0.00    +0.000 NA
ATOM     26  C   UNL     1       7.469   4.886  15.177  0.00  0.00    +0.000 C 
ATOM     27  C   UNL     1       7.221   4.726  13.690  0.00  0.00    +0.000 C 
ATOM     28  C   UNL     1       5.933   3.907  13.631  0.00  0.00    +0.000 C 
ATOM     29  C   UNL     1       5.216   4.148  14.966  0.00  0.00    +0.000 C 
ENDBRANCH  22  25
ENDBRANCH   3  22
TORSDOF 5
ENDMDL
MODEL 8
REMARK VINA RESULT:      -8.0      1.238      1.716
REMARK  Name = 
REMARK  5 active torsions:
REMARK  status: ('A' for Active; 'I' for Inactive)
REMARK    1  A    between atoms: C_2  and  C_14
REMARK    2  A    between atoms: N_3  and  C_4
REMARK    3  A    between atoms: C_4  and  C_5
REMARK    4  A    between atoms: C_16  and  S_17
REMARK    5  A    between atoms: S_17  and  N_20
REMARK                            x       y       z     vdW  Elec       q    Type
REMARK                         _______ _______ _______ _____ _____    ______ ____
ROOT
ATOM      1  C   UNL     1       2.614   7.725  18.600  0.00  0.00    +0.000 A 
ATOM      2  C   UNL     1       3.500   7.413  17.549  0.00  0.00    +0.000 A 
ATOM      3  C   UNL     1       4.265   6.253  17.619  0.00  0.00    +0.000 A 
ATOM      4  C   UNL     1       4.139   5.423  18.739  0.00  0.00    +0.000 A 
ATOM      5  C   UNL     1       3.161   5.666  19.709  0.00  0.00    +0.000 A 
ATOM      6  C   UNL     1       2.384   6.814  19.640  0.00  0.00    +0.000 A 
ATOM      7 CL   UNL     1       1.174   7.004  20.860  0.00  0.00    +0.000 Cl
ENDROOT
BRANCH   1   9
ATOM      8  O   UNL     1       2.452   9.975  17.953  0.00  0.00    +0.000 OA
ATOM      9  C   UNL     1       2.057   9.085  18.694  0.00  0.00    +0.000 C 
ATOM     10  N   UNL     1       1.038   9.274  19.585  0.00  0.00    +0.000 N 
ATOM     11  H   UNL     1       0.902   8.656  20.376  0.00  0.00    +0.000 HD
BRANCH  10  12
ATOM     12  C   UNL     1       0.419  10.570  19.648  0.00  0.00    +0.000 C 
BRANCH  12  13
ATOM     13  C   UNL     1      -0.776  10.586  18.771  0.00  0.00    +0.000 A 
ATOM     14  C   UNL     1      -0.931  10.008  17.527  0.00  0.00    +0.000 A 
ATOM     15  N   UNL     1      -2.179  10.376  17.101  0.00  0.00    +0.000 N 
ATOM     16  C   UNL     1      -2.818  10.108  15.894  0.00  0.00    +0.000 A 
ATOM     17  C   UNL     1      -4.048  10.608  15.682  0.00  0.00    +0.000 A 
ATOM     18  C   UNL     1      -4.671  11.411  16.726  0.00  0.00    +0.000 A 
ATOM     19  C   UNL     1      -4.047  11.658  17.894  0.00  0.00    +0.000 A 
ATOM     20  C   UNL     1      -2.745  11.134  18.121  0.00  0.00    +0.000 A 
ATOM     21  N   UNL     1      -1.925  11.257  19.142  0.00  0.00    +0.000 NA
ENDBRANCH  12  13
ENDBRANCH  10  12
ENDBRANCH   1   9
BRANCH   3  22
ATOM     22  S   UNL     1       5.283   5.753  16.232  0.00  0.00    +0.000 S 
ATOM     23  O   UNL     1       4.986   4.373  15.970  0.00  0.00    +0.000 OA
ATOM     24  O   UNL     1       5.075   6.773  15.203  0.00  0.00    +0.000 OA
BRANCH  22  25
ATOM     25  N   UNL     1       6.892   5.856  16.729  0.00  0.00    +0.000 NA
ATOM     26  C   UNL     1       7.536   4.750  17.454  0.00  0.00    +0.000 C 
ATOM     27  C   UNL     1       7.690   5.296  18.860  0.00  0.00    +0.000 C 
ATOM     28  C   UNL     1       8.008   6.772  18.633  0.00  0.00    +0.000 C 
ATOM     29  C   UNL     1       7.449   7.119  17.247  0.00  0.00    +0.000 C 
ENDBRANCH  22  25
ENDBRANCH   3  22
TORSDOF 5
ENDMDL
MODEL 9
REMARK VINA RESULT:      -7.9      4.160      9.068
REMARK  Name = 
REMARK  5 active torsions:
REMARK  status: ('A' for Active; 'I' for Inactive)
REMARK    1  A    between atoms: C_2  and  C_14
REMARK    2  A    between atoms: N_3  and  C_4
REMARK    3  A    between atoms: C_4  and  C_5
REMARK    4  A    between atoms: C_16  and  S_17
REMARK    5  A    between atoms: S_17  and  N_20
REMARK                            x       y       z     vdW  Elec       q    Type
REMARK                         _______ _______ _______ _____ _____    ______ ____
ROOT
ATOM      1  C   UNL     1       0.462  10.905  18.893  0.00  0.00    +0.000 A 
ATOM      2  C   UNL     1       0.820  11.809  19.914  0.00  0.00    +0.000 A 
ATOM      3  C   UNL     1      -0.061  12.825  20.270  0.00  0.00    +0.000 A 
ATOM      4  C   UNL     1      -1.284  12.928  19.600  0.00  0.00    +0.000 A 
ATOM      5  C   UNL     1      -1.691  11.949  18.687  0.00  0.00    +0.000 A 
ATOM      6  C   UNL     1      -0.824  10.924  18.336  0.00  0.00    +0.000 A 
ATOM      7 CL   UNL     1      -1.433   9.739  17.234  0.00  0.00    +0.000 Cl
ENDROOT
BRANCH   1   9
ATOM      8  O   UNL     1       2.240  10.483  17.420  0.00  0.00    +0.000 OA
ATOM      9  C   UNL     1       1.497  10.049  18.291  0.00  0.00    +0.000 C 
ATOM     10  N   UNL     1       1.631   8.789  18.804  0.00  0.00    +0.000 N 
ATOM     11  H   UNL     1       0.872   8.331  19.295  0.00  0.00    +0.000 HD
BRANCH  10  12
ATOM     12  C   UNL     1       2.682   7.952  18.292  0.00  0.00    +0.000 C 
BRANCH  12  13
ATOM     13  C   UNL     1       2.433   6.548  18.699  0.00  0.00    +0.000 A 
ATOM     14  C   UNL     1       2.369   5.425  17.899  0.00  0.00    +0.000 A 
ATOM     15  N   UNL     1       2.037   4.394  18.736  0.00  0.00    +0.000 N 
ATOM     16  C   UNL     1       1.794   3.055  18.441  0.00  0.00    +0.000 A 
ATOM     17  C   UNL     1       1.447   2.220  19.435  0.00  0.00    +0.000 A 
ATOM     18  C   UNL     1       1.339   2.745  20.790  0.00  0.00    +0.000 A 
ATOM     19  C   UNL     1       1.583   4.040  21.067  0.00  0.00    +0.000 A 
ATOM     20  C   UNL     1       1.949   4.928  20.017  0.00  0.00    +0.000 A 
ATOM     21  N   UNL     1       2.201   6.218  20.020  0.00  0.00    +0.000 NA
ENDBRANCH  12  13
ENDBRANCH  10  12
ENDBRANCH   1   9
BRANCH   3  22
ATOM     22  S   UNL     1       0.301  13.890  21.664  0.00  0.00    +0.000 S 
ATOM     23  O   UNL     1       1.711  13.782  21.919  0.00  0.00    +0.000 OA
ATOM     24  O   UNL     1      -0.305  15.183  21.342  0.00  0.00    +0.000 OA
BRANCH  22  25
ATOM     25  N   UNL     1      -0.520  13.265  22.999  0.00  0.00    +0.000 NA
ATOM     26  C   UNL     1      -1.106  11.916  22.968  0.00  0.00    +0.000 C 
ATOM     27  C   UNL     1      -2.598  12.184  22.927  0.00  0.00    +0.000 C 
ATOM     28  C   UNL     1      -2.761  13.415  23.816  0.00  0.00    +0.000 C 
ATOM     29  C   UNL     1      -1.397  14.118  23.821  0.00  0.00    +0.000 C 
ENDBRANCH  22  25
ENDBRANCH   3  22
TORSDOF 5
ENDMDL
