MODEL 1
REMARK VINA RESULT:      -8.8      0.000      0.000
REMARK  Name = 
REMARK  7 active torsions:
REMARK  status: ('A' for Active; 'I' for Inactive)
REMARK    1  A    between atoms: C_1  and  C_2
REMARK    2  A    between atoms: C_2  and  C_3
REMARK    3  A    between atoms: N_7  and  C_8
REMARK    4  A    between atoms: C_8  and  C_9
REMARK    5  A    between atoms: C_12  and  C_13
REMARK    6  A    between atoms: C_13  and  N_14
REMARK    7  A    between atoms: C_15  and  C_17
REMARK                            x       y       z     vdW  Elec       q    Type
REMARK                         _______ _______ _______ _____ _____    ______ ____
ROOT
ATOM      1  C   UNL     1       2.898   6.182  19.352  0.00  0.00    +0.000 A 
ATOM      2  C   UNL     1       2.993   6.928  18.166  0.00  0.00    +0.000 A 
ATOM      3  C   UNL     1       2.385   8.186  18.057  0.00  0.00    +0.000 A 
ATOM      4  C   UNL     1       1.681   8.737  19.136  0.00  0.00    +0.000 A 
ATOM      5  C   UNL     1       1.549   7.975  20.305  0.00  0.00    +0.000 A 
ATOM      6  C   UNL     1       2.160   6.719  20.416  0.00  0.00    +0.000 A 
ENDROOT
BRANCH   1   7
ATOM      7  C   UNL     1       3.634   4.862  19.503  0.00  0.00    +0.000 C 
BRANCH   7  14
ATOM      8  C   UNL     1       6.147   3.602  15.411  0.00  0.00    +0.000 C 
ATOM      9  C   UNL     1       5.711   4.666  16.401  0.00  0.00    +0.000 C 
ATOM     10  C   UNL     1       5.425   6.004  15.715  0.00  0.00    +0.000 C 
ATOM     11  N   UNL     1       6.645   4.834  17.491  0.00  0.00    +0.000 N 
ATOM     12  C   UNL     1       5.990   4.990  18.699  0.00  0.00    +0.000 C 
ATOM     13  O   UNL     1       6.543   5.294  19.740  0.00  0.00    +0.000 OA
ATOM     14  N   UNL     1       4.666   4.723  18.502  0.00  0.00    +0.000 N 
ATOM     15  C   UNL     1       4.455   4.309  17.214  0.00  0.00    +0.000 C 
ATOM     16  O   UNL     1       3.417   3.852  16.754  0.00  0.00    +0.000 OA
ATOM     17  H   UNL     1       7.622   5.081  17.406  0.00  0.00    +0.000 HD
ENDBRANCH   7  14
ENDBRANCH   1   7
BRANCH   4  18
ATOM     18  C   UNL     1       1.127  10.140  19.065  0.00  0.00    +0.000 C 
BRANCH  18  19
ATOM     19  N   UNL     1      -0.055  10.251  18.240  0.00  0.00    +0.000 N 
ATOM     20  C   UNL     1      -1.193  10.832  18.758  0.00  0.00    +0.000 C 
ATOM     21  O   UNL     1      -1.276  11.259  19.905  0.00  0.00    +0.000 OA
ATOM     22  H   UNL     1       0.057  10.161  17.238  0.00  0.00    +0.000 HD
BRANCH  20  23
ATOM     23  C   UNL     1      -2.363  10.954  17.839  0.00  0.00    +0.000 A 
ATOM     24  C   UNL     1      -3.596  11.447  18.286  0.00  0.00    +0.000 A 
ATOM     25  C   UNL     1      -4.663  11.585  17.392  0.00  0.00    +0.000 A 
ATOM     26  C   UNL     1      -4.496  11.234  16.053  0.00  0.00    +0.000 A 
ATOM     27  C   UNL     1      -3.266  10.755  15.615  0.00  0.00    +0.000 A 
ATOM     28  F   UNL     1      -3.112  10.427  14.327  0.00  0.00    +0.000 F 
ATOM     29  C   UNL     1      -2.196  10.615  16.491  0.00  0.00    +0.000 A 
ENDBRANCH  20  23
ENDBRANCH  18  19
ENDBRANCH   4  18
TORSDOF 5
ENDMDL
MODEL 2
REMARK VINA RESULT:      -8.8      0.412      1.010
REMARK  Name = 
REMARK  7 active torsions:
REMARK  status: ('A' for Active; 'I' for Inactive)
REMARK    1  A    between atoms: C_1  and  C_2
REMARK    2  A    between atoms: C_2  and  C_3
REMARK    3  A    between atoms: N_7  and  C_8
REMARK    4  A    between atoms: C_8  and  C_9
REMARK    5  A    between atoms: C_12  and  C_13
REMARK    6  A    between atoms: C_13  and  N_14
REMARK    7  A    between atoms: C_15  and  C_17
REMARK                            x       y       z     vdW  Elec       q    Type
REMARK                         _______ _______ _______ _____ _____    ______ ____
ROOT
ATOM      1  C   UNL     1       2.822   5.966  19.530  0.00  0.00    +0.000 A 
ATOM      2  C   UNL     1       2.128   6.336  20.692  0.00  0.00    +0.000 A 
ATOM      3  C   UNL     1       1.511   7.590  20.793  0.00  0.00    +0.000 A 
ATOM      4  C   UNL     1       1.560   8.499  19.728  0.00  0.00    +0.000 A 
ATOM      5  C   UNL     1       2.288   8.148  18.583  0.00  0.00    +0.000 A 
ATOM      6  C   UNL     1       2.902   6.892  18.481  0.00  0.00    +0.000 A 
ENDROOT
BRANCH   1   7
ATOM      7  C   UNL     1       3.410   4.573  19.384  0.00  0.00    +0.000 C 
BRANCH   7  14
ATOM      8  C   UNL     1       6.146   3.738  15.327  0.00  0.00    +0.000 C 
ATOM      9  C   UNL     1       5.614   4.705  16.368  0.00  0.00    +0.000 C 
ATOM     10  C   UNL     1       5.282   6.072  15.763  0.00  0.00    +0.000 C 
ATOM     11  N   UNL     1       6.495   4.844  17.506  0.00  0.00    +0.000 N 
ATOM     12  C   UNL     1       5.786   4.879  18.692  0.00  0.00    +0.000 C 
ATOM     13  O   UNL     1       6.280   5.137  19.774  0.00  0.00    +0.000 OA
ATOM     14  N   UNL     1       4.487   4.559  18.421  0.00  0.00    +0.000 N 
ATOM     15  C   UNL     1       4.349   4.226  17.100  0.00  0.00    +0.000 C 
ATOM     16  O   UNL     1       3.356   3.750  16.566  0.00  0.00    +0.000 OA
ATOM     17  H   UNL     1       7.459   5.147  17.479  0.00  0.00    +0.000 HD
ENDBRANCH   7  14
ENDBRANCH   1   7
BRANCH   4  18
ATOM     18  C   UNL     1       0.797   9.801  19.784  0.00  0.00    +0.000 C 
BRANCH  18  19
ATOM     19  N   UNL     1      -0.253   9.896  18.795  0.00  0.00    +0.000 N 
ATOM     20  C   UNL     1      -1.308  10.759  19.003  0.00  0.00    +0.000 C 
ATOM     21  O   UNL     1      -1.425  11.460  20.004  0.00  0.00    +0.000 OA
ATOM     22  H   UNL     1      -0.060   9.549  17.864  0.00  0.00    +0.000 HD
BRANCH  20  23
ATOM     23  C   UNL     1      -2.334  10.839  17.922  0.00  0.00    +0.000 A 
ATOM     24  C   UNL     1      -3.572  11.463  18.134  0.00  0.00    +0.000 A 
ATOM     25  C   UNL     1      -4.498  11.555  17.090  0.00  0.00    +0.000 A 
ATOM     26  C   UNL     1      -4.188  11.029  15.837  0.00  0.00    +0.000 A 
ATOM     27  C   UNL     1      -2.953  10.420  15.633  0.00  0.00    +0.000 A 
ATOM     28  F   UNL     1      -2.659   9.923  14.425  0.00  0.00    +0.000 F 
ATOM     29  C   UNL     1      -2.022  10.323  16.660  0.00  0.00    +0.000 A 
ENDBRANCH  20  23
ENDBRANCH  18  19
ENDBRANCH   4  18
TORSDOF 5
ENDMDL
MODEL 3
REMARK VINA RESULT:      -8.7      0.909      1.287
REMARK  Name = 
REMARK  7 active torsions:
REMARK  status: ('A' for Active; 'I' for Inactive)
REMARK    1  A    between atoms: C_1  and  C_2
REMARK    2  A    between atoms: C_2  and  C_3
REMARK    3  A    between atoms: N_7  and  C_8
REMARK    4  A    between atoms: C_8  and  C_9
REMARK    5  A    between atoms: C_12  and  C_13
REMARK    6  A    between atoms: C_13  and  N_14
REMARK    7  A    between atoms: C_15  and  C_17
REMARK                            x       y       z     vdW  Elec       q    Type
REMARK                         _______ _______ _______ _____ _____    ______ ____
ROOT
ATOM      1  C   UNL     1       2.881   6.190  19.265  0.00  0.00    +0.000 A 
ATOM      2  C   UNL     1       3.001   6.923  18.074  0.00  0.00    +0.000 A 
ATOM      3  C   UNL     1       2.457   8.210  17.963  0.00  0.00    +0.000 A 
ATOM      4  C   UNL     1       1.794   8.802  19.047  0.00  0.00    +0.000 A 
ATOM      5  C   UNL     1       1.637   8.055  20.222  0.00  0.00    +0.000 A 
ATOM      6  C   UNL     1       2.184   6.769  20.334  0.00  0.00    +0.000 A 
ENDROOT
BRANCH   1   7
ATOM      7  C   UNL     1       3.550   4.834  19.416  0.00  0.00    +0.000 C 
BRANCH   7  14
ATOM      8  C   UNL     1       6.117   3.495  15.384  0.00  0.00    +0.000 C 
ATOM      9  C   UNL     1       5.696   4.571  16.367  0.00  0.00    +0.000 C 
ATOM     10  C   UNL     1       5.478   5.921  15.679  0.00  0.00    +0.000 C 
ATOM     11  N   UNL     1       6.608   4.700  17.481  0.00  0.00    +0.000 N 
ATOM     12  C   UNL     1       5.929   4.876  18.673  0.00  0.00    +0.000 C 
ATOM     13  O   UNL     1       6.466   5.156  19.728  0.00  0.00    +0.000 OA
ATOM     14  N   UNL     1       4.601   4.660  18.441  0.00  0.00    +0.000 N 
ATOM     15  C   UNL     1       4.408   4.258  17.146  0.00  0.00    +0.000 C 
ATOM     16  O   UNL     1       3.365   3.842  16.658  0.00  0.00    +0.000 OA
ATOM     17  H   UNL     1       7.596   4.910  17.422  0.00  0.00    +0.000 HD
ENDBRANCH   7  14
ENDBRANCH   1   7
BRANCH   4  18
ATOM     18  C   UNL     1       1.313  10.232  18.973  0.00  0.00    +0.000 C 
BRANCH  18  19
ATOM     19  N   UNL     1       0.189  10.415  18.082  0.00  0.00    +0.000 N 
ATOM     20  C   UNL     1      -1.093  10.366  18.586  0.00  0.00    +0.000 C 
ATOM     21  O   UNL     1      -1.351  10.158  19.768  0.00  0.00    +0.000 OA
ATOM     22  H   UNL     1       0.364  10.845  17.183  0.00  0.00    +0.000 HD
BRANCH  20  23
ATOM     23  C   UNL     1      -2.204  10.607  17.620  0.00  0.00    +0.000 A 
ATOM     24  C   UNL     1      -2.219  10.002  16.356  0.00  0.00    +0.000 A 
ATOM     25  C   UNL     1      -3.294  10.217  15.487  0.00  0.00    +0.000 A 
ATOM     26  C   UNL     1      -4.354  11.032  15.882  0.00  0.00    +0.000 A 
ATOM     27  C   UNL     1      -4.336  11.621  17.142  0.00  0.00    +0.000 A 
ATOM     28  F   UNL     1      -5.360  12.397  17.517  0.00  0.00    +0.000 F 
ATOM     29  C   UNL     1      -3.276  11.415  18.017  0.00  0.00    +0.000 A 
ENDBRANCH  20  23
ENDBRANCH  18  19
ENDBRANCH   4  18
TORSDOF 5
ENDMDL
MODEL 4
REMARK VINA RESULT:      -8.7      0.853      1.546
REMARK  Name = 
REMARK  7 active torsions:
REMARK  status: ('A' for Active; 'I' for Inactive)
REMARK    1  A    between atoms: C_1  and  C_2
REMARK    2  A    between atoms: C_2  and  C_3
REMARK    3  A    between atoms: N_7  and  C_8
REMARK    4  A    between atoms: C_8  and  C_9
REMARK    5  A    between atoms: C_12  and  C_13
REMARK    6  A    between atoms: C_13  and  N_14
REMARK    7  A    between atoms: C_15  and  C_17
REMARK                            x       y       z     vdW  Elec       q    Type
REMARK                         _______ _______ _______ _____ _____    ______ ____
ROOT
ATOM      1  C   UNL     1       2.870   6.042  19.451  0.00  0.00    +0.000 A 
ATOM      2  C   UNL     1       2.227   6.504  20.611  0.00  0.00    +0.000 A 
ATOM      3  C   UNL     1       1.619   7.766  20.641  0.00  0.00    +0.000 A 
ATOM      4  C   UNL     1       1.624   8.591  19.508  0.00  0.00    +0.000 A 
ATOM      5  C   UNL     1       2.302   8.149  18.364  0.00  0.00    +0.000 A 
ATOM      6  C   UNL     1       2.907   6.885  18.332  0.00  0.00    +0.000 A 
ENDROOT
BRANCH   1   7
ATOM      7  C   UNL     1       3.447   4.638  19.387  0.00  0.00    +0.000 C 
BRANCH   7  14
ATOM      8  C   UNL     1       6.145   3.608  15.349  0.00  0.00    +0.000 C 
ATOM      9  C   UNL     1       5.655   4.617  16.371  0.00  0.00    +0.000 C 
ATOM     10  C   UNL     1       5.383   5.985  15.740  0.00  0.00    +0.000 C 
ATOM     11  N   UNL     1       6.541   4.739  17.507  0.00  0.00    +0.000 N 
ATOM     12  C   UNL     1       5.834   4.828  18.692  0.00  0.00    +0.000 C 
ATOM     13  O   UNL     1       6.339   5.085  19.769  0.00  0.00    +0.000 OA
ATOM     14  N   UNL     1       4.522   4.559  18.426  0.00  0.00    +0.000 N 
ATOM     15  C   UNL     1       4.371   4.208  17.111  0.00  0.00    +0.000 C 
ATOM     16  O   UNL     1       3.358   3.764  16.585  0.00  0.00    +0.000 OA
ATOM     17  H   UNL     1       7.518   5.000  17.475  0.00  0.00    +0.000 HD
ENDBRANCH   7  14
ENDBRANCH   1   7
BRANCH   4  18
ATOM     18  C   UNL     1       0.868   9.898  19.498  0.00  0.00    +0.000 C 
BRANCH  18  19
ATOM     19  N   UNL     1      -0.133   9.975  18.457  0.00  0.00    +0.000 N 
ATOM     20  C   UNL     1      -1.321  10.628  18.704  0.00  0.00    +0.000 C 
ATOM     21  O   UNL     1      -1.600  11.148  19.781  0.00  0.00    +0.000 OA
ATOM     22  H   UNL     1       0.160   9.801  17.505  0.00  0.00    +0.000 HD
BRANCH  20  23
ATOM     23  C   UNL     1      -2.292  10.707  17.574  0.00  0.00    +0.000 A 
ATOM     24  C   UNL     1      -2.119   9.952  16.406  0.00  0.00    +0.000 A 
ATOM     25  C   UNL     1      -3.067  10.019  15.380  0.00  0.00    +0.000 A 
ATOM     26  C   UNL     1      -4.187  10.838  15.521  0.00  0.00    +0.000 A 
ATOM     27  C   UNL     1      -4.356  11.577  16.687  0.00  0.00    +0.000 A 
ATOM     28  F   UNL     1      -5.437  12.355  16.819  0.00  0.00    +0.000 F 
ATOM     29  C   UNL     1      -3.424  11.518  17.717  0.00  0.00    +0.000 A 
ENDBRANCH  20  23
ENDBRANCH  18  19
ENDBRANCH   4  18
TORSDOF 5
ENDMDL
MODEL 5
REMARK VINA RESULT:      -8.6      1.486      2.375
REMARK  Name = 
REMARK  7 active torsions:
REMARK  status: ('A' for Active; 'I' for Inactive)
REMARK    1  A    between atoms: C_1  and  C_2
REMARK    2  A    between atoms: C_2  and  C_3
REMARK    3  A    between atoms: N_7  and  C_8
REMARK    4  A    between atoms: C_8  and  C_9
REMARK    5  A    between atoms: C_12  and  C_13
REMARK    6  A    between atoms: C_13  and  N_14
REMARK    7  A    between atoms: C_15  and  C_17
REMARK                            x       y       z     vdW  Elec       q    Type
REMARK                         _______ _______ _______ _____ _____    ______ ____
ROOT
ATOM      1  C   UNL     1       2.747   7.033  18.304  0.00  0.00    +0.000 A 
ATOM      2  C   UNL     1       2.347   6.982  19.648  0.00  0.00    +0.000 A 
ATOM      3  C   UNL     1       1.611   8.029  20.219  0.00  0.00    +0.000 A 
ATOM      4  C   UNL     1       1.242   9.145  19.455  0.00  0.00    +0.000 A 
ATOM      5  C   UNL     1       1.677   9.215  18.125  0.00  0.00    +0.000 A 
ATOM      6  C   UNL     1       2.410   8.167  17.553  0.00  0.00    +0.000 A 
ENDROOT
BRANCH   1   7
ATOM      7  C   UNL     1       3.463   5.858  17.660  0.00  0.00    +0.000 C 
BRANCH   7  14
ATOM      8  C   UNL     1       8.256   6.581  18.735  0.00  0.00    +0.000 C 
ATOM      9  C   UNL     1       7.193   5.893  17.898  0.00  0.00    +0.000 C 
ATOM     10  C   UNL     1       7.569   4.445  17.574  0.00  0.00    +0.000 C 
ATOM     11  N   UNL     1       6.869   6.624  16.694  0.00  0.00    +0.000 N 
ATOM     12  C   UNL     1       5.507   6.623  16.454  0.00  0.00    +0.000 C 
ATOM     13  O   UNL     1       4.994   7.041  15.432  0.00  0.00    +0.000 OA
ATOM     14  N   UNL     1       4.882   6.108  17.552  0.00  0.00    +0.000 N 
ATOM     15  C   UNL     1       5.797   5.855  18.540  0.00  0.00    +0.000 C 
ATOM     16  O   UNL     1       5.554   5.532  19.696  0.00  0.00    +0.000 OA
ATOM     17  H   UNL     1       7.515   6.880  15.959  0.00  0.00    +0.000 HD
ENDBRANCH   7  14
ENDBRANCH   1   7
BRANCH   4  18
ATOM     18  C   UNL     1       0.348  10.217  20.030  0.00  0.00    +0.000 C 
BRANCH  18  19
ATOM     19  N   UNL     1      -0.914  10.347  19.336  0.00  0.00    +0.000 N 
ATOM     20  C   UNL     1      -1.664  11.492  19.498  0.00  0.00    +0.000 C 
ATOM     21  O   UNL     1      -1.331  12.426  20.221  0.00  0.00    +0.000 OA
ATOM     22  H   UNL     1      -1.085   9.737  18.547  0.00  0.00    +0.000 HD
BRANCH  20  23
ATOM     23  C   UNL     1      -2.935  11.579  18.720  0.00  0.00    +0.000 A 
ATOM     24  C   UNL     1      -4.088  12.159  19.265  0.00  0.00    +0.000 A 
ATOM     25  C   UNL     1      -5.253  12.260  18.496  0.00  0.00    +0.000 A 
ATOM     26  C   UNL     1      -5.264  11.785  17.186  0.00  0.00    +0.000 A 
ATOM     27  C   UNL     1      -4.112  11.220  16.649  0.00  0.00    +0.000 A 
ATOM     28  F   UNL     1      -4.127  10.773  15.388  0.00  0.00    +0.000 F 
ATOM     29  C   UNL     1      -2.946  11.115  17.399  0.00  0.00    +0.000 A 
ENDBRANCH  20  23
ENDBRANCH  18  19
ENDBRANCH   4  18
TORSDOF 5
ENDMDL
MODEL 6
REMARK VINA RESULT:      -8.6      1.655      2.836
REMARK  Name = 
REMARK  7 active torsions:
REMARK  status: ('A' for Active; 'I' for Inactive)
REMARK    1  A    between atoms: C_1  and  C_2
REMARK    2  A    between atoms: C_2  and  C_3
REMARK    3  A    between atoms: N_7  and  C_8
REMARK    4  A    between atoms: C_8  and  C_9
REMARK    5  A    between atoms: C_12  and  C_13
REMARK    6  A    between atoms: C_13  and  N_14
REMARK    7  A    between atoms: C_15  and  C_17
REMARK                            x       y       z     vdW  Elec       q    Type
REMARK                         _______ _______ _______ _____ _____    ______ ____
ROOT
ATOM      1  C   UNL     1       2.955   6.932  18.371  0.00  0.00    +0.000 A 
ATOM      2  C   UNL     1       2.564   6.739  19.705  0.00  0.00    +0.000 A 
ATOM      3  C   UNL     1       1.764   7.682  20.363  0.00  0.00    +0.000 A 
ATOM      4  C   UNL     1       1.320   8.833  19.699  0.00  0.00    +0.000 A 
ATOM      5  C   UNL     1       1.745   9.048  18.381  0.00  0.00    +0.000 A 
ATOM      6  C   UNL     1       2.543   8.103  17.721  0.00  0.00    +0.000 A 
ENDROOT
BRANCH   1   7
ATOM      7  C   UNL     1       3.744   5.867  17.629  0.00  0.00    +0.000 C 
BRANCH   7  14
ATOM      8  C   UNL     1       3.766   1.137  19.137  0.00  0.00    +0.000 C 
ATOM      9  C   UNL     1       3.207   2.543  19.253  0.00  0.00    +0.000 C 
ATOM     10  C   UNL     1       2.900   2.919  20.705  0.00  0.00    +0.000 C 
ATOM     11  N   UNL     1       2.055   2.759  18.408  0.00  0.00    +0.000 N 
ATOM     12  C   UNL     1       2.101   4.000  17.798  0.00  0.00    +0.000 C 
ATOM     13  O   UNL     1       1.183   4.479  17.158  0.00  0.00    +0.000 OA
ATOM     14  N   UNL     1       3.332   4.541  18.027  0.00  0.00    +0.000 N 
ATOM     15  C   UNL     1       4.124   3.645  18.696  0.00  0.00    +0.000 C 
ATOM     16  O   UNL     1       5.322   3.755  18.922  0.00  0.00    +0.000 OA
ATOM     17  H   UNL     1       1.189   2.237  18.436  0.00  0.00    +0.000 HD
ENDBRANCH   7  14
ENDBRANCH   1   7
BRANCH   4  18
ATOM     18  C   UNL     1       0.360   9.791  20.363  0.00  0.00    +0.000 C 
BRANCH  18  19
ATOM     19  N   UNL     1      -0.871   9.975  19.627  0.00  0.00    +0.000 N 
ATOM     20  C   UNL     1      -1.075  11.143  18.925  0.00  0.00    +0.000 C 
ATOM     21  O   UNL     1      -0.268  12.067  18.894  0.00  0.00    +0.000 OA
ATOM     22  H   UNL     1      -1.422   9.153  19.415  0.00  0.00    +0.000 HD
BRANCH  20  23
ATOM     23  C   UNL     1      -2.348  11.249  18.153  0.00  0.00    +0.000 A 
ATOM     24  C   UNL     1      -3.532  11.701  18.752  0.00  0.00    +0.000 A 
ATOM     25  C   UNL     1      -4.699  11.826  17.992  0.00  0.00    +0.000 A 
ATOM     26  C   UNL     1      -4.684  11.503  16.636  0.00  0.00    +0.000 A 
ATOM     27  C   UNL     1      -3.502  11.065  16.047  0.00  0.00    +0.000 A 
ATOM     28  F   UNL     1      -3.493  10.764  14.743  0.00  0.00    +0.000 F 
ATOM     29  C   UNL     1      -2.333  10.938  16.789  0.00  0.00    +0.000 A 
ENDBRANCH  20  23
ENDBRANCH  18  19
ENDBRANCH   4  18
TORSDOF 5
ENDMDL
MODEL 7
REMARK VINA RESULT:      -8.5      1.999      2.758
REMARK  Name = 
REMARK  7 active torsions:
REMARK  status: ('A' for Active; 'I' for Inactive)
REMARK    1  A    between atoms: C_1  and  C_2
REMARK    2  A    between atoms: C_2  and  C_3
REMARK    3  A    between atoms: N_7  and  C_8
REMARK    4  A    between atoms: C_8  and  C_9
REMARK    5  A    between atoms: C_12  and  C_13
REMARK    6  A    between atoms: C_13  and  N_14
REMARK    7  A    between atoms: C_15  and  C_17
REMARK                            x       y       z     vdW  Elec       q    Type
REMARK                         _______ _______ _______ _____ _____    ______ ____
ROOT
ATOM      1  C   UNL     1       2.694   6.824  18.271  0.00  0.00    +0.000 A 
ATOM      2  C   UNL     1       2.350   7.970  17.537  0.00  0.00    +0.000 A 
ATOM      3  C   UNL     1       1.699   9.048  18.150  0.00  0.00    +0.000 A 
ATOM      4  C   UNL     1       1.391   9.015  19.517  0.00  0.00    +0.000 A 
ATOM      5  C   UNL     1       1.696   7.855  20.242  0.00  0.00    +0.000 A 
ATOM      6  C   UNL     1       2.350   6.777  19.629  0.00  0.00    +0.000 A 
ENDROOT
BRANCH   1   7
ATOM      7  C   UNL     1       3.482   5.695  17.629  0.00  0.00    +0.000 C 
BRANCH   7  14
ATOM      8  C   UNL     1       8.212   6.664  18.784  0.00  0.00    +0.000 C 
ATOM      9  C   UNL     1       7.201   5.927  17.925  0.00  0.00    +0.000 C 
ATOM     10  C   UNL     1       7.658   4.504  17.597  0.00  0.00    +0.000 C 
ATOM     11  N   UNL     1       6.856   6.649  16.722  0.00  0.00    +0.000 N 
ATOM     12  C   UNL     1       5.500   6.578  16.461  0.00  0.00    +0.000 C 
ATOM     13  O   UNL     1       4.981   6.976  15.434  0.00  0.00    +0.000 OA
ATOM     14  N   UNL     1       4.887   6.021  17.545  0.00  0.00    +0.000 N 
ATOM     15  C   UNL     1       5.799   5.809  18.545  0.00  0.00    +0.000 C 
ATOM     16  O   UNL     1       5.556   5.465  19.695  0.00  0.00    +0.000 OA
ATOM     17  H   UNL     1       7.499   6.946  15.999  0.00  0.00    +0.000 HD
ENDBRANCH   7  14
ENDBRANCH   1   7
BRANCH   4  18
ATOM     18  C   UNL     1       0.799  10.220  20.208  0.00  0.00    +0.000 C 
BRANCH  18  19
ATOM     19  N   UNL     1      -0.586  10.457  19.866  0.00  0.00    +0.000 N 
ATOM     20  C   UNL     1      -0.905  11.468  18.986  0.00  0.00    +0.000 C 
ATOM     21  O   UNL     1      -0.073  12.209  18.470  0.00  0.00    +0.000 OA
ATOM     22  H   UNL     1      -1.252   9.719  20.053  0.00  0.00    +0.000 HD
BRANCH  20  23
ATOM     23  C   UNL     1      -2.349  11.631  18.644  0.00  0.00    +0.000 A 
ATOM     24  C   UNL     1      -2.857  11.222  17.403  0.00  0.00    +0.000 A 
ATOM     25  C   UNL     1      -4.222  11.353  17.127  0.00  0.00    +0.000 A 
ATOM     26  C   UNL     1      -5.078  11.887  18.089  0.00  0.00    +0.000 A 
ATOM     27  C   UNL     1      -4.567  12.282  19.321  0.00  0.00    +0.000 A 
ATOM     28  F   UNL     1      -5.395  12.787  20.242  0.00  0.00    +0.000 F 
ATOM     29  C   UNL     1      -3.213  12.156  19.611  0.00  0.00    +0.000 A 
ENDBRANCH  20  23
ENDBRANCH  18  19
ENDBRANCH   4  18
TORSDOF 5
ENDMDL
MODEL 8
REMARK VINA RESULT:      -8.4      1.670      2.437
REMARK  Name = 
REMARK  7 active torsions:
REMARK  status: ('A' for Active; 'I' for Inactive)
REMARK    1  A    between atoms: C_1  and  C_2
REMARK    2  A    between atoms: C_2  and  C_3
REMARK    3  A    between atoms: N_7  and  C_8
REMARK    4  A    between atoms: C_8  and  C_9
REMARK    5  A    between atoms: C_12  and  C_13
REMARK    6  A    between atoms: C_13  and  N_14
REMARK    7  A    between atoms: C_15  and  C_17
REMARK                            x       y       z     vdW  Elec       q    Type
REMARK                         _______ _______ _______ _____ _____    ______ ____
ROOT
ATOM      1  C   UNL     1       2.674   6.792  18.311  0.00  0.00    +0.000 A 
ATOM      2  C   UNL     1       2.300   7.936  17.588  0.00  0.00    +0.000 A 
ATOM      3  C   UNL     1       1.650   9.005  18.219  0.00  0.00    +0.000 A 
ATOM      4  C   UNL     1       1.372   8.964  19.592  0.00  0.00    +0.000 A 
ATOM      5  C   UNL     1       1.707   7.805  20.306  0.00  0.00    +0.000 A 
ATOM      6  C   UNL     1       2.361   6.738  19.676  0.00  0.00    +0.000 A 
ENDROOT
BRANCH   1   7
ATOM      7  C   UNL     1       3.461   5.675  17.648  0.00  0.00    +0.000 C 
BRANCH   7  14
ATOM      8  C   UNL     1       8.198   6.665  18.758  0.00  0.00    +0.000 C 
ATOM      9  C   UNL     1       7.182   5.928  17.905  0.00  0.00    +0.000 C 
ATOM     10  C   UNL     1       7.645   4.510  17.559  0.00  0.00    +0.000 C 
ATOM     11  N   UNL     1       6.819   6.658  16.711  0.00  0.00    +0.000 N 
ATOM     12  C   UNL     1       5.460   6.580  16.465  0.00  0.00    +0.000 C 
ATOM     13  O   UNL     1       4.928   6.983  15.447  0.00  0.00    +0.000 OA
ATOM     14  N   UNL     1       4.863   6.010  17.552  0.00  0.00    +0.000 N 
ATOM     15  C   UNL     1       5.788   5.796  18.540  0.00  0.00    +0.000 C 
ATOM     16  O   UNL     1       5.560   5.441  19.689  0.00  0.00    +0.000 OA
ATOM     17  H   UNL     1       7.452   6.964  15.984  0.00  0.00    +0.000 HD
ENDBRANCH   7  14
ENDBRANCH   1   7
BRANCH   4  18
ATOM     18  C   UNL     1       0.782  10.160  20.299  0.00  0.00    +0.000 C 
BRANCH  18  19
ATOM     19  N   UNL     1      -0.609  10.391  19.976  0.00  0.00    +0.000 N 
ATOM     20  C   UNL     1      -1.041  11.672  19.710  0.00  0.00    +0.000 C 
ATOM     21  O   UNL     1      -0.309  12.657  19.744  0.00  0.00    +0.000 OA
ATOM     22  H   UNL     1      -1.164   9.598  19.682  0.00  0.00    +0.000 HD
BRANCH  20  23
ATOM     23  C   UNL     1      -2.478  11.834  19.342  0.00  0.00    +0.000 A 
ATOM     24  C   UNL     1      -3.364  12.561  20.149  0.00  0.00    +0.000 A 
ATOM     25  C   UNL     1      -4.696  12.727  19.757  0.00  0.00    +0.000 A 
ATOM     26  C   UNL     1      -5.142  12.170  18.560  0.00  0.00    +0.000 A 
ATOM     27  C   UNL     1      -4.255  11.458  17.759  0.00  0.00    +0.000 A 
ATOM     28  F   UNL     1      -4.689  10.932  16.608  0.00  0.00    +0.000 F 
ATOM     29  C   UNL     1      -2.928  11.287  18.134  0.00  0.00    +0.000 A 
ENDBRANCH  20  23
ENDBRANCH  18  19
ENDBRANCH   4  18
TORSDOF 5
ENDMDL
MODEL 9
REMARK VINA RESULT:      -8.4      1.791      2.277
REMARK  Name = 
REMARK  7 active torsions:
REMARK  status: ('A' for Active; 'I' for Inactive)
REMARK    1  A    between atoms: C_1  and  C_2
REMARK    2  A    between atoms: C_2  and  C_3
REMARK    3  A    between atoms: N_7  and  C_8
REMARK    4  A    between atoms: C_8  and  C_9
REMARK    5  A    between atoms: C_12  and  C_13
REMARK    6  A    between atoms: C_13  and  N_14
REMARK    7  A    between atoms: C_15  and  C_17
REMARK                            x       y       z     vdW  Elec       q    Type
REMARK                         _______ _______ _______ _____ _____    ______ ____
ROOT
ATOM      1  C   UNL     1       2.519   5.869  18.769  0.00  0.00    +0.000 A 
ATOM      2  C   UNL     1       2.035   5.839  20.086  0.00  0.00    +0.000 A 
ATOM      3  C   UNL     1       1.576   7.007  20.710  0.00  0.00    +0.000 A 
ATOM      4  C   UNL     1       1.574   8.231  20.027  0.00  0.00    +0.000 A 
ATOM      5  C   UNL     1       2.096   8.269  18.727  0.00  0.00    +0.000 A 
ATOM      6  C   UNL     1       2.552   7.101  18.101  0.00  0.00    +0.000 A 
ENDROOT
BRANCH   1   7
ATOM      7  C   UNL     1       2.928   4.589  18.061  0.00  0.00    +0.000 C 
BRANCH   7  14
ATOM      8  C   UNL     1       7.606   4.578  16.397  0.00  0.00    +0.000 C 
ATOM      9  C   UNL     1       6.594   4.992  17.449  0.00  0.00    +0.000 C 
ATOM     10  C   UNL     1       6.879   6.392  17.998  0.00  0.00    +0.000 C 
ATOM     11  N   UNL     1       6.477   4.031  18.522  0.00  0.00    +0.000 N 
ATOM     12  C   UNL     1       5.158   3.845  18.892  0.00  0.00    +0.000 C 
ATOM     13  O   UNL     1       4.807   3.202  19.865  0.00  0.00    +0.000 OA
ATOM     14  N   UNL     1       4.366   4.476  17.978  0.00  0.00    +0.000 N 
ATOM     15  C   UNL     1       5.134   4.995  16.968  0.00  0.00    +0.000 C 
ATOM     16  O   UNL     1       4.730   5.487  15.923  0.00  0.00    +0.000 OA
ATOM     17  H   UNL     1       7.225   3.719  19.128  0.00  0.00    +0.000 HD
ENDBRANCH   7  14
ENDBRANCH   1   7
BRANCH   4  18
ATOM     18  C   UNL     1       0.970   9.466  20.650  0.00  0.00    +0.000 C 
BRANCH  18  19
ATOM     19  N   UNL     1      -0.350   9.776  20.150  0.00  0.00    +0.000 N 
ATOM     20  C   UNL     1      -0.495  10.705  19.142  0.00  0.00    +0.000 C 
ATOM     21  O   UNL     1       0.446  11.313  18.638  0.00  0.00    +0.000 OA
ATOM     22  H   UNL     1      -1.096   9.121  20.345  0.00  0.00    +0.000 HD
BRANCH  20  23
ATOM     23  C   UNL     1      -1.880  10.946  18.643  0.00  0.00    +0.000 A 
ATOM     24  C   UNL     1      -2.393  10.248  17.541  0.00  0.00    +0.000 A 
ATOM     25  C   UNL     1      -3.709  10.468  17.121  0.00  0.00    +0.000 A 
ATOM     26  C   UNL     1      -4.512  11.383  17.801  0.00  0.00    +0.000 A 
ATOM     27  C   UNL     1      -3.998  12.065  18.900  0.00  0.00    +0.000 A 
ATOM     28  F   UNL     1      -4.777  12.935  19.553  0.00  0.00    +0.000 F 
ATOM     29  C   UNL     1      -2.694  11.854  19.331  0.00  0.00    +0.000 A 
ENDBRANCH  20  23
ENDBRANCH  18  19
ENDBRANCH   4  18
TORSDOF 5
ENDMDL
