MODEL 1
REMARK VINA RESULT:      -8.8      0.000      0.000
REMARK  Name = 
REMARK  3 active torsions:
REMARK  status: ('A' for Active; 'I' for Inactive)
REMARK    1  A    between atoms: C_2  and  C_14
REMARK    2  A    between atoms: N_3  and  C_4
REMARK    3  A    between atoms: C_19  and  C_21
REMARK                            x       y       z     vdW  Elec       q    Type
REMARK                         _______ _______ _______ _____ _____    ______ ____
ROOT
ATOM      1  O   UNL     1       2.473  11.050  18.238  0.00  0.00    +0.000 OA
ATOM      2  C   UNL     1       1.324  10.682  18.487  0.00  0.00    +0.000 C 
ATOM      3  N   UNL     1       0.271  11.564  18.311  0.00  0.00    +0.000 N 
ATOM      4  H   UNL     1       0.562  12.524  18.156  0.00  0.00    +0.000 HD
ENDROOT
BRANCH   3   5
ATOM      5  C   UNL     1      -1.101  11.275  18.214  0.00  0.00    +0.000 A 
ATOM      6  C   UNL     1      -1.570  10.181  17.440  0.00  0.00    +0.000 A 
ATOM      7  C   UNL     1      -2.931   9.886  17.317  0.00  0.00    +0.000 A 
ATOM      8  C   UNL     1      -3.792  10.727  17.968  0.00  0.00    +0.000 A 
ATOM      9  N   UNL     1      -5.180  10.721  17.998  0.00  0.00    +0.000 N 
ATOM     10  C   UNL     1      -5.617  11.813  18.759  0.00  0.00    +0.000 A 
ATOM     11  O   UNL     1      -6.770  12.137  18.969  0.00  0.00    +0.000 OA
ATOM     12  N   UNL     1      -4.465  12.472  19.216  0.00  0.00    +0.000 N 
ATOM     13  C   UNL     1      -3.345  11.818  18.713  0.00  0.00    +0.000 A 
ATOM     14  C   UNL     1      -2.009  12.129  18.846  0.00  0.00    +0.000 A 
ATOM     15  H   UNL     1      -5.800  10.087  17.521  0.00  0.00    +0.000 HD
ATOM     16  H   UNL     1      -4.490  13.309  19.774  0.00  0.00    +0.000 HD
ENDBRANCH   3   5
BRANCH   2  17
ATOM     17  C   UNL     1       1.007   9.379  19.265  0.00  0.00    +0.000 C 
ATOM     18  C   UNL     1       0.955   9.764  20.753  0.00  0.00    +0.000 C 
ATOM     19  C   UNL     1       0.961   8.418  21.454  0.00  0.00    +0.000 C 
ATOM     20  C   UNL     1       1.822   7.540  20.555  0.00  0.00    +0.000 C 
ATOM     21  N   UNL     1       1.901   8.226  19.263  0.00  0.00    +0.000 N 
ATOM     22  C   UNL     1       2.393   7.722  18.061  0.00  0.00    +0.000 C 
ATOM     23  O   UNL     1       2.378   8.363  17.014  0.00  0.00    +0.000 OA
BRANCH  22  24
ATOM     24  C   UNL     1       2.864   6.316  18.000  0.00  0.00    +0.000 A 
ATOM     25  C   UNL     1       1.905   5.304  18.136  0.00  0.00    +0.000 A 
ATOM     26  C   UNL     1       2.283   3.966  18.145  0.00  0.00    +0.000 A 
ATOM     27 CL   UNL     1       1.107   2.762  18.489  0.00  0.00    +0.000 Cl
ATOM     28  C   UNL     1       3.603   3.609  17.900  0.00  0.00    +0.000 A 
ATOM     29  C   UNL     1       4.549   4.606  17.643  0.00  0.00    +0.000 A 
ATOM     30  C   UNL     1       4.189   5.962  17.704  0.00  0.00    +0.000 A 
ATOM     31 CL   UNL     1       5.436   7.120  17.410  0.00  0.00    +0.000 Cl
ENDBRANCH  22  24
ENDBRANCH   2  17
TORSDOF 3
ENDMDL
MODEL 2
REMARK VINA RESULT:      -8.3      3.487      5.288
REMARK  Name = 
REMARK  3 active torsions:
REMARK  status: ('A' for Active; 'I' for Inactive)
REMARK    1  A    between atoms: C_2  and  C_14
REMARK    2  A    between atoms: N_3  and  C_4
REMARK    3  A    between atoms: C_19  and  C_21
REMARK                            x       y       z     vdW  Elec       q    Type
REMARK                         _______ _______ _______ _____ _____    ______ ____
ROOT
ATOM      1  O   UNL     1       2.536   4.338  21.726  0.00  0.00    +0.000 OA
ATOM      2  C   UNL     1       2.252   5.088  20.791  0.00  0.00    +0.000 C 
ATOM      3  N   UNL     1       1.748   6.350  21.057  0.00  0.00    +0.000 N 
ATOM      4  H   UNL     1       1.481   6.489  22.026  0.00  0.00    +0.000 HD
ENDROOT
BRANCH   3   5
ATOM      5  C   UNL     1       1.671   7.459  20.195  0.00  0.00    +0.000 A 
ATOM      6  C   UNL     1       2.220   7.413  18.887  0.00  0.00    +0.000 A 
ATOM      7  C   UNL     1       2.169   8.508  18.020  0.00  0.00    +0.000 A 
ATOM      8  C   UNL     1       1.577   9.640  18.513  0.00  0.00    +0.000 A 
ATOM      9  N   UNL     1       1.417  10.885  17.917  0.00  0.00    +0.000 N 
ATOM     10  C   UNL     1       0.797  11.744  18.833  0.00  0.00    +0.000 A 
ATOM     11  O   UNL     1       0.533  12.918  18.663  0.00  0.00    +0.000 OA
ATOM     12  N   UNL     1       0.557  10.990  19.993  0.00  0.00    +0.000 N 
ATOM     13  C   UNL     1       1.054   9.705  19.804  0.00  0.00    +0.000 A 
ATOM     14  C   UNL     1       1.097   8.639  20.676  0.00  0.00    +0.000 A 
ATOM     15  H   UNL     1       1.731  11.171  17.004  0.00  0.00    +0.000 HD
ATOM     16  H   UNL     1       0.135  11.370  20.823  0.00  0.00    +0.000 HD
ENDBRANCH   3   5
BRANCH   2  17
ATOM     17  C   UNL     1       2.149   4.603  19.322  0.00  0.00    +0.000 C 
ATOM     18  C   UNL     1       1.260   3.348  19.341  0.00  0.00    +0.000 C 
ATOM     19  C   UNL     1       1.466   2.763  17.956  0.00  0.00    +0.000 C 
ATOM     20  C   UNL     1       2.913   3.104  17.625  0.00  0.00    +0.000 C 
ATOM     21  N   UNL     1       3.310   4.162  18.557  0.00  0.00    +0.000 N 
ATOM     22  C   UNL     1       4.460   4.947  18.513  0.00  0.00    +0.000 C 
ATOM     23  O   UNL     1       4.687   5.844  19.321  0.00  0.00    +0.000 OA
BRANCH  22  24
ATOM     24  C   UNL     1       5.414   4.777  17.390  0.00  0.00    +0.000 A 
ATOM     25  C   UNL     1       4.881   4.571  16.110  0.00  0.00    +0.000 A 
ATOM     26  C   UNL     1       5.715   4.347  15.021  0.00  0.00    +0.000 A 
ATOM     27 CL   UNL     1       5.027   3.925  13.506  0.00  0.00    +0.000 Cl
ATOM     28  C   UNL     1       7.094   4.445  15.164  0.00  0.00    +0.000 A 
ATOM     29  C   UNL     1       7.636   4.770  16.412  0.00  0.00    +0.000 A 
ATOM     30  C   UNL     1       6.803   4.925  17.531  0.00  0.00    +0.000 A 
ATOM     31 CL   UNL     1       7.568   5.287  19.036  0.00  0.00    +0.000 Cl
ENDBRANCH  22  24
ENDBRANCH   2  17
TORSDOF 3
ENDMDL
MODEL 3
REMARK VINA RESULT:      -8.0      6.566      8.362
REMARK  Name = 
REMARK  3 active torsions:
REMARK  status: ('A' for Active; 'I' for Inactive)
REMARK    1  A    between atoms: C_2  and  C_14
REMARK    2  A    between atoms: N_3  and  C_4
REMARK    3  A    between atoms: C_19  and  C_21
REMARK                            x       y       z     vdW  Elec       q    Type
REMARK                         _______ _______ _______ _____ _____    ______ ____
ROOT
ATOM      1  O   UNL     1       5.921  17.634  18.680  0.00  0.00    +0.000 OA
ATOM      2  C   UNL     1       5.417  16.610  19.146  0.00  0.00    +0.000 C 
ATOM      3  N   UNL     1       4.043  16.445  19.104  0.00  0.00    +0.000 N 
ATOM      4  H   UNL     1       3.537  17.286  18.845  0.00  0.00    +0.000 HD
ENDROOT
BRANCH   3   5
ATOM      5  C   UNL     1       3.302  15.260  19.262  0.00  0.00    +0.000 A 
ATOM      6  C   UNL     1       2.534  15.024  20.431  0.00  0.00    +0.000 A 
ATOM      7  C   UNL     1       1.803  13.846  20.616  0.00  0.00    +0.000 A 
ATOM      8  C   UNL     1       1.887  12.920  19.611  0.00  0.00    +0.000 A 
ATOM      9  N   UNL     1       1.320  11.656  19.524  0.00  0.00    +0.000 N 
ATOM     10  C   UNL     1       1.734  11.059  18.326  0.00  0.00    +0.000 A 
ATOM     11  O   UNL     1       1.457   9.941  17.938  0.00  0.00    +0.000 OA
ATOM     12  N   UNL     1       2.544  11.998  17.669  0.00  0.00    +0.000 N 
ATOM     13  C   UNL     1       2.656  13.132  18.467  0.00  0.00    +0.000 A 
ATOM     14  C   UNL     1       3.386  14.283  18.266  0.00  0.00    +0.000 A 
ATOM     15  H   UNL     1       0.748  11.193  20.212  0.00  0.00    +0.000 HD
ATOM     16  H   UNL     1       2.994  11.820  16.787  0.00  0.00    +0.000 HD
ENDBRANCH   3   5
BRANCH   2  17
ATOM     17  C   UNL     1       6.202  15.617  20.040  0.00  0.00    +0.000 C 
ATOM     18  C   UNL     1       6.553  16.379  21.330  0.00  0.00    +0.000 C 
ATOM     19  C   UNL     1       7.569  15.470  21.997  0.00  0.00    +0.000 C 
ATOM     20  C   UNL     1       8.319  14.839  20.831  0.00  0.00    +0.000 C 
ATOM     21  N   UNL     1       7.486  15.048  19.644  0.00  0.00    +0.000 N 
ATOM     22  C   UNL     1       7.640  14.472  18.385  0.00  0.00    +0.000 C 
ATOM     23  O   UNL     1       6.860  14.678  17.459  0.00  0.00    +0.000 OA
BRANCH  22  24
ATOM     24  C   UNL     1       8.724  13.485  18.164  0.00  0.00    +0.000 A 
ATOM     25  C   UNL     1       8.412  12.129  18.327  0.00  0.00    +0.000 A 
ATOM     26  C   UNL     1       9.392  11.153  18.191  0.00  0.00    +0.000 A 
ATOM     27 CL   UNL     1       9.014   9.521  18.569  0.00  0.00    +0.000 Cl
ATOM     28  C   UNL     1      10.672  11.499  17.774  0.00  0.00    +0.000 A 
ATOM     29  C   UNL     1      10.965  12.837  17.492  0.00  0.00    +0.000 A 
ATOM     30  C   UNL     1      10.000  13.837  17.696  0.00  0.00    +0.000 A 
ATOM     31 CL   UNL     1      10.469  15.463  17.356  0.00  0.00    +0.000 Cl
ENDBRANCH  22  24
ENDBRANCH   2  17
TORSDOF 3
ENDMDL
MODEL 4
REMARK VINA RESULT:      -7.9      4.649      8.652
REMARK  Name = 
REMARK  3 active torsions:
REMARK  status: ('A' for Active; 'I' for Inactive)
REMARK    1  A    between atoms: C_2  and  C_14
REMARK    2  A    between atoms: N_3  and  C_4
REMARK    3  A    between atoms: C_19  and  C_21
REMARK                            x       y       z     vdW  Elec       q    Type
REMARK                         _______ _______ _______ _____ _____    ______ ____
ROOT
ATOM      1  O   UNL     1       2.837   3.319  17.267  0.00  0.00    +0.000 OA
ATOM      2  C   UNL     1       3.646   3.965  17.935  0.00  0.00    +0.000 C 
ATOM      3  N   UNL     1       4.964   4.048  17.517  0.00  0.00    +0.000 N 
ATOM      4  H   UNL     1       5.198   3.404  16.769  0.00  0.00    +0.000 HD
ENDROOT
BRANCH   3   5
ATOM      5  C   UNL     1       5.949   4.967  17.919  0.00  0.00    +0.000 A 
ATOM      6  C   UNL     1       6.798   4.700  19.024  0.00  0.00    +0.000 A 
ATOM      7  C   UNL     1       7.773   5.607  19.449  0.00  0.00    +0.000 A 
ATOM      8  C   UNL     1       7.850   6.782  18.751  0.00  0.00    +0.000 A 
ATOM      9  N   UNL     1       8.673   7.881  18.959  0.00  0.00    +0.000 N 
ATOM     10  C   UNL     1       8.348   8.868  18.020  0.00  0.00    +0.000 A 
ATOM     11  O   UNL     1       8.843   9.975  17.928  0.00  0.00    +0.000 OA
ATOM     12  N   UNL     1       7.327   8.339  17.216  0.00  0.00    +0.000 N 
ATOM     13  C   UNL     1       7.006   7.066  17.678  0.00  0.00    +0.000 A 
ATOM     14  C   UNL     1       6.036   6.189  17.244  0.00  0.00    +0.000 A 
ATOM     15  H   UNL     1       9.360   8.003  19.685  0.00  0.00    +0.000 HD
ATOM     16  H   UNL     1       6.889   8.848  16.467  0.00  0.00    +0.000 HD
ENDBRANCH   3   5
BRANCH   2  17
ATOM     17  C   UNL     1       3.349   4.456  19.374  0.00  0.00    +0.000 C 
ATOM     18  C   UNL     1       2.775   3.248  20.135  0.00  0.00    +0.000 C 
ATOM     19  C   UNL     1       2.224   3.873  21.403  0.00  0.00    +0.000 C 
ATOM     20  C   UNL     1       1.739   5.246  20.954  0.00  0.00    +0.000 C 
ATOM     21  N   UNL     1       2.378   5.506  19.662  0.00  0.00    +0.000 N 
ATOM     22  C   UNL     1       2.416   6.708  18.959  0.00  0.00    +0.000 C 
ATOM     23  O   UNL     1       3.017   6.839  17.895  0.00  0.00    +0.000 OA
BRANCH  22  24
ATOM     24  C   UNL     1       1.799   7.918  19.554  0.00  0.00    +0.000 A 
ATOM     25  C   UNL     1       1.475   7.880  20.916  0.00  0.00    +0.000 A 
ATOM     26  C   UNL     1       0.843   8.957  21.526  0.00  0.00    +0.000 A 
ATOM     27 CL   UNL     1       0.303   8.807  23.150  0.00  0.00    +0.000 Cl
ATOM     28  C   UNL     1       0.631  10.136  20.821  0.00  0.00    +0.000 A 
ATOM     29  C   UNL     1       1.059  10.230  19.494  0.00  0.00    +0.000 A 
ATOM     30  C   UNL     1       1.633   9.122  18.850  0.00  0.00    +0.000 A 
ATOM     31 CL   UNL     1       2.094   9.324  17.198  0.00  0.00    +0.000 Cl
ENDBRANCH  22  24
ENDBRANCH   2  17
TORSDOF 3
ENDMDL
MODEL 5
REMARK VINA RESULT:      -7.8      0.864      1.851
REMARK  Name = 
REMARK  3 active torsions:
REMARK  status: ('A' for Active; 'I' for Inactive)
REMARK    1  A    between atoms: C_2  and  C_14
REMARK    2  A    between atoms: N_3  and  C_4
REMARK    3  A    between atoms: C_19  and  C_21
REMARK                            x       y       z     vdW  Elec       q    Type
REMARK                         _______ _______ _______ _____ _____    ______ ____
ROOT
ATOM      1  O   UNL     1       2.560  11.003  18.100  0.00  0.00    +0.000 OA
ATOM      2  C   UNL     1       1.424  10.593  18.342  0.00  0.00    +0.000 C 
ATOM      3  N   UNL     1       0.350  11.462  18.242  0.00  0.00    +0.000 N 
ATOM      4  H   UNL     1       0.618  12.436  18.148  0.00  0.00    +0.000 HD
ENDROOT
BRANCH   3   5
ATOM      5  C   UNL     1      -1.018  11.150  18.146  0.00  0.00    +0.000 A 
ATOM      6  C   UNL     1      -1.466  10.022  17.410  0.00  0.00    +0.000 A 
ATOM      7  C   UNL     1      -2.821   9.704  17.289  0.00  0.00    +0.000 A 
ATOM      8  C   UNL     1      -3.699  10.556  17.903  0.00  0.00    +0.000 A 
ATOM      9  N   UNL     1      -5.087  10.531  17.924  0.00  0.00    +0.000 N 
ATOM     10  C   UNL     1      -5.545  11.645  18.640  0.00  0.00    +0.000 A 
ATOM     11  O   UNL     1      -6.704  11.960  18.831  0.00  0.00    +0.000 OA
ATOM     12  N   UNL     1      -4.406  12.336  19.080  0.00  0.00    +0.000 N 
ATOM     13  C   UNL     1      -3.273  11.680  18.610  0.00  0.00    +0.000 A 
ATOM     14  C   UNL     1      -1.943  12.014  18.740  0.00  0.00    +0.000 A 
ATOM     15  H   UNL     1      -5.695   9.871  17.466  0.00  0.00    +0.000 HD
ATOM     16  H   UNL     1      -4.446  13.192  19.607  0.00  0.00    +0.000 HD
ENDBRANCH   3   5
BRANCH   2  17
ATOM     17  C   UNL     1       1.147   9.235  19.034  0.00  0.00    +0.000 C 
ATOM     18  C   UNL     1       0.838   9.553  20.507  0.00  0.00    +0.000 C 
ATOM     19  C   UNL     1       0.895   8.189  21.170  0.00  0.00    +0.000 C 
ATOM     20  C   UNL     1       1.970   7.445  20.387  0.00  0.00    +0.000 C 
ATOM     21  N   UNL     1       2.155   8.185  19.137  0.00  0.00    +0.000 N 
ATOM     22  C   UNL     1       2.868   7.785  18.009  0.00  0.00    +0.000 C 
ATOM     23  O   UNL     1       2.932   8.461  16.986  0.00  0.00    +0.000 OA
BRANCH  22  24
ATOM     24  C   UNL     1       3.498   6.442  17.986  0.00  0.00    +0.000 A 
ATOM     25  C   UNL     1       4.875   6.366  18.234  0.00  0.00    +0.000 A 
ATOM     26  C   UNL     1       5.541   5.147  18.172  0.00  0.00    +0.000 A 
ATOM     27 CL   UNL     1       7.252   5.115  18.307  0.00  0.00    +0.000 Cl
ATOM     28  C   UNL     1       4.829   3.969  17.980  0.00  0.00    +0.000 A 
ATOM     29  C   UNL     1       3.437   4.019  17.851  0.00  0.00    +0.000 A 
ATOM     30  C   UNL     1       2.767   5.252  17.841  0.00  0.00    +0.000 A 
ATOM     31 CL   UNL     1       1.053   5.213  17.637  0.00  0.00    +0.000 Cl
ENDBRANCH  22  24
ENDBRANCH   2  17
TORSDOF 3
ENDMDL
MODEL 6
REMARK VINA RESULT:      -7.8      4.001      8.333
REMARK  Name = 
REMARK  3 active torsions:
REMARK  status: ('A' for Active; 'I' for Inactive)
REMARK    1  A    between atoms: C_2  and  C_14
REMARK    2  A    between atoms: N_3  and  C_4
REMARK    3  A    between atoms: C_19  and  C_21
REMARK                            x       y       z     vdW  Elec       q    Type
REMARK                         _______ _______ _______ _____ _____    ______ ____
ROOT
ATOM      1  O   UNL     1       2.325  11.169  17.904  0.00  0.00    +0.000 OA
ATOM      2  C   UNL     1       1.818  10.129  18.327  0.00  0.00    +0.000 C 
ATOM      3  N   UNL     1       2.475   8.924  18.140  0.00  0.00    +0.000 N 
ATOM      4  H   UNL     1       3.256   8.979  17.494  0.00  0.00    +0.000 HD
ENDROOT
BRANCH   3   5
ATOM      5  C   UNL     1       2.263   7.703  18.803  0.00  0.00    +0.000 A 
ATOM      6  C   UNL     1       1.950   7.661  20.187  0.00  0.00    +0.000 A 
ATOM      7  C   UNL     1       1.751   6.457  20.868  0.00  0.00    +0.000 A 
ATOM      8  C   UNL     1       1.898   5.314  20.130  0.00  0.00    +0.000 A 
ATOM      9  N   UNL     1       1.809   3.987  20.529  0.00  0.00    +0.000 N 
ATOM     10  C   UNL     1       2.088   3.168  19.427  0.00  0.00    +0.000 A 
ATOM     11  O   UNL     1       2.134   1.953  19.418  0.00  0.00    +0.000 OA
ATOM     12  N   UNL     1       2.323   4.023  18.339  0.00  0.00    +0.000 N 
ATOM     13  C   UNL     1       2.227   5.341  18.775  0.00  0.00    +0.000 A 
ATOM     14  C   UNL     1       2.430   6.515  18.084  0.00  0.00    +0.000 A 
ATOM     15  H   UNL     1       1.630   3.637  21.456  0.00  0.00    +0.000 HD
ATOM     16  H   UNL     1       2.568   3.697  17.419  0.00  0.00    +0.000 HD
ENDBRANCH   3   5
BRANCH   2  17
ATOM     17  C   UNL     1       0.347  10.042  18.806  0.00  0.00    +0.000 C 
ATOM     18  C   UNL     1      -0.514   9.897  17.539  0.00  0.00    +0.000 C 
ATOM     19  C   UNL     1      -1.921  10.137  18.054  0.00  0.00    +0.000 C 
ATOM     20  C   UNL     1      -1.735  11.158  19.169  0.00  0.00    +0.000 C 
ATOM     21  N   UNL     1      -0.313  11.130  19.519  0.00  0.00    +0.000 N 
ATOM     22  C   UNL     1       0.304  11.724  20.618  0.00  0.00    +0.000 C 
ATOM     23  O   UNL     1       1.505  11.609  20.851  0.00  0.00    +0.000 OA
BRANCH  22  24
ATOM     24  C   UNL     1      -0.524  12.444  21.616  0.00  0.00    +0.000 A 
ATOM     25  C   UNL     1      -0.815  13.792  21.368  0.00  0.00    +0.000 A 
ATOM     26  C   UNL     1      -1.538  14.542  22.289  0.00  0.00    +0.000 A 
ATOM     27 CL   UNL     1      -1.725  16.231  22.036  0.00  0.00    +0.000 Cl
ATOM     28  C   UNL     1      -2.085  13.935  23.412  0.00  0.00    +0.000 A 
ATOM     29  C   UNL     1      -1.903  12.563  23.610  0.00  0.00    +0.000 A 
ATOM     30  C   UNL     1      -1.114  11.813  22.723  0.00  0.00    +0.000 A 
ATOM     31 CL   UNL     1      -0.917  10.134  23.073  0.00  0.00    +0.000 Cl
ENDBRANCH  22  24
ENDBRANCH   2  17
TORSDOF 3
ENDMDL
MODEL 7
REMARK VINA RESULT:      -7.7      4.489      8.758
REMARK  Name = 
REMARK  3 active torsions:
REMARK  status: ('A' for Active; 'I' for Inactive)
REMARK    1  A    between atoms: C_2  and  C_14
REMARK    2  A    between atoms: N_3  and  C_4
REMARK    3  A    between atoms: C_19  and  C_21
REMARK                            x       y       z     vdW  Elec       q    Type
REMARK                         _______ _______ _______ _____ _____    ______ ____
ROOT
ATOM      1  O   UNL     1      -0.304  13.697  17.980  0.00  0.00    +0.000 OA
ATOM      2  C   UNL     1      -0.349  12.538  18.394  0.00  0.00    +0.000 C 
ATOM      3  N   UNL     1       0.749  11.711  18.230  0.00  0.00    +0.000 N 
ATOM      4  H   UNL     1       1.456  12.086  17.606  0.00  0.00    +0.000 HD
ENDROOT
BRANCH   3   5
ATOM      5  C   UNL     1       1.039  10.505  18.893  0.00  0.00    +0.000 A 
ATOM      6  C   UNL     1       0.743  10.332  20.270  0.00  0.00    +0.000 A 
ATOM      7  C   UNL     1       1.038   9.148  20.951  0.00  0.00    +0.000 A 
ATOM      8  C   UNL     1       1.652   8.167  20.219  0.00  0.00    +0.000 A 
ATOM      9  N   UNL     1       2.103   6.916  20.620  0.00  0.00    +0.000 N 
ATOM     10  C   UNL     1       2.713   6.288  19.526  0.00  0.00    +0.000 A 
ATOM     11  O   UNL     1       3.249   5.197  19.521  0.00  0.00    +0.000 OA
ATOM     12  N   UNL     1       2.601   7.171  18.441  0.00  0.00    +0.000 N 
ATOM     13  C   UNL     1       1.968   8.333  18.871  0.00  0.00    +0.000 A 
ATOM     14  C   UNL     1       1.690   9.492  18.181  0.00  0.00    +0.000 A 
ATOM     15  H   UNL     1       2.064   6.518  21.544  0.00  0.00    +0.000 HD
ATOM     16  H   UNL     1       2.975   6.977  17.527  0.00  0.00    +0.000 HD
ENDBRANCH   3   5
BRANCH   2  17
ATOM     17  C   UNL     1      -1.668  11.851  18.832  0.00  0.00    +0.000 C 
ATOM     18  C   UNL     1      -2.501  11.655  17.554  0.00  0.00    +0.000 C 
ATOM     19  C   UNL     1      -3.870  11.284  18.093  0.00  0.00    +0.000 C 
ATOM     20  C   UNL     1      -3.981  12.074  19.390  0.00  0.00    +0.000 C 
ATOM     21  N   UNL     1      -2.619  12.482  19.741  0.00  0.00    +0.000 N 
ATOM     22  C   UNL     1      -2.179  13.036  20.941  0.00  0.00    +0.000 C 
ATOM     23  O   UNL     1      -1.001  13.308  21.158  0.00  0.00    +0.000 OA
BRANCH  22  24
ATOM     24  C   UNL     1      -3.142  13.216  22.055  0.00  0.00    +0.000 A 
ATOM     25  C   UNL     1      -4.145  14.182  21.897  0.00  0.00    +0.000 A 
ATOM     26  C   UNL     1      -5.046  14.444  22.922  0.00  0.00    +0.000 A 
ATOM     27 CL   UNL     1      -6.146  15.753  22.762  0.00  0.00    +0.000 Cl
ATOM     28  C   UNL     1      -5.042  13.667  24.074  0.00  0.00    +0.000 A 
ATOM     29  C   UNL     1      -4.123  12.619  24.194  0.00  0.00    +0.000 A 
ATOM     30  C   UNL     1      -3.163  12.395  23.194  0.00  0.00    +0.000 A 
ATOM     31 CL   UNL     1      -2.048  11.103  23.450  0.00  0.00    +0.000 Cl
ENDBRANCH  22  24
ENDBRANCH   2  17
TORSDOF 3
ENDMDL
MODEL 8
REMARK VINA RESULT:      -7.7      0.770      1.343
REMARK  Name = 
REMARK  3 active torsions:
REMARK  status: ('A' for Active; 'I' for Inactive)
REMARK    1  A    between atoms: C_2  and  C_14
REMARK    2  A    between atoms: N_3  and  C_4
REMARK    3  A    between atoms: C_19  and  C_21
REMARK                            x       y       z     vdW  Elec       q    Type
REMARK                         _______ _______ _______ _____ _____    ______ ____
ROOT
ATOM      1  O   UNL     1       2.565  11.021  17.958  0.00  0.00    +0.000 OA
ATOM      2  C   UNL     1       1.456  10.896  18.478  0.00  0.00    +0.000 C 
ATOM      3  N   UNL     1       0.637  12.004  18.613  0.00  0.00    +0.000 N 
ATOM      4  H   UNL     1       1.105  12.886  18.429  0.00  0.00    +0.000 HD
ENDROOT
BRANCH   3   5
ATOM      5  C   UNL     1      -0.747  12.041  18.859  0.00  0.00    +0.000 A 
ATOM      6  C   UNL     1      -1.267  12.580  20.065  0.00  0.00    +0.000 A 
ATOM      7  C   UNL     1      -2.638  12.612  20.335  0.00  0.00    +0.000 A 
ATOM      8  C   UNL     1      -3.454  12.072  19.378  0.00  0.00    +0.000 A 
ATOM      9  N   UNL     1      -4.835  11.919  19.378  0.00  0.00    +0.000 N 
ATOM     10  C   UNL     1      -5.213  11.263  18.200  0.00  0.00    +0.000 A 
ATOM     11  O   UNL     1      -6.339  10.934  17.881  0.00  0.00    +0.000 OA
ATOM     12  N   UNL     1      -4.037  11.042  17.467  0.00  0.00    +0.000 N 
ATOM     13  C   UNL     1      -2.955  11.520  18.200  0.00  0.00    +0.000 A 
ATOM     14  C   UNL     1      -1.608  11.475  17.914  0.00  0.00    +0.000 A 
ATOM     15  H   UNL     1      -5.479  12.175  20.109  0.00  0.00    +0.000 HD
ATOM     16  H   UNL     1      -4.016  10.567  16.580  0.00  0.00    +0.000 HD
ENDBRANCH   3   5
BRANCH   2  17
ATOM     17  C   UNL     1       1.028   9.626  19.256  0.00  0.00    +0.000 C 
ATOM     18  C   UNL     1       0.959  10.029  20.740  0.00  0.00    +0.000 C 
ATOM     19  C   UNL     1       0.853   8.693  21.451  0.00  0.00    +0.000 C 
ATOM     20  C   UNL     1       1.678   7.749  20.586  0.00  0.00    +0.000 C 
ATOM     21  N   UNL     1       1.840   8.415  19.291  0.00  0.00    +0.000 N 
ATOM     22  C   UNL     1       2.332   7.866  18.109  0.00  0.00    +0.000 C 
ATOM     23  O   UNL     1       2.391   8.496  17.056  0.00  0.00    +0.000 OA
BRANCH  22  24
ATOM     24  C   UNL     1       2.707   6.431  18.074  0.00  0.00    +0.000 A 
ATOM     25  C   UNL     1       1.688   5.488  18.264  0.00  0.00    +0.000 A 
ATOM     26  C   UNL     1       1.977   4.129  18.300  0.00  0.00    +0.000 A 
ATOM     27 CL   UNL     1       0.736   3.015  18.709  0.00  0.00    +0.000 Cl
ATOM     28  C   UNL     1       3.263   3.679  18.028  0.00  0.00    +0.000 A 
ATOM     29  C   UNL     1       4.265   4.604  17.717  0.00  0.00    +0.000 A 
ATOM     30  C   UNL     1       3.997   5.982  17.750  0.00  0.00    +0.000 A 
ATOM     31 CL   UNL     1       5.308   7.047  17.390  0.00  0.00    +0.000 Cl
ENDBRANCH  22  24
ENDBRANCH   2  17
TORSDOF 3
ENDMDL
MODEL 9
REMARK VINA RESULT:      -7.6      4.200      8.862
REMARK  Name = 
REMARK  3 active torsions:
REMARK  status: ('A' for Active; 'I' for Inactive)
REMARK    1  A    between atoms: C_2  and  C_14
REMARK    2  A    between atoms: N_3  and  C_4
REMARK    3  A    between atoms: C_19  and  C_21
REMARK                            x       y       z     vdW  Elec       q    Type
REMARK                         _______ _______ _______ _____ _____    ______ ____
ROOT
ATOM      1  O   UNL     1      -0.378  13.211  17.990  0.00  0.00    +0.000 OA
ATOM      2  C   UNL     1      -0.380  12.036  18.361  0.00  0.00    +0.000 C 
ATOM      3  N   UNL     1       0.794  11.303  18.314  0.00  0.00    +0.000 N 
ATOM      4  H   UNL     1       1.539  11.756  17.795  0.00  0.00    +0.000 HD
ENDROOT
BRANCH   3   5
ATOM      5  C   UNL     1       1.097  10.099  18.973  0.00  0.00    +0.000 A 
ATOM      6  C   UNL     1       0.774   9.907  20.341  0.00  0.00    +0.000 A 
ATOM      7  C   UNL     1       1.081   8.724  21.019  0.00  0.00    +0.000 A 
ATOM      8  C   UNL     1       1.734   7.764  20.293  0.00  0.00    +0.000 A 
ATOM      9  N   UNL     1       2.205   6.521  20.694  0.00  0.00    +0.000 N 
ATOM     10  C   UNL     1       2.854   5.917  19.609  0.00  0.00    +0.000 A 
ATOM     11  O   UNL     1       3.416   4.838  19.608  0.00  0.00    +0.000 OA
ATOM     12  N   UNL     1       2.746   6.806  18.529  0.00  0.00    +0.000 N 
ATOM     13  C   UNL     1       2.077   7.949  18.954  0.00  0.00    +0.000 A 
ATOM     14  C   UNL     1       1.787   9.108  18.267  0.00  0.00    +0.000 A 
ATOM     15  H   UNL     1       2.154   6.114  21.614  0.00  0.00    +0.000 HD
ATOM     16  H   UNL     1       3.145   6.629  17.623  0.00  0.00    +0.000 HD
ENDBRANCH   3   5
BRANCH   2  17
ATOM     17  C   UNL     1      -1.682  11.234  18.610  0.00  0.00    +0.000 C 
ATOM     18  C   UNL     1      -2.056  10.586  17.266  0.00  0.00    +0.000 C 
ATOM     19  C   UNL     1      -3.473  10.098  17.505  0.00  0.00    +0.000 C 
ATOM     20  C   UNL     1      -4.065  11.136  18.450  0.00  0.00    +0.000 C 
ATOM     21  N   UNL     1      -2.931  11.868  19.019  0.00  0.00    +0.000 N 
ATOM     22  C   UNL     1      -2.945  12.764  20.086  0.00  0.00    +0.000 C 
ATOM     23  O   UNL     1      -1.929  13.299  20.521  0.00  0.00    +0.000 OA
BRANCH  22  24
ATOM     24  C   UNL     1      -4.217  13.014  20.807  0.00  0.00    +0.000 A 
ATOM     25  C   UNL     1      -5.321  13.430  20.052  0.00  0.00    +0.000 A 
ATOM     26  C   UNL     1      -6.528  13.738  20.669  0.00  0.00    +0.000 A 
ATOM     27 CL   UNL     1      -7.803  14.411  19.736  0.00  0.00    +0.000 Cl
ATOM     28  C   UNL     1      -6.693  13.522  22.032  0.00  0.00    +0.000 A 
ATOM     29  C   UNL     1      -5.635  12.993  22.778  0.00  0.00    +0.000 A 
ATOM     30  C   UNL     1      -4.390  12.748  22.175  0.00  0.00    +0.000 A 
ATOM     31 CL   UNL     1      -3.135  12.131  23.186  0.00  0.00    +0.000 Cl
ENDBRANCH  22  24
ENDBRANCH   2  17
TORSDOF 3
ENDMDL
