MODEL 1
REMARK VINA RESULT:      -8.7      0.000      0.000
REMARK  Name = 
REMARK  4 active torsions:
REMARK  status: ('A' for Active; 'I' for Inactive)
REMARK    1  A    between atoms: C_5  and  C_7
REMARK    2  A    between atoms: N_13  and  C_14
REMARK    3  A    between atoms: N_24  and  C_25
REMARK    4  A    between atoms: C_25  and  C_26
REMARK                            x       y       z     vdW  Elec       q    Type
REMARK                         _______ _______ _______ _____ _____    ______ ____
ROOT
ATOM      1  C   UNL     1       2.199   6.998  19.530  0.00  0.00    +0.000 A 
ATOM      2  C   UNL     1       1.640   6.236  20.558  0.00  0.00    +0.000 A 
ATOM      3  C   UNL     1       2.096   4.947  20.855  0.00  0.00    +0.000 A 
ATOM      4  C   UNL     1       3.062   4.367  20.030  0.00  0.00    +0.000 A 
ATOM      5  N   UNL     1       3.564   3.100  20.088  0.00  0.00    +0.000 NA
ATOM      6  C   UNL     1       4.350   3.008  19.043  0.00  0.00    +0.000 A 
ATOM      7  N   UNL     1       4.428   4.182  18.321  0.00  0.00    +0.000 N 
ATOM      8  C   UNL     1       3.584   5.088  18.956  0.00  0.00    +0.000 A 
ATOM      9  C   UNL     1       3.159   6.406  18.682  0.00  0.00    +0.000 A 
ENDROOT
BRANCH   1  14
ATOM     10  O   UNL     1      -0.073  10.398  23.241  0.00  0.00    +0.000 OA
ATOM     11  C   UNL     1       0.381  10.219  22.121  0.00  0.00    +0.000 C 
ATOM     12  C   UNL     1       0.981   8.931  21.616  0.00  0.00    +0.000 C 
ATOM     13  N   UNL     1       1.210   9.214  20.203  0.00  0.00    +0.000 N 
ATOM     14  C   UNL     1       1.787   8.411  19.232  0.00  0.00    +0.000 C 
ATOM     15  O   UNL     1       2.030   8.855  18.111  0.00  0.00    +0.000 OA
ATOM     16  C   UNL     1       0.937  10.595  19.897  0.00  0.00    +0.000 C 
ATOM     17  N   UNL     1       0.411  11.147  21.107  0.00  0.00    +0.000 N 
BRANCH  17  18
ATOM     18  C   UNL     1      -0.319  12.410  21.168  0.00  0.00    +0.000 C 
BRANCH  18  19
ATOM     19  C   UNL     1      -1.822  12.325  20.866  0.00  0.00    +0.000 C 
ATOM     20  F   UNL     1      -2.547  11.941  21.941  0.00  0.00    +0.000 F 
ATOM     21  F   UNL     1      -2.312  13.509  20.439  0.00  0.00    +0.000 F 
ATOM     22  F   UNL     1      -2.050  11.417  19.887  0.00  0.00    +0.000 F 
ENDBRANCH  18  19
ENDBRANCH  17  18
ENDBRANCH   1  14
BRANCH   7  23
ATOM     23  C   UNL     1       5.224   4.365  17.160  0.00  0.00    +0.000 A 
ATOM     24  C   UNL     1       6.582   4.696  17.295  0.00  0.00    +0.000 A 
ATOM     25  C   UNL     1       7.371   4.898  16.161  0.00  0.00    +0.000 A 
ATOM     26  C   UNL     1       6.804   4.788  14.894  0.00  0.00    +0.000 A 
ATOM     27 CL   UNL     1       7.770   5.064  13.500  0.00  0.00    +0.000 Cl
ATOM     28  C   UNL     1       5.456   4.465  14.751  0.00  0.00    +0.000 A 
ATOM     29  C   UNL     1       4.663   4.251  15.882  0.00  0.00    +0.000 A 
ENDBRANCH   7  23
TORSDOF 4
ENDMDL
MODEL 2
REMARK VINA RESULT:      -8.7      0.146      1.155
REMARK  Name = 
REMARK  4 active torsions:
REMARK  status: ('A' for Active; 'I' for Inactive)
REMARK    1  A    between atoms: C_5  and  C_7
REMARK    2  A    between atoms: N_13  and  C_14
REMARK    3  A    between atoms: N_24  and  C_25
REMARK    4  A    between atoms: C_25  and  C_26
REMARK                            x       y       z     vdW  Elec       q    Type
REMARK                         _______ _______ _______ _____ _____    ______ ____
ROOT
ATOM      1  C   UNL     1       2.205   6.971  19.619  0.00  0.00    +0.000 A 
ATOM      2  C   UNL     1       1.639   6.173  20.616  0.00  0.00    +0.000 A 
ATOM      3  C   UNL     1       2.088   4.872  20.865  0.00  0.00    +0.000 A 
ATOM      4  C   UNL     1       3.055   4.319  20.022  0.00  0.00    +0.000 A 
ATOM      5  N   UNL     1       3.552   3.049  20.035  0.00  0.00    +0.000 NA
ATOM      6  C   UNL     1       4.341   2.993  18.990  0.00  0.00    +0.000 A 
ATOM      7  N   UNL     1       4.427   4.193  18.313  0.00  0.00    +0.000 N 
ATOM      8  C   UNL     1       3.585   5.078  18.978  0.00  0.00    +0.000 A 
ATOM      9  C   UNL     1       3.166   6.408  18.753  0.00  0.00    +0.000 A 
ENDROOT
BRANCH   1  14
ATOM     10  O   UNL     1      -0.091  10.230  23.440  0.00  0.00    +0.000 OA
ATOM     11  C   UNL     1       0.373  10.094  22.319  0.00  0.00    +0.000 C 
ATOM     12  C   UNL     1       0.974   8.824  21.769  0.00  0.00    +0.000 C 
ATOM     13  N   UNL     1       1.217   9.162  20.370  0.00  0.00    +0.000 N 
ATOM     14  C   UNL     1       1.801   8.396  19.373  0.00  0.00    +0.000 C 
ATOM     15  O   UNL     1       2.055   8.884  18.274  0.00  0.00    +0.000 OA
ATOM     16  C   UNL     1       0.950  10.555  20.116  0.00  0.00    +0.000 C 
ATOM     17  N   UNL     1       0.415  11.061  21.342  0.00  0.00    +0.000 N 
BRANCH  17  18
ATOM     18  C   UNL     1      -0.311  12.323  21.447  0.00  0.00    +0.000 C 
BRANCH  18  19
ATOM     19  C   UNL     1      -1.792  12.274  21.041  0.00  0.00    +0.000 C 
ATOM     20  F   UNL     1      -2.017  11.443  19.998  0.00  0.00    +0.000 F 
ATOM     21  F   UNL     1      -2.576  11.873  22.065  0.00  0.00    +0.000 F 
ATOM     22  F   UNL     1      -2.214  13.506  20.668  0.00  0.00    +0.000 F 
ENDBRANCH  18  19
ENDBRANCH  17  18
ENDBRANCH   1  14
BRANCH   7  23
ATOM     23  C   UNL     1       5.228   4.416  17.163  0.00  0.00    +0.000 A 
ATOM     24  C   UNL     1       4.659   4.288  15.886  0.00  0.00    +0.000 A 
ATOM     25  C   UNL     1       5.442   4.484  14.746  0.00  0.00    +0.000 A 
ATOM     26  C   UNL     1       6.794   4.790  14.878  0.00  0.00    +0.000 A 
ATOM     27 CL   UNL     1       7.763   5.004  13.475  0.00  0.00    +0.000 Cl
ATOM     28  C   UNL     1       7.368   4.913  16.143  0.00  0.00    +0.000 A 
ATOM     29  C   UNL     1       6.587   4.729  17.287  0.00  0.00    +0.000 A 
ENDBRANCH   7  23
TORSDOF 4
ENDMDL
MODEL 3
REMARK VINA RESULT:      -8.7      1.096      1.277
REMARK  Name = 
REMARK  4 active torsions:
REMARK  status: ('A' for Active; 'I' for Inactive)
REMARK    1  A    between atoms: C_5  and  C_7
REMARK    2  A    between atoms: N_13  and  C_14
REMARK    3  A    between atoms: N_24  and  C_25
REMARK    4  A    between atoms: C_25  and  C_26
REMARK                            x       y       z     vdW  Elec       q    Type
REMARK                         _______ _______ _______ _____ _____    ______ ____
ROOT
ATOM      1  C   UNL     1       2.212   6.731  19.619  0.00  0.00    +0.000 A 
ATOM      2  C   UNL     1       1.689   5.927  20.634  0.00  0.00    +0.000 A 
ATOM      3  C   UNL     1       2.188   4.646  20.893  0.00  0.00    +0.000 A 
ATOM      4  C   UNL     1       3.162   4.117  20.042  0.00  0.00    +0.000 A 
ATOM      5  N   UNL     1       3.704   2.865  20.063  0.00  0.00    +0.000 NA
ATOM      6  C   UNL     1       4.478   2.823  19.007  0.00  0.00    +0.000 A 
ATOM      7  N   UNL     1       4.510   4.017  18.313  0.00  0.00    +0.000 N 
ATOM      8  C   UNL     1       3.648   4.880  18.980  0.00  0.00    +0.000 A 
ATOM      9  C   UNL     1       3.178   6.191  18.745  0.00  0.00    +0.000 A 
ENDROOT
BRANCH   1  14
ATOM     10  O   UNL     1       0.075  10.038  23.491  0.00  0.00    +0.000 OA
ATOM     11  C   UNL     1       0.470   9.882  22.346  0.00  0.00    +0.000 C 
ATOM     12  C   UNL     1       1.069   8.613  21.793  0.00  0.00    +0.000 C 
ATOM     13  N   UNL     1       1.212   8.917  20.373  0.00  0.00    +0.000 N 
ATOM     14  C   UNL     1       1.753   8.138  19.361  0.00  0.00    +0.000 C 
ATOM     15  O   UNL     1       1.922   8.599  18.234  0.00  0.00    +0.000 OA
ATOM     16  C   UNL     1       0.892  10.294  20.098  0.00  0.00    +0.000 C 
ATOM     17  N   UNL     1       0.422  10.821  21.343  0.00  0.00    +0.000 N 
BRANCH  17  18
ATOM     18  C   UNL     1      -0.331  12.066  21.460  0.00  0.00    +0.000 C 
BRANCH  18  19
ATOM     19  C   UNL     1       0.402  13.333  20.995  0.00  0.00    +0.000 C 
ATOM     20  F   UNL     1      -0.034  14.447  21.626  0.00  0.00    +0.000 F 
ATOM     21  F   UNL     1       1.735  13.240  21.196  0.00  0.00    +0.000 F 
ATOM     22  F   UNL     1       0.207  13.525  19.668  0.00  0.00    +0.000 F 
ENDBRANCH  18  19
ENDBRANCH  17  18
ENDBRANCH   1  14
BRANCH   7  23
ATOM     23  C   UNL     1       5.286   4.252  17.148  0.00  0.00    +0.000 A 
ATOM     24  C   UNL     1       6.623   4.662  17.275  0.00  0.00    +0.000 A 
ATOM     25  C   UNL     1       7.390   4.917  16.137  0.00  0.00    +0.000 A 
ATOM     26  C   UNL     1       6.821   4.781  14.873  0.00  0.00    +0.000 A 
ATOM     27 CL   UNL     1       7.758   5.122  13.473  0.00  0.00    +0.000 Cl
ATOM     28  C   UNL     1       5.493   4.381  14.738  0.00  0.00    +0.000 A 
ATOM     29  C   UNL     1       4.723   4.114  15.874  0.00  0.00    +0.000 A 
ENDBRANCH   7  23
TORSDOF 4
ENDMDL
MODEL 4
REMARK VINA RESULT:      -8.6      1.131      1.628
REMARK  Name = 
REMARK  4 active torsions:
REMARK  status: ('A' for Active; 'I' for Inactive)
REMARK    1  A    between atoms: C_5  and  C_7
REMARK    2  A    between atoms: N_13  and  C_14
REMARK    3  A    between atoms: N_24  and  C_25
REMARK    4  A    between atoms: C_25  and  C_26
REMARK                            x       y       z     vdW  Elec       q    Type
REMARK                         _______ _______ _______ _____ _____    ______ ____
ROOT
ATOM      1  C   UNL     1       2.221   6.820  19.600  0.00  0.00    +0.000 A 
ATOM      2  C   UNL     1       1.717   5.995  20.608  0.00  0.00    +0.000 A 
ATOM      3  C   UNL     1       2.240   4.721  20.852  0.00  0.00    +0.000 A 
ATOM      4  C   UNL     1       3.219   4.218  19.991  0.00  0.00    +0.000 A 
ATOM      5  N   UNL     1       3.784   2.977  19.997  0.00  0.00    +0.000 NA
ATOM      6  C   UNL     1       4.554   2.960  18.936  0.00  0.00    +0.000 A 
ATOM      7  N   UNL     1       4.562   4.161  18.256  0.00  0.00    +0.000 N 
ATOM      8  C   UNL     1       3.687   5.002  18.936  0.00  0.00    +0.000 A 
ATOM      9  C   UNL     1       3.193   6.306  18.716  0.00  0.00    +0.000 A 
ENDROOT
BRANCH   1  14
ATOM     10  O   UNL     1       0.082  10.062  23.525  0.00  0.00    +0.000 OA
ATOM     11  C   UNL     1       0.464   9.921  22.373  0.00  0.00    +0.000 C 
ATOM     12  C   UNL     1       1.077   8.666  21.803  0.00  0.00    +0.000 C 
ATOM     13  N   UNL     1       1.196   8.983  20.383  0.00  0.00    +0.000 N 
ATOM     14  C   UNL     1       1.735   8.220  19.359  0.00  0.00    +0.000 C 
ATOM     15  O   UNL     1       1.882   8.693  18.234  0.00  0.00    +0.000 OA
ATOM     16  C   UNL     1       0.849  10.357  20.124  0.00  0.00    +0.000 C 
ATOM     17  N   UNL     1       0.388  10.867  21.379  0.00  0.00    +0.000 N 
BRANCH  17  18
ATOM     18  C   UNL     1      -0.384  12.098  21.515  0.00  0.00    +0.000 C 
BRANCH  18  19
ATOM     19  C   UNL     1       0.408  13.402  21.339  0.00  0.00    +0.000 C 
ATOM     20  F   UNL     1       1.738  13.190  21.217  0.00  0.00    +0.000 F 
ATOM     21  F   UNL     1      -0.001  14.090  20.251  0.00  0.00    +0.000 F 
ATOM     22  F   UNL     1       0.230  14.206  22.415  0.00  0.00    +0.000 F 
ENDBRANCH  18  19
ENDBRANCH  17  18
ENDBRANCH   1  14
BRANCH   7  23
ATOM     23  C   UNL     1       5.328   4.423  17.089  0.00  0.00    +0.000 A 
ATOM     24  C   UNL     1       4.797   4.114  15.827  0.00  0.00    +0.000 A 
ATOM     25  C   UNL     1       5.548   4.348  14.673  0.00  0.00    +0.000 A 
ATOM     26  C   UNL     1       6.834   4.873  14.779  0.00  0.00    +0.000 A 
ATOM     27 CL   UNL     1       7.768   5.133  13.360  0.00  0.00    +0.000 Cl
ATOM     28  C   UNL     1       7.371   5.176  16.028  0.00  0.00    +0.000 A 
ATOM     29  C   UNL     1       6.620   4.955  17.186  0.00  0.00    +0.000 A 
ENDBRANCH   7  23
TORSDOF 4
ENDMDL
MODEL 5
REMARK VINA RESULT:      -8.5      0.821      1.294
REMARK  Name = 
REMARK  4 active torsions:
REMARK  status: ('A' for Active; 'I' for Inactive)
REMARK    1  A    between atoms: C_5  and  C_7
REMARK    2  A    between atoms: N_13  and  C_14
REMARK    3  A    between atoms: N_24  and  C_25
REMARK    4  A    between atoms: C_25  and  C_26
REMARK                            x       y       z     vdW  Elec       q    Type
REMARK                         _______ _______ _______ _____ _____    ______ ____
ROOT
ATOM      1  C   UNL     1       2.400   7.201  18.963  0.00  0.00    +0.000 A 
ATOM      2  C   UNL     1       1.916   6.478  20.056  0.00  0.00    +0.000 A 
ATOM      3  C   UNL     1       2.443   5.231  20.409  0.00  0.00    +0.000 A 
ATOM      4  C   UNL     1       3.403   4.646  19.581  0.00  0.00    +0.000 A 
ATOM      5  N   UNL     1       3.966   3.408  19.693  0.00  0.00    +0.000 NA
ATOM      6  C   UNL     1       4.714   3.288  18.624  0.00  0.00    +0.000 A 
ATOM      7  N   UNL     1       4.710   4.419  17.832  0.00  0.00    +0.000 N 
ATOM      8  C   UNL     1       3.850   5.323  18.446  0.00  0.00    +0.000 A 
ATOM      9  C   UNL     1       3.354   6.602  18.113  0.00  0.00    +0.000 A 
ENDROOT
BRANCH   1  14
ATOM     10  O   UNL     1       0.081  10.701  22.550  0.00  0.00    +0.000 OA
ATOM     11  C   UNL     1       0.509  10.479  21.427  0.00  0.00    +0.000 C 
ATOM     12  C   UNL     1       1.154   9.193  20.977  0.00  0.00    +0.000 C 
ATOM     13  N   UNL     1       1.326   9.404  19.543  0.00  0.00    +0.000 N 
ATOM     14  C   UNL     1       1.911   8.574  18.600  0.00  0.00    +0.000 C 
ATOM     15  O   UNL     1       2.098   8.963  17.448  0.00  0.00    +0.000 OA
ATOM     16  C   UNL     1       0.977  10.750  19.168  0.00  0.00    +0.000 C 
ATOM     17  N   UNL     1       0.462  11.347  20.362  0.00  0.00    +0.000 N 
BRANCH  17  18
ATOM     18  C   UNL     1      -0.325  12.576  20.377  0.00  0.00    +0.000 C 
BRANCH  18  19
ATOM     19  C   UNL     1      -1.605  12.556  19.527  0.00  0.00    +0.000 C 
ATOM     20  F   UNL     1      -2.556  13.392  20.001  0.00  0.00    +0.000 F 
ATOM     21  F   UNL     1      -1.356  12.898  18.244  0.00  0.00    +0.000 F 
ATOM     22  F   UNL     1      -2.138  11.311  19.517  0.00  0.00    +0.000 F 
ENDBRANCH  18  19
ENDBRANCH  17  18
ENDBRANCH   1  14
BRANCH   7  23
ATOM     23  C   UNL     1       5.452   4.566  16.630  0.00  0.00    +0.000 A 
ATOM     24  C   UNL     1       4.860   4.228  15.403  0.00  0.00    +0.000 A 
ATOM     25  C   UNL     1       5.586   4.348  14.216  0.00  0.00    +0.000 A 
ATOM     26  C   UNL     1       6.907   4.789  14.254  0.00  0.00    +0.000 A 
ATOM     27 CL   UNL     1       7.808   4.910  12.796  0.00  0.00    +0.000 Cl
ATOM     28  C   UNL     1       7.505   5.120  15.469  0.00  0.00    +0.000 A 
ATOM     29  C   UNL     1       6.779   5.012  16.659  0.00  0.00    +0.000 A 
ENDBRANCH   7  23
TORSDOF 4
ENDMDL
MODEL 6
REMARK VINA RESULT:      -8.4      1.354      1.616
REMARK  Name = 
REMARK  4 active torsions:
REMARK  status: ('A' for Active; 'I' for Inactive)
REMARK    1  A    between atoms: C_5  and  C_7
REMARK    2  A    between atoms: N_13  and  C_14
REMARK    3  A    between atoms: N_24  and  C_25
REMARK    4  A    between atoms: C_25  and  C_26
REMARK                            x       y       z     vdW  Elec       q    Type
REMARK                         _______ _______ _______ _____ _____    ______ ____
ROOT
ATOM      1  C   UNL     1       2.306   7.319  18.967  0.00  0.00    +0.000 A 
ATOM      2  C   UNL     1       1.808   6.651  20.088  0.00  0.00    +0.000 A 
ATOM      3  C   UNL     1       2.333   5.426  20.511  0.00  0.00    +0.000 A 
ATOM      4  C   UNL     1       3.308   4.802  19.728  0.00  0.00    +0.000 A 
ATOM      5  N   UNL     1       3.873   3.575  19.911  0.00  0.00    +0.000 NA
ATOM      6  C   UNL     1       4.638   3.403  18.860  0.00  0.00    +0.000 A 
ATOM      7  N   UNL     1       4.641   4.493  18.012  0.00  0.00    +0.000 N 
ATOM      8  C   UNL     1       3.769   5.424  18.567  0.00  0.00    +0.000 A 
ATOM      9  C   UNL     1       3.274   6.682  18.162  0.00  0.00    +0.000 A 
ENDROOT
BRANCH   1  14
ATOM     10  O   UNL     1       0.042  11.038  22.364  0.00  0.00    +0.000 OA
ATOM     11  C   UNL     1       0.456  10.748  21.252  0.00  0.00    +0.000 C 
ATOM     12  C   UNL     1       1.091   9.434  20.872  0.00  0.00    +0.000 C 
ATOM     13  N   UNL     1       1.247   9.558  19.426  0.00  0.00    +0.000 N 
ATOM     14  C   UNL     1       1.818   8.670  18.527  0.00  0.00    +0.000 C 
ATOM     15  O   UNL     1       1.992   8.989  17.353  0.00  0.00    +0.000 OA
ATOM     16  C   UNL     1       0.898  10.881  18.975  0.00  0.00    +0.000 C 
ATOM     17  N   UNL     1       0.400  11.550  20.137  0.00  0.00    +0.000 N 
BRANCH  17  18
ATOM     18  C   UNL     1      -0.382  12.781  20.087  0.00  0.00    +0.000 C 
BRANCH  18  19
ATOM     19  C   UNL     1      -0.068  13.722  18.914  0.00  0.00    +0.000 C 
ATOM     20  F   UNL     1       1.260  13.900  18.733  0.00  0.00    +0.000 F 
ATOM     21  F   UNL     1      -0.585  13.263  17.754  0.00  0.00    +0.000 F 
ATOM     22  F   UNL     1      -0.606  14.945  19.140  0.00  0.00    +0.000 F 
ENDBRANCH  18  19
ENDBRANCH  17  18
ENDBRANCH   1  14
BRANCH   7  23
ATOM     23  C   UNL     1       5.401   4.582  16.815  0.00  0.00    +0.000 A 
ATOM     24  C   UNL     1       6.726   5.043  16.869  0.00  0.00    +0.000 A 
ATOM     25  C   UNL     1       7.478   5.154  15.697  0.00  0.00    +0.000 A 
ATOM     26  C   UNL     1       6.903   4.825  14.471  0.00  0.00    +0.000 A 
ATOM     27 CL   UNL     1       7.820   4.989  13.027  0.00  0.00    +0.000 Cl
ATOM     28  C   UNL     1       5.586   4.373  14.409  0.00  0.00    +0.000 A 
ATOM     29  C   UNL     1       4.832   4.248  15.580  0.00  0.00    +0.000 A 
ENDBRANCH   7  23
TORSDOF 4
ENDMDL
MODEL 7
REMARK VINA RESULT:      -8.2      1.232      1.700
REMARK  Name = 
REMARK  4 active torsions:
REMARK  status: ('A' for Active; 'I' for Inactive)
REMARK    1  A    between atoms: C_5  and  C_7
REMARK    2  A    between atoms: N_13  and  C_14
REMARK    3  A    between atoms: N_24  and  C_25
REMARK    4  A    between atoms: C_25  and  C_26
REMARK                            x       y       z     vdW  Elec       q    Type
REMARK                         _______ _______ _______ _____ _____    ______ ____
ROOT
ATOM      1  C   UNL     1       2.293   7.149  19.092  0.00  0.00    +0.000 A 
ATOM      2  C   UNL     1       1.809   6.412  20.176  0.00  0.00    +0.000 A 
ATOM      3  C   UNL     1       2.351   5.172  20.527  0.00  0.00    +0.000 A 
ATOM      4  C   UNL     1       3.329   4.606  19.706  0.00  0.00    +0.000 A 
ATOM      5  N   UNL     1       3.910   3.377  19.816  0.00  0.00    +0.000 NA
ATOM      6  C   UNL     1       4.671   3.274  18.754  0.00  0.00    +0.000 A 
ATOM      7  N   UNL     1       4.657   4.410  17.969  0.00  0.00    +0.000 N 
ATOM      8  C   UNL     1       3.777   5.297  18.579  0.00  0.00    +0.000 A 
ATOM      9  C   UNL     1       3.264   6.570  18.248  0.00  0.00    +0.000 A 
ENDROOT
BRANCH   1  14
ATOM     10  O   UNL     1       0.097  10.683  22.723  0.00  0.00    +0.000 OA
ATOM     11  C   UNL     1       0.484  10.450  21.588  0.00  0.00    +0.000 C 
ATOM     12  C   UNL     1       1.116   9.160  21.128  0.00  0.00    +0.000 C 
ATOM     13  N   UNL     1       1.234   9.355  19.687  0.00  0.00    +0.000 N 
ATOM     14  C   UNL     1       1.786   8.516  18.732  0.00  0.00    +0.000 C 
ATOM     15  O   UNL     1       1.929   8.893  17.570  0.00  0.00    +0.000 OA
ATOM     16  C   UNL     1       0.867  10.697  19.310  0.00  0.00    +0.000 C 
ATOM     17  N   UNL     1       0.395  11.305  20.516  0.00  0.00    +0.000 N 
BRANCH  17  18
ATOM     18  C   UNL     1      -0.395  12.532  20.545  0.00  0.00    +0.000 C 
BRANCH  18  19
ATOM     19  C   UNL     1       0.243  13.751  19.864  0.00  0.00    +0.000 C 
ATOM     20  F   UNL     1      -0.044  13.818  18.544  0.00  0.00    +0.000 F 
ATOM     21  F   UNL     1      -0.160  14.908  20.433  0.00  0.00    +0.000 F 
ATOM     22  F   UNL     1       1.592  13.695  19.975  0.00  0.00    +0.000 F 
ENDBRANCH  18  19
ENDBRANCH  17  18
ENDBRANCH   1  14
BRANCH   7  23
ATOM     23  C   UNL     1       5.410   4.576  16.776  0.00  0.00    +0.000 A 
ATOM     24  C   UNL     1       4.828   4.254  15.540  0.00  0.00    +0.000 A 
ATOM     25  C   UNL     1       5.564   4.393  14.361  0.00  0.00    +0.000 A 
ATOM     26  C   UNL     1       6.884   4.835  14.416  0.00  0.00    +0.000 A 
ATOM     27 CL   UNL     1       7.798   4.979  12.968  0.00  0.00    +0.000 Cl
ATOM     28  C   UNL     1       7.471   5.150  15.641  0.00  0.00    +0.000 A 
ATOM     29  C   UNL     1       6.735   5.024  16.823  0.00  0.00    +0.000 A 
ENDBRANCH   7  23
TORSDOF 4
ENDMDL
MODEL 8
REMARK VINA RESULT:      -7.9      5.211      8.815
REMARK  Name = 
REMARK  4 active torsions:
REMARK  status: ('A' for Active; 'I' for Inactive)
REMARK    1  A    between atoms: C_5  and  C_7
REMARK    2  A    between atoms: N_13  and  C_14
REMARK    3  A    between atoms: N_24  and  C_25
REMARK    4  A    between atoms: C_25  and  C_26
REMARK                            x       y       z     vdW  Elec       q    Type
REMARK                         _______ _______ _______ _____ _____    ______ ____
ROOT
ATOM      1  C   UNL     1       1.375   8.820  19.680  0.00  0.00    +0.000 A 
ATOM      2  C   UNL     1       1.576   9.440  20.916  0.00  0.00    +0.000 A 
ATOM      3  C   UNL     1       0.660  10.356  21.441  0.00  0.00    +0.000 A 
ATOM      4  C   UNL     1      -0.431  10.743  20.659  0.00  0.00    +0.000 A 
ATOM      5  N   UNL     1      -1.376  11.684  20.944  0.00  0.00    +0.000 NA
ATOM      6  C   UNL     1      -2.109  11.755  19.860  0.00  0.00    +0.000 A 
ATOM      7  N   UNL     1      -1.718  10.859  18.885  0.00  0.00    +0.000 N 
ATOM      8  C   UNL     1      -0.613  10.185  19.393  0.00  0.00    +0.000 A 
ATOM      9  C   UNL     1       0.286   9.225  18.879  0.00  0.00    +0.000 A 
ENDROOT
BRANCH   1  14
ATOM     10  O   UNL     1       1.666   3.632  21.550  0.00  0.00    +0.000 OA
ATOM     11  C   UNL     1       2.007   4.474  20.733  0.00  0.00    +0.000 C 
ATOM     12  C   UNL     1       1.504   5.895  20.680  0.00  0.00    +0.000 C 
ATOM     13  N   UNL     1       2.335   6.492  19.640  0.00  0.00    +0.000 N 
ATOM     14  C   UNL     1       2.298   7.776  19.120  0.00  0.00    +0.000 C 
ATOM     15  O   UNL     1       2.983   8.080  18.145  0.00  0.00    +0.000 OA
ATOM     16  C   UNL     1       3.156   5.500  18.994  0.00  0.00    +0.000 C 
ATOM     17  N   UNL     1       2.925   4.293  19.726  0.00  0.00    +0.000 N 
BRANCH  17  18
ATOM     18  C   UNL     1       3.794   3.123  19.649  0.00  0.00    +0.000 C 
BRANCH  18  19
ATOM     19  C   UNL     1       3.281   1.969  18.775  0.00  0.00    +0.000 C 
ATOM     20  F   UNL     1       2.066   1.522  19.165  0.00  0.00    +0.000 F 
ATOM     21  F   UNL     1       3.191   2.329  17.477  0.00  0.00    +0.000 F 
ATOM     22  F   UNL     1       4.133   0.917  18.844  0.00  0.00    +0.000 F 
ENDBRANCH  18  19
ENDBRANCH  17  18
ENDBRANCH   1  14
BRANCH   7  23
ATOM     23  C   UNL     1      -2.354  10.709  17.624  0.00  0.00    +0.000 A 
ATOM     24  C   UNL     1      -3.538  11.414  17.357  0.00  0.00    +0.000 A 
ATOM     25  C   UNL     1      -4.185  11.260  16.129  0.00  0.00    +0.000 A 
ATOM     26  C   UNL     1      -3.662  10.389  15.175  0.00  0.00    +0.000 A 
ATOM     27 CL   UNL     1      -4.475  10.179  13.676  0.00  0.00    +0.000 Cl
ATOM     28  C   UNL     1      -2.492   9.680  15.436  0.00  0.00    +0.000 A 
ATOM     29  C   UNL     1      -1.833   9.839  16.659  0.00  0.00    +0.000 A 
ENDBRANCH   7  23
TORSDOF 4
ENDMDL
MODEL 9
REMARK VINA RESULT:      -7.9      4.991      9.076
REMARK  Name = 
REMARK  4 active torsions:
REMARK  status: ('A' for Active; 'I' for Inactive)
REMARK    1  A    between atoms: C_5  and  C_7
REMARK    2  A    between atoms: N_13  and  C_14
REMARK    3  A    between atoms: N_24  and  C_25
REMARK    4  A    between atoms: C_25  and  C_26
REMARK                            x       y       z     vdW  Elec       q    Type
REMARK                         _______ _______ _______ _____ _____    ______ ____
ROOT
ATOM      1  C   UNL     1       1.022   8.913  20.606  0.00  0.00    +0.000 A 
ATOM      2  C   UNL     1       0.384   8.395  21.736  0.00  0.00    +0.000 A 
ATOM      3  C   UNL     1      -0.393   9.196  22.578  0.00  0.00    +0.000 A 
ATOM      4  C   UNL     1      -0.441  10.573  22.344  0.00  0.00    +0.000 A 
ATOM      5  N   UNL     1      -1.054  11.531  23.096  0.00  0.00    +0.000 NA
ATOM      6  C   UNL     1      -0.719  12.663  22.526  0.00  0.00    +0.000 A 
ATOM      7  N   UNL     1       0.052  12.489  21.393  0.00  0.00    +0.000 N 
ATOM      8  C   UNL     1       0.246  11.119  21.259  0.00  0.00    +0.000 A 
ATOM      9  C   UNL     1       0.994  10.305  20.380  0.00  0.00    +0.000 A 
ENDROOT
BRANCH   1  14
ATOM     10  O   UNL     1       2.117   3.554  21.371  0.00  0.00    +0.000 OA
ATOM     11  C   UNL     1       2.163   4.543  20.655  0.00  0.00    +0.000 C 
ATOM     12  C   UNL     1       1.590   5.896  20.996  0.00  0.00    +0.000 C 
ATOM     13  N   UNL     1       2.055   6.729  19.891  0.00  0.00    +0.000 N 
ATOM     14  C   UNL     1       1.801   8.068  19.638  0.00  0.00    +0.000 C 
ATOM     15  O   UNL     1       2.160   8.588  18.584  0.00  0.00    +0.000 OA
ATOM     16  C   UNL     1       2.709   5.939  18.880  0.00  0.00    +0.000 C 
ATOM     17  N   UNL     1       2.763   4.615  19.420  0.00  0.00    +0.000 N 
BRANCH  17  18
ATOM     18  C   UNL     1       3.636   3.566  18.902  0.00  0.00    +0.000 C 
BRANCH  18  19
ATOM     19  C   UNL     1       2.973   2.561  17.949  0.00  0.00    +0.000 C 
ATOM     20  F   UNL     1       2.502   3.144  16.824  0.00  0.00    +0.000 F 
ATOM     21  F   UNL     1       3.831   1.585  17.580  0.00  0.00    +0.000 F 
ATOM     22  F   UNL     1       1.921   1.963  18.559  0.00  0.00    +0.000 F 
ENDBRANCH  18  19
ENDBRANCH  17  18
ENDBRANCH   1  14
BRANCH   7  23
ATOM     23  C   UNL     1       0.530  13.545  20.573  0.00  0.00    +0.000 A 
ATOM     24  C   UNL     1      -0.368  14.244  19.751  0.00  0.00    +0.000 A 
ATOM     25  C   UNL     1       0.093  15.271  18.923  0.00  0.00    +0.000 A 
ATOM     26  C   UNL     1       1.449  15.588  18.903  0.00  0.00    +0.000 A 
ATOM     27 CL   UNL     1       2.019  16.833  17.863  0.00  0.00    +0.000 Cl
ATOM     28  C   UNL     1       2.348  14.893  19.711  0.00  0.00    +0.000 A 
ATOM     29  C   UNL     1       1.891  13.872  20.549  0.00  0.00    +0.000 A 
ENDBRANCH   7  23
TORSDOF 4
ENDMDL
