MODEL 1
REMARK VINA RESULT:      -8.5      0.000      0.000
REMARK  Name = 
REMARK  5 active torsions:
REMARK  status: ('A' for Active; 'I' for Inactive)
REMARK    1  A    between atoms: C_1  and  C_2
REMARK    2  A    between atoms: C_4  and  S_5
REMARK    3  A    between atoms: S_5  and  N_8
REMARK    4  A    between atoms: N_8  and  C_9
REMARK    5  A    between atoms: C_9  and  C_10
REMARK                            x       y       z     vdW  Elec       q    Type
REMARK                         _______ _______ _______ _____ _____    ______ ____
ROOT
ATOM      1  N   UNL     1       4.080   3.443  18.040  0.00  0.00    +0.000 NA
ATOM      2  H   UNL     1       4.710   2.752  18.449  0.00  0.00    +0.000 HD
ENDROOT
BRANCH   1   3
ATOM      3  S   UNL     1       2.521   3.352  18.698  0.00  0.00    +0.000 S 
ATOM      4  O   UNL     1       2.566   2.543  19.895  0.00  0.00    +0.000 OA
ATOM      5  O   UNL     1       1.621   3.053  17.608  0.00  0.00    +0.000 OA
BRANCH   3   9
ATOM      6  C   UNL     1       2.453   8.577  17.776  0.00  0.00    +0.000 C 
ATOM      7  C   UNL     1       2.234   7.418  18.703  0.00  0.00    +0.000 A 
ATOM      8  C   UNL     1       2.418   6.091  18.284  0.00  0.00    +0.000 A 
ATOM      9  C   UNL     1       2.201   5.039  19.187  0.00  0.00    +0.000 A 
ATOM     10  C   UNL     1       1.836   5.302  20.514  0.00  0.00    +0.000 A 
ATOM     11  C   UNL     1       1.662   6.622  20.932  0.00  0.00    +0.000 A 
ATOM     12  C   UNL     1       1.857   7.662  20.029  0.00  0.00    +0.000 A 
ATOM     13  F   UNL     1       1.691   8.924  20.452  0.00  0.00    +0.000 F 
ENDBRANCH   3   9
ENDBRANCH   1   3
BRANCH   1  14
ATOM     14  C   UNL     1       4.139   3.502  16.572  0.00  0.00    +0.000 C 
BRANCH  14  15
ATOM     15  C   UNL     1       5.326   4.316  16.122  0.00  0.00    +0.000 A 
ATOM     16  C   UNL     1       5.958   5.113  17.006  0.00  0.00    +0.000 A 
ATOM     17  C   UNL     1       7.176   5.881  16.670  0.00  0.00    +0.000 A 
ATOM     18  O   UNL     1       7.733   6.569  17.517  0.00  0.00    +0.000 OA
ATOM     19  N   UNL     1       7.631   5.776  15.391  0.00  0.00    +0.000 N 
ATOM     20  C   UNL     1       7.022   4.977  14.418  0.00  0.00    +0.000 A 
ATOM     21  C   UNL     1       7.579   4.952  13.135  0.00  0.00    +0.000 A 
ATOM     22  C   UNL     1       7.002   4.158  12.150  0.00  0.00    +0.000 A 
ATOM     23  C   UNL     1       5.884   3.384  12.455  0.00  0.00    +0.000 A 
ATOM     24  C   UNL     1       5.330   3.409  13.742  0.00  0.00    +0.000 A 
ATOM     25  C   UNL     1       5.880   4.218  14.745  0.00  0.00    +0.000 A 
ATOM     26  H   UNL     1       8.467   6.301  15.173  0.00  0.00    +0.000 HD
ENDBRANCH  14  15
ENDBRANCH   1  14
TORSDOF 4
ENDMDL
MODEL 2
REMARK VINA RESULT:      -8.2      1.377      2.927
REMARK  Name = 
REMARK  5 active torsions:
REMARK  status: ('A' for Active; 'I' for Inactive)
REMARK    1  A    between atoms: C_1  and  C_2
REMARK    2  A    between atoms: C_4  and  S_5
REMARK    3  A    between atoms: S_5  and  N_8
REMARK    4  A    between atoms: N_8  and  C_9
REMARK    5  A    between atoms: C_9  and  C_10
REMARK                            x       y       z     vdW  Elec       q    Type
REMARK                         _______ _______ _______ _____ _____    ______ ____
ROOT
ATOM      1  N   UNL     1       3.066   3.424  16.967  0.00  0.00    +0.000 NA
ATOM      2  H   UNL     1       3.091   4.402  16.678  0.00  0.00    +0.000 HD
ENDROOT
BRANCH   1   3
ATOM      3  S   UNL     1       2.287   3.221  18.458  0.00  0.00    +0.000 S 
ATOM      4  O   UNL     1       3.182   2.539  19.365  0.00  0.00    +0.000 OA
ATOM      5  O   UNL     1       0.961   2.721  18.174  0.00  0.00    +0.000 OA
BRANCH   3   9
ATOM      6  C   UNL     1       2.659   8.476  17.823  0.00  0.00    +0.000 C 
ATOM      7  C   UNL     1       2.330   7.291  18.682  0.00  0.00    +0.000 A 
ATOM      8  C   UNL     1       2.413   5.978  18.193  0.00  0.00    +0.000 A 
ATOM      9  C   UNL     1       2.095   4.901  19.033  0.00  0.00    +0.000 A 
ATOM     10  C   UNL     1       1.726   5.122  20.367  0.00  0.00    +0.000 A 
ATOM     11  C   UNL     1       1.651   6.427  20.854  0.00  0.00    +0.000 A 
ATOM     12  C   UNL     1       1.947   7.494  20.012  0.00  0.00    +0.000 A 
ATOM     13  F   UNL     1       1.875   8.741  20.502  0.00  0.00    +0.000 F 
ENDBRANCH   3   9
ENDBRANCH   1   3
BRANCH   1  14
ATOM     14  C   UNL     1       4.357   2.734  16.835  0.00  0.00    +0.000 C 
BRANCH  14  15
ATOM     15  C   UNL     1       5.421   3.689  16.355  0.00  0.00    +0.000 A 
ATOM     16  C   UNL     1       5.714   3.752  15.042  0.00  0.00    +0.000 A 
ATOM     17  C   UNL     1       6.684   4.715  14.478  0.00  0.00    +0.000 A 
ATOM     18  O   UNL     1       6.894   4.755  13.272  0.00  0.00    +0.000 OA
ATOM     19  N   UNL     1       7.312   5.539  15.362  0.00  0.00    +0.000 N 
ATOM     20  C   UNL     1       7.066   5.523  16.739  0.00  0.00    +0.000 A 
ATOM     21  C   UNL     1       7.776   6.415  17.551  0.00  0.00    +0.000 A 
ATOM     22  C   UNL     1       7.545   6.430  18.922  0.00  0.00    +0.000 A 
ATOM     23  C   UNL     1       6.598   5.569  19.472  0.00  0.00    +0.000 A 
ATOM     24  C   UNL     1       5.887   4.679  18.656  0.00  0.00    +0.000 A 
ATOM     25  C   UNL     1       6.118   4.628  17.275  0.00  0.00    +0.000 A 
ATOM     26  H   UNL     1       7.969   6.197  14.967  0.00  0.00    +0.000 HD
ENDBRANCH  14  15
ENDBRANCH   1  14
TORSDOF 4
ENDMDL
MODEL 3
REMARK VINA RESULT:      -8.2      3.049      7.272
REMARK  Name = 
REMARK  5 active torsions:
REMARK  status: ('A' for Active; 'I' for Inactive)
REMARK    1  A    between atoms: C_1  and  C_2
REMARK    2  A    between atoms: C_4  and  S_5
REMARK    3  A    between atoms: S_5  and  N_8
REMARK    4  A    between atoms: N_8  and  C_9
REMARK    5  A    between atoms: C_9  and  C_10
REMARK                            x       y       z     vdW  Elec       q    Type
REMARK                         _______ _______ _______ _____ _____    ______ ____
ROOT
ATOM      1  N   UNL     1       5.530   3.683  17.011  0.00  0.00    +0.000 NA
ATOM      2  H   UNL     1       5.666   3.199  17.899  0.00  0.00    +0.000 HD
ENDROOT
BRANCH   1   3
ATOM      3  S   UNL     1       6.793   4.764  16.678  0.00  0.00    +0.000 S 
ATOM      4  O   UNL     1       8.023   4.224  17.210  0.00  0.00    +0.000 OA
ATOM      5  O   UNL     1       6.320   6.083  17.033  0.00  0.00    +0.000 OA
BRANCH   3   9
ATOM      6  C   UNL     1       5.464   2.747  11.952  0.00  0.00    +0.000 C 
ATOM      7  C   UNL     1       6.267   3.712  12.774  0.00  0.00    +0.000 A 
ATOM      8  C   UNL     1       6.122   3.794  14.168  0.00  0.00    +0.000 A 
ATOM      9  C   UNL     1       6.894   4.712  14.896  0.00  0.00    +0.000 A 
ATOM     10  C   UNL     1       7.833   5.526  14.247  0.00  0.00    +0.000 A 
ATOM     11  C   UNL     1       7.981   5.438  12.863  0.00  0.00    +0.000 A 
ATOM     12  C   UNL     1       7.200   4.541  12.142  0.00  0.00    +0.000 A 
ATOM     13  F   UNL     1       7.362   4.468  10.813  0.00  0.00    +0.000 F 
ENDBRANCH   3   9
ENDBRANCH   1   3
BRANCH   1  14
ATOM     14  C   UNL     1       4.176   4.225  16.832  0.00  0.00    +0.000 C 
BRANCH  14  15
ATOM     15  C   UNL     1       3.531   4.491  18.170  0.00  0.00    +0.000 A 
ATOM     16  C   UNL     1       3.474   3.506  19.086  0.00  0.00    +0.000 A 
ATOM     17  C   UNL     1       2.934   3.704  20.449  0.00  0.00    +0.000 A 
ATOM     18  O   UNL     1       2.931   2.784  21.258  0.00  0.00    +0.000 OA
ATOM     19  N   UNL     1       2.453   4.943  20.741  0.00  0.00    +0.000 N 
ATOM     20  C   UNL     1       2.470   6.010  19.837  0.00  0.00    +0.000 A 
ATOM     21  C   UNL     1       1.944   7.239  20.250  0.00  0.00    +0.000 A 
ATOM     22  C   UNL     1       1.957   8.321  19.377  0.00  0.00    +0.000 A 
ATOM     23  C   UNL     1       2.508   8.176  18.106  0.00  0.00    +0.000 A 
ATOM     24  C   UNL     1       3.037   6.945  17.696  0.00  0.00    +0.000 A 
ATOM     25  C   UNL     1       3.015   5.833  18.549  0.00  0.00    +0.000 A 
ATOM     26  H   UNL     1       2.090   5.070  21.676  0.00  0.00    +0.000 HD
ENDBRANCH  14  15
ENDBRANCH   1  14
TORSDOF 4
ENDMDL
MODEL 4
REMARK VINA RESULT:      -8.1      1.008      1.644
REMARK  Name = 
REMARK  5 active torsions:
REMARK  status: ('A' for Active; 'I' for Inactive)
REMARK    1  A    between atoms: C_1  and  C_2
REMARK    2  A    between atoms: C_4  and  S_5
REMARK    3  A    between atoms: S_5  and  N_8
REMARK    4  A    between atoms: N_8  and  C_9
REMARK    5  A    between atoms: C_9  and  C_10
REMARK                            x       y       z     vdW  Elec       q    Type
REMARK                         _______ _______ _______ _____ _____    ______ ____
ROOT
ATOM      1  N   UNL     1       3.133   4.178  17.362  0.00  0.00    +0.000 NA
ATOM      2  H   UNL     1       3.090   5.066  16.860  0.00  0.00    +0.000 HD
ENDROOT
BRANCH   1   3
ATOM      3  S   UNL     1       2.651   4.337  18.979  0.00  0.00    +0.000 S 
ATOM      4  O   UNL     1       3.765   3.997  19.835  0.00  0.00    +0.000 OA
ATOM      5  O   UNL     1       1.367   3.683  19.100  0.00  0.00    +0.000 OA
BRANCH   3   9
ATOM      6  C   UNL     1       1.084   8.620  21.692  0.00  0.00    +0.000 C 
ATOM      7  C   UNL     1       1.587   7.998  20.424  0.00  0.00    +0.000 A 
ATOM      8  C   UNL     1       1.887   6.629  20.339  0.00  0.00    +0.000 A 
ATOM      9  C   UNL     1       2.355   6.091  19.131  0.00  0.00    +0.000 A 
ATOM     10  C   UNL     1       2.495   6.902  17.997  0.00  0.00    +0.000 A 
ATOM     11  C   UNL     1       2.190   8.261  18.079  0.00  0.00    +0.000 A 
ATOM     12  C   UNL     1       1.745   8.795  19.285  0.00  0.00    +0.000 A 
ATOM     13  F   UNL     1       1.451  10.102  19.341  0.00  0.00    +0.000 F 
ENDBRANCH   3   9
ENDBRANCH   1   3
BRANCH   1  14
ATOM     14  C   UNL     1       4.385   3.438  17.150  0.00  0.00    +0.000 C 
BRANCH  14  15
ATOM     15  C   UNL     1       5.474   4.366  16.674  0.00  0.00    +0.000 A 
ATOM     16  C   UNL     1       6.058   5.208  17.548  0.00  0.00    +0.000 A 
ATOM     17  C   UNL     1       7.186   6.092  17.184  0.00  0.00    +0.000 A 
ATOM     18  O   UNL     1       7.704   6.820  18.022  0.00  0.00    +0.000 OA
ATOM     19  N   UNL     1       7.605   6.047  15.889  0.00  0.00    +0.000 N 
ATOM     20  C   UNL     1       7.041   5.205  14.925  0.00  0.00    +0.000 A 
ATOM     21  C   UNL     1       7.554   5.248  13.624  0.00  0.00    +0.000 A 
ATOM     22  C   UNL     1       7.020   4.415  12.647  0.00  0.00    +0.000 A 
ATOM     23  C   UNL     1       5.992   3.535  12.976  0.00  0.00    +0.000 A 
ATOM     24  C   UNL     1       5.482   3.492  14.281  0.00  0.00    +0.000 A 
ATOM     25  C   UNL     1       5.987   4.337  15.278  0.00  0.00    +0.000 A 
ATOM     26  H   UNL     1       8.379   6.651  15.652  0.00  0.00    +0.000 HD
ENDBRANCH  14  15
ENDBRANCH   1  14
TORSDOF 4
ENDMDL
MODEL 5
REMARK VINA RESULT:      -8.1      1.466      2.154
REMARK  Name = 
REMARK  5 active torsions:
REMARK  status: ('A' for Active; 'I' for Inactive)
REMARK    1  A    between atoms: C_1  and  C_2
REMARK    2  A    between atoms: C_4  and  S_5
REMARK    3  A    between atoms: S_5  and  N_8
REMARK    4  A    between atoms: N_8  and  C_9
REMARK    5  A    between atoms: C_9  and  C_10
REMARK                            x       y       z     vdW  Elec       q    Type
REMARK                         _______ _______ _______ _____ _____    ______ ____
ROOT
ATOM      1  N   UNL     1       3.344   3.088  19.581  0.00  0.00    +0.000 NA
ATOM      2  H   UNL     1       3.499   2.271  20.172  0.00  0.00    +0.000 HD
ENDROOT
BRANCH   1   3
ATOM      3  S   UNL     1       1.738   3.626  19.647  0.00  0.00    +0.000 S 
ATOM      4  O   UNL     1       1.205   3.345  20.961  0.00  0.00    +0.000 OA
ATOM      5  O   UNL     1       1.089   3.158  18.444  0.00  0.00    +0.000 OA
BRANCH   3   9
ATOM      6  C   UNL     1       1.292   8.573  21.513  0.00  0.00    +0.000 C 
ATOM      7  C   UNL     1       1.640   7.631  20.399  0.00  0.00    +0.000 A 
ATOM      8  C   UNL     1       1.573   6.238  20.561  0.00  0.00    +0.000 A 
ATOM      9  C   UNL     1       1.909   5.396  19.490  0.00  0.00    +0.000 A 
ATOM     10  C   UNL     1       2.279   5.933  18.249  0.00  0.00    +0.000 A 
ATOM     11  C   UNL     1       2.338   7.317  18.088  0.00  0.00    +0.000 A 
ATOM     12  C   UNL     1       2.024   8.150  19.158  0.00  0.00    +0.000 A 
ATOM     13  F   UNL     1       2.081   9.478  18.980  0.00  0.00    +0.000 F 
ENDBRANCH   3   9
ENDBRANCH   1   3
BRANCH   1  14
ATOM     14  C   UNL     1       3.907   2.957  18.229  0.00  0.00    +0.000 C 
BRANCH  14  15
ATOM     15  C   UNL     1       5.096   3.869  18.060  0.00  0.00    +0.000 A 
ATOM     16  C   UNL     1       5.707   4.372  19.150  0.00  0.00    +0.000 A 
ATOM     17  C   UNL     1       6.925   5.206  19.076  0.00  0.00    +0.000 A 
ATOM     18  O   UNL     1       7.463   5.616  20.098  0.00  0.00    +0.000 OA
ATOM     19  N   UNL     1       7.403   5.483  17.832  0.00  0.00    +0.000 N 
ATOM     20  C   UNL     1       6.815   5.004  16.656  0.00  0.00    +0.000 A 
ATOM     21  C   UNL     1       7.395   5.358  15.433  0.00  0.00    +0.000 A 
ATOM     22  C   UNL     1       6.839   4.888  14.248  0.00  0.00    +0.000 A 
ATOM     23  C   UNL     1       5.722   4.056  14.291  0.00  0.00    +0.000 A 
ATOM     24  C   UNL     1       5.146   3.702  15.518  0.00  0.00    +0.000 A 
ATOM     25  C   UNL     1       5.673   4.181  16.725  0.00  0.00    +0.000 A 
ATOM     26  H   UNL     1       8.238   6.050  17.793  0.00  0.00    +0.000 HD
ENDBRANCH  14  15
ENDBRANCH   1  14
TORSDOF 4
ENDMDL
MODEL 6
REMARK VINA RESULT:      -8.0      1.476      2.120
REMARK  Name = 
REMARK  5 active torsions:
REMARK  status: ('A' for Active; 'I' for Inactive)
REMARK    1  A    between atoms: C_1  and  C_2
REMARK    2  A    between atoms: C_4  and  S_5
REMARK    3  A    between atoms: S_5  and  N_8
REMARK    4  A    between atoms: N_8  and  C_9
REMARK    5  A    between atoms: C_9  and  C_10
REMARK                            x       y       z     vdW  Elec       q    Type
REMARK                         _______ _______ _______ _____ _____    ______ ____
ROOT
ATOM      1  N   UNL     1       4.362   4.531  19.907  0.00  0.00    +0.000 NA
ATOM      2  H   UNL     1       4.738   4.223  20.805  0.00  0.00    +0.000 HD
ENDROOT
BRANCH   1   3
ATOM      3  S   UNL     1       2.672   4.658  19.936  0.00  0.00    +0.000 S 
ATOM      4  O   UNL     1       2.211   4.465  21.293  0.00  0.00    +0.000 OA
ATOM      5  O   UNL     1       2.172   3.860  18.839  0.00  0.00    +0.000 OA
BRANCH   3   9
ATOM      6  C   UNL     1       0.803   9.522  20.939  0.00  0.00    +0.000 C 
ATOM      7  C   UNL     1       1.483   8.557  20.015  0.00  0.00    +0.000 A 
ATOM      8  C   UNL     1       1.760   7.235  20.398  0.00  0.00    +0.000 A 
ATOM      9  C   UNL     1       2.398   6.367  19.499  0.00  0.00    +0.000 A 
ATOM     10  C   UNL     1       2.732   6.798  18.209  0.00  0.00    +0.000 A 
ATOM     11  C   UNL     1       2.450   8.109  17.825  0.00  0.00    +0.000 A 
ATOM     12  C   UNL     1       1.836   8.974  18.726  0.00  0.00    +0.000 A 
ATOM     13  F   UNL     1       1.567  10.228  18.336  0.00  0.00    +0.000 F 
ENDBRANCH   3   9
ENDBRANCH   1   3
BRANCH   1  14
ATOM     14  C   UNL     1       4.918   3.811  18.753  0.00  0.00    +0.000 C 
BRANCH  14  15
ATOM     15  C   UNL     1       5.833   4.709  17.959  0.00  0.00    +0.000 A 
ATOM     16  C   UNL     1       6.546   5.658  18.595  0.00  0.00    +0.000 A 
ATOM     17  C   UNL     1       7.526   6.526  17.906  0.00  0.00    +0.000 A 
ATOM     18  O   UNL     1       8.174   7.355  18.533  0.00  0.00    +0.000 OA
ATOM     19  N   UNL     1       7.661   6.349  16.563  0.00  0.00    +0.000 N 
ATOM     20  C   UNL     1       6.947   5.391  15.836  0.00  0.00    +0.000 A 
ATOM     21  C   UNL     1       7.167   5.304  14.457  0.00  0.00    +0.000 A 
ATOM     22  C   UNL     1       6.480   4.355  13.709  0.00  0.00    +0.000 A 
ATOM     23  C   UNL     1       5.591   3.490  14.342  0.00  0.00    +0.000 A 
ATOM     24  C   UNL     1       5.374   3.577  15.724  0.00  0.00    +0.000 A 
ATOM     25  C   UNL     1       6.037   4.541  16.495  0.00  0.00    +0.000 A 
ATOM     26  H   UNL     1       8.336   6.944  16.103  0.00  0.00    +0.000 HD
ENDBRANCH  14  15
ENDBRANCH   1  14
TORSDOF 4
ENDMDL
MODEL 7
REMARK VINA RESULT:      -8.0      1.745      3.326
REMARK  Name = 
REMARK  5 active torsions:
REMARK  status: ('A' for Active; 'I' for Inactive)
REMARK    1  A    between atoms: C_1  and  C_2
REMARK    2  A    between atoms: C_4  and  S_5
REMARK    3  A    between atoms: S_5  and  N_8
REMARK    4  A    between atoms: N_8  and  C_9
REMARK    5  A    between atoms: C_9  and  C_10
REMARK                            x       y       z     vdW  Elec       q    Type
REMARK                         _______ _______ _______ _____ _____    ______ ____
ROOT
ATOM      1  N   UNL     1       2.720   3.384  17.980  0.00  0.00    +0.000 NA
ATOM      2  H   UNL     1       2.521   4.110  17.291  0.00  0.00    +0.000 HD
ENDROOT
BRANCH   1   3
ATOM      3  S   UNL     1       2.229   3.837  19.539  0.00  0.00    +0.000 S 
ATOM      4  O   UNL     1       3.265   3.473  20.479  0.00  0.00    +0.000 OA
ATOM      5  O   UNL     1       0.864   3.388  19.695  0.00  0.00    +0.000 OA
BRANCH   3   9
ATOM      6  C   UNL     1       1.172   8.633  21.547  0.00  0.00    +0.000 C 
ATOM      7  C   UNL     1       1.637   7.775  20.408  0.00  0.00    +0.000 A 
ATOM      8  C   UNL     1       1.741   6.380  20.527  0.00  0.00    +0.000 A 
ATOM      9  C   UNL     1       2.182   5.618  19.435  0.00  0.00    +0.000 A 
ATOM     10  C   UNL     1       2.486   6.234  18.213  0.00  0.00    +0.000 A 
ATOM     11  C   UNL     1       2.375   7.619  18.093  0.00  0.00    +0.000 A 
ATOM     12  C   UNL     1       1.958   8.374  19.185  0.00  0.00    +0.000 A 
ATOM     13  F   UNL     1       1.851   9.704  19.046  0.00  0.00    +0.000 F 
ENDBRANCH   3   9
ENDBRANCH   1   3
BRANCH   1  14
ATOM     14  C   UNL     1       4.080   2.834  17.886  0.00  0.00    +0.000 C 
BRANCH  14  15
ATOM     15  C   UNL     1       4.949   3.715  17.024  0.00  0.00    +0.000 A 
ATOM     16  C   UNL     1       4.825   3.664  15.684  0.00  0.00    +0.000 A 
ATOM     17  C   UNL     1       5.578   4.549  14.771  0.00  0.00    +0.000 A 
ATOM     18  O   UNL     1       5.408   4.486  13.559  0.00  0.00    +0.000 OA
ATOM     19  N   UNL     1       6.451   5.421  15.347  0.00  0.00    +0.000 N 
ATOM     20  C   UNL     1       6.639   5.524  16.729  0.00  0.00    +0.000 A 
ATOM     21  C   UNL     1       7.568   6.456  17.205  0.00  0.00    +0.000 A 
ATOM     22  C   UNL     1       7.769   6.588  18.575  0.00  0.00    +0.000 A 
ATOM     23  C   UNL     1       7.033   5.802  19.459  0.00  0.00    +0.000 A 
ATOM     24  C   UNL     1       6.102   4.871  18.979  0.00  0.00    +0.000 A 
ATOM     25  C   UNL     1       5.898   4.703  17.603  0.00  0.00    +0.000 A 
ATOM     26  H   UNL     1       6.957   6.025  14.715  0.00  0.00    +0.000 HD
ENDBRANCH  14  15
ENDBRANCH   1  14
TORSDOF 4
ENDMDL
MODEL 8
REMARK VINA RESULT:      -8.0      3.364      7.633
REMARK  Name = 
REMARK  5 active torsions:
REMARK  status: ('A' for Active; 'I' for Inactive)
REMARK    1  A    between atoms: C_1  and  C_2
REMARK    2  A    between atoms: C_4  and  S_5
REMARK    3  A    between atoms: S_5  and  N_8
REMARK    4  A    between atoms: N_8  and  C_9
REMARK    5  A    between atoms: C_9  and  C_10
REMARK                            x       y       z     vdW  Elec       q    Type
REMARK                         _______ _______ _______ _____ _____    ______ ____
ROOT
ATOM      1  N   UNL     1       2.928   5.643  20.582  0.00  0.00    +0.000 NA
ATOM      2  H   UNL     1       3.594   6.308  20.187  0.00  0.00    +0.000 HD
ENDROOT
BRANCH   1   3
ATOM      3  S   UNL     1       2.825   4.224  19.661  0.00  0.00    +0.000 S 
ATOM      4  O   UNL     1       1.645   4.291  18.829  0.00  0.00    +0.000 OA
ATOM      5  O   UNL     1       3.060   3.120  20.565  0.00  0.00    +0.000 OA
BRANCH   3   9
ATOM      6  C   UNL     1       7.772   5.822  18.600  0.00  0.00    +0.000 C 
ATOM      7  C   UNL     1       6.508   5.137  18.173  0.00  0.00    +0.000 A 
ATOM      8  C   UNL     1       5.417   4.987  19.043  0.00  0.00    +0.000 A 
ATOM      9  C   UNL     1       4.255   4.339  18.599  0.00  0.00    +0.000 A 
ATOM     10  C   UNL     1       4.160   3.868  17.283  0.00  0.00    +0.000 A 
ATOM     11  C   UNL     1       5.242   4.024  16.416  0.00  0.00    +0.000 A 
ATOM     12  C   UNL     1       6.401   4.649  16.865  0.00  0.00    +0.000 A 
ATOM     13  F   UNL     1       7.427   4.795  16.014  0.00  0.00    +0.000 F 
ENDBRANCH   3   9
ENDBRANCH   1   3
BRANCH   1  14
ATOM     14  C   UNL     1       1.639   6.245  20.954  0.00  0.00    +0.000 C 
BRANCH  14  15
ATOM     15  C   UNL     1       1.512   7.628  20.365  0.00  0.00    +0.000 A 
ATOM     16  C   UNL     1       1.992   7.871  19.130  0.00  0.00    +0.000 A 
ATOM     17  C   UNL     1       1.837   9.173  18.447  0.00  0.00    +0.000 A 
ATOM     18  O   UNL     1       2.265   9.336  17.311  0.00  0.00    +0.000 OA
ATOM     19  N   UNL     1       1.201  10.156  19.142  0.00  0.00    +0.000 N 
ATOM     20  C   UNL     1       0.685   9.979  20.430  0.00  0.00    +0.000 A 
ATOM     21  C   UNL     1       0.054  11.065  21.047  0.00  0.00    +0.000 A 
ATOM     22  C   UNL     1      -0.478  10.917  22.323  0.00  0.00    +0.000 A 
ATOM     23  C   UNL     1      -0.392   9.685  22.968  0.00  0.00    +0.000 A 
ATOM     24  C   UNL     1       0.239   8.599  22.347  0.00  0.00    +0.000 A 
ATOM     25  C   UNL     1       0.803   8.729  21.071  0.00  0.00    +0.000 A 
ATOM     26  H   UNL     1       1.096  11.040  18.665  0.00  0.00    +0.000 HD
ENDBRANCH  14  15
ENDBRANCH   1  14
TORSDOF 4
ENDMDL
MODEL 9
REMARK VINA RESULT:      -8.0      3.391      7.236
REMARK  Name = 
REMARK  5 active torsions:
REMARK  status: ('A' for Active; 'I' for Inactive)
REMARK    1  A    between atoms: C_1  and  C_2
REMARK    2  A    between atoms: C_4  and  S_5
REMARK    3  A    between atoms: S_5  and  N_8
REMARK    4  A    between atoms: N_8  and  C_9
REMARK    5  A    between atoms: C_9  and  C_10
REMARK                            x       y       z     vdW  Elec       q    Type
REMARK                         _______ _______ _______ _____ _____    ______ ____
ROOT
ATOM      1  N   UNL     1       5.576   3.841  17.047  0.00  0.00    +0.000 NA
ATOM      2  H   UNL     1       5.557   3.572  18.031  0.00  0.00    +0.000 HD
ENDROOT
BRANCH   1   3
ATOM      3  S   UNL     1       6.923   4.802  16.677  0.00  0.00    +0.000 S 
ATOM      4  O   UNL     1       8.112   4.154  17.181  0.00  0.00    +0.000 OA
ATOM      5  O   UNL     1       6.582   6.160  17.039  0.00  0.00    +0.000 OA
BRANCH   3   9
ATOM      6  C   UNL     1       5.471   2.745  12.006  0.00  0.00    +0.000 C 
ATOM      7  C   UNL     1       6.291   3.720  12.798  0.00  0.00    +0.000 A 
ATOM      8  C   UNL     1       6.186   3.811  14.195  0.00  0.00    +0.000 A 
ATOM      9  C   UNL     1       6.974   4.739  14.894  0.00  0.00    +0.000 A 
ATOM     10  C   UNL     1       7.890   5.552  14.213  0.00  0.00    +0.000 A 
ATOM     11  C   UNL     1       7.999   5.455  12.826  0.00  0.00    +0.000 A 
ATOM     12  C   UNL     1       7.202   4.549  12.133  0.00  0.00    +0.000 A 
ATOM     13  F   UNL     1       7.327   4.467  10.801  0.00  0.00    +0.000 F 
ENDBRANCH   3   9
ENDBRANCH   1   3
BRANCH   1  14
ATOM     14  C   UNL     1       4.290   4.343  16.544  0.00  0.00    +0.000 C 
BRANCH  14  15
ATOM     15  C   UNL     1       3.497   4.978  17.659  0.00  0.00    +0.000 A 
ATOM     16  C   UNL     1       3.420   6.321  17.737  0.00  0.00    +0.000 A 
ATOM     17  C   UNL     1       2.600   7.023  18.748  0.00  0.00    +0.000 A 
ATOM     18  O   UNL     1       2.538   8.247  18.760  0.00  0.00    +0.000 OA
ATOM     19  N   UNL     1       1.932   6.243  19.642  0.00  0.00    +0.000 N 
ATOM     20  C   UNL     1       1.973   4.845  19.627  0.00  0.00    +0.000 A 
ATOM     21  C   UNL     1       1.247   4.150  20.600  0.00  0.00    +0.000 A 
ATOM     22  C   UNL     1       1.260   2.759  20.605  0.00  0.00    +0.000 A 
ATOM     23  C   UNL     1       1.982   2.073  19.631  0.00  0.00    +0.000 A 
ATOM     24  C   UNL     1       2.706   2.772  18.656  0.00  0.00    +0.000 A 
ATOM     25  C   UNL     1       2.727   4.173  18.645  0.00  0.00    +0.000 A 
ATOM     26  H   UNL     1       1.371   6.732  20.325  0.00  0.00    +0.000 HD
ENDBRANCH  14  15
ENDBRANCH   1  14
TORSDOF 4
ENDMDL
