MODEL 1
REMARK VINA RESULT:      -8.6      0.000      0.000
REMARK  Name = 
REMARK  4 active torsions:
REMARK  status: ('A' for Active; 'I' for Inactive)
REMARK    1  A    between atoms: C_1  and  C_2
REMARK    2  A    between atoms: C_4  and  C_5
REMARK    3  A    between atoms: C_13  and  C_14
REMARK    4  A    between atoms: C_22  and  O_23
REMARK                            x       y       z     vdW  Elec       q    Type
REMARK                         _______ _______ _______ _____ _____    ______ ____
ROOT
ATOM      1  C   UNL     1       2.269   4.896  20.898  0.00  0.00    +0.000 C 
ATOM      2  C   UNL     1       2.215   6.168  20.122  0.00  0.00    +0.000 A 
ATOM      3  N   UNL     1       1.584   7.162  20.850  0.00  0.00    +0.000 NA
ATOM      4  C   UNL     1       1.359   8.377  20.308  0.00  0.00    +0.000 A 
ATOM      5  C   UNL     1       1.842   8.655  19.038  0.00  0.00    +0.000 A 
ATOM      6  C   UNL     1       2.500   7.654  18.305  0.00  0.00    +0.000 A 
ATOM      7  C   UNL     1       2.692   6.358  18.814  0.00  0.00    +0.000 A 
ENDROOT
BRANCH   7   8
ATOM      8  C   UNL     1       3.187   5.352  17.780  0.00  0.00    +0.000 C 
ATOM      9  O   UNL     1       2.414   4.431  17.500  0.00  0.00    +0.000 OA
ATOM     10  N   UNL     1       4.413   5.413  17.129  0.00  0.00    +0.000 N 
ATOM     11  C   UNL     1       4.875   4.460  16.072  0.00  0.00    +0.000 C 
ATOM     12  C   UNL     1       5.323   5.383  14.909  0.00  0.00    +0.000 C 
ATOM     13  C   UNL     1       5.218   6.785  15.506  0.00  0.00    +0.000 C 
ATOM     14  C   UNL     1       5.300   6.542  17.021  0.00  0.00    +0.000 C 
ATOM     15  C   UNL     1       6.702   6.056  17.492  0.00  0.00    +0.000 C 
ATOM     16  C   UNL     1       6.788   4.519  17.706  0.00  0.00    +0.000 C 
ATOM     17  C   UNL     1       6.146   3.724  16.567  0.00  0.00    +0.000 C 
BRANCH  16  18
ATOM     18  O   UNL     1       6.118   4.143  18.914  0.00  0.00    +0.000 OA
ATOM     19  H   UNL     1       6.414   4.768  19.607  0.00  0.00    +0.000 HD
ENDBRANCH  16  18
ENDBRANCH   7   8
BRANCH   4  20
ATOM     20  C   UNL     1       0.507   9.331  21.084  0.00  0.00    +0.000 A 
ATOM     21  C   UNL     1       0.200   9.116  22.444  0.00  0.00    +0.000 A 
ATOM     22  C   UNL     1      -0.603  10.018  23.173  0.00  0.00    +0.000 A 
ATOM     23  C   UNL     1      -1.129  11.145  22.557  0.00  0.00    +0.000 A 
ATOM     24  C   UNL     1      -0.866  11.375  21.217  0.00  0.00    +0.000 A 
ATOM     25  C   UNL     1      -0.062  10.480  20.485  0.00  0.00    +0.000 A 
ENDBRANCH   4  20
TORSDOF 3
ENDMDL
MODEL 2
REMARK VINA RESULT:      -8.3      0.385      1.052
REMARK  Name = 
REMARK  4 active torsions:
REMARK  status: ('A' for Active; 'I' for Inactive)
REMARK    1  A    between atoms: C_1  and  C_2
REMARK    2  A    between atoms: C_4  and  C_5
REMARK    3  A    between atoms: C_13  and  C_14
REMARK    4  A    between atoms: C_22  and  O_23
REMARK                            x       y       z     vdW  Elec       q    Type
REMARK                         _______ _______ _______ _____ _____    ______ ____
ROOT
ATOM      1  C   UNL     1       2.162   5.206  21.093  0.00  0.00    +0.000 C 
ATOM      2  C   UNL     1       2.042   6.443  20.269  0.00  0.00    +0.000 A 
ATOM      3  N   UNL     1       1.365   7.432  20.961  0.00  0.00    +0.000 NA
ATOM      4  C   UNL     1       1.078   8.613  20.373  0.00  0.00    +0.000 A 
ATOM      5  C   UNL     1       1.541   8.864  19.090  0.00  0.00    +0.000 A 
ATOM      6  C   UNL     1       2.246   7.869  18.393  0.00  0.00    +0.000 A 
ATOM      7  C   UNL     1       2.504   6.606  18.951  0.00  0.00    +0.000 A 
ENDROOT
BRANCH   7   8
ATOM      8  C   UNL     1       3.045   5.585  17.954  0.00  0.00    +0.000 C 
ATOM      9  O   UNL     1       2.275   4.674  17.633  0.00  0.00    +0.000 OA
ATOM     10  N   UNL     1       4.309   5.623  17.379  0.00  0.00    +0.000 N 
ATOM     11  C   UNL     1       4.819   4.656  16.357  0.00  0.00    +0.000 C 
ATOM     12  C   UNL     1       5.352   5.565  15.219  0.00  0.00    +0.000 C 
ATOM     13  C   UNL     1       5.234   6.972  15.801  0.00  0.00    +0.000 C 
ATOM     14  C   UNL     1       5.219   6.737  17.319  0.00  0.00    +0.000 C 
ATOM     15  C   UNL     1       6.582   6.232  17.878  0.00  0.00    +0.000 C 
ATOM     16  C   UNL     1       6.630   4.695  18.104  0.00  0.00    +0.000 C 
ATOM     17  C   UNL     1       6.045   3.904  16.932  0.00  0.00    +0.000 C 
BRANCH  16  18
ATOM     18  O   UNL     1       5.882   4.337  19.271  0.00  0.00    +0.000 OA
ATOM     19  H   UNL     1       6.442   4.554  20.043  0.00  0.00    +0.000 HD
ENDBRANCH  16  18
ENDBRANCH   7   8
BRANCH   4  20
ATOM     20  C   UNL     1       0.182   9.553  21.116  0.00  0.00    +0.000 A 
ATOM     21  C   UNL     1      -0.372  10.694  20.499  0.00  0.00    +0.000 A 
ATOM     22  C   UNL     1      -1.219  11.577  21.203  0.00  0.00    +0.000 A 
ATOM     23  C   UNL     1      -1.516  11.349  22.539  0.00  0.00    +0.000 A 
ATOM     24  C   UNL     1      -0.971  10.250  23.181  0.00  0.00    +0.000 A 
ATOM     25  C   UNL     1      -0.129   9.363  22.483  0.00  0.00    +0.000 A 
ENDBRANCH   4  20
TORSDOF 3
ENDMDL
MODEL 3
REMARK VINA RESULT:      -8.3      2.514      4.104
REMARK  Name = 
REMARK  4 active torsions:
REMARK  status: ('A' for Active; 'I' for Inactive)
REMARK    1  A    between atoms: C_1  and  C_2
REMARK    2  A    between atoms: C_4  and  C_5
REMARK    3  A    between atoms: C_13  and  C_14
REMARK    4  A    between atoms: C_22  and  O_23
REMARK                            x       y       z     vdW  Elec       q    Type
REMARK                         _______ _______ _______ _____ _____    ______ ____
ROOT
ATOM      1  C   UNL     1       2.821   8.016  17.539  0.00  0.00    +0.000 C 
ATOM      2  C   UNL     1       2.167   7.928  18.876  0.00  0.00    +0.000 A 
ATOM      3  N   UNL     1       1.490   9.099  19.170  0.00  0.00    +0.000 NA
ATOM      4  C   UNL     1       0.886   9.265  20.366  0.00  0.00    +0.000 A 
ATOM      5  C   UNL     1       0.876   8.217  21.275  0.00  0.00    +0.000 A 
ATOM      6  C   UNL     1       1.547   7.020  20.970  0.00  0.00    +0.000 A 
ATOM      7  C   UNL     1       2.240   6.839  19.761  0.00  0.00    +0.000 A 
ENDROOT
BRANCH   7   8
ATOM      8  C   UNL     1       3.112   5.587  19.728  0.00  0.00    +0.000 C 
ATOM      9  O   UNL     1       4.324   5.769  19.576  0.00  0.00    +0.000 OA
ATOM     10  N   UNL     1       2.648   4.287  19.876  0.00  0.00    +0.000 N 
ATOM     11  C   UNL     1       3.508   3.063  19.902  0.00  0.00    +0.000 C 
ATOM     12  C   UNL     1       3.062   2.322  21.190  0.00  0.00    +0.000 C 
ATOM     13  C   UNL     1       1.863   3.136  21.673  0.00  0.00    +0.000 C 
ATOM     14  C   UNL     1       1.379   3.857  20.405  0.00  0.00    +0.000 C 
ATOM     15  C   UNL     1       0.757   2.896  19.350  0.00  0.00    +0.000 C 
ATOM     16  C   UNL     1       1.735   2.514  18.203  0.00  0.00    +0.000 C 
ATOM     17  C   UNL     1       3.131   2.147  18.711  0.00  0.00    +0.000 C 
BRANCH  16  18
ATOM     18  O   UNL     1       1.891   3.608  17.293  0.00  0.00    +0.000 OA
ATOM     19  H   UNL     1       1.634   3.278  16.409  0.00  0.00    +0.000 HD
ENDBRANCH  16  18
ENDBRANCH   7   8
BRANCH   4  20
ATOM     20  C   UNL     1       0.342  10.623  20.681  0.00  0.00    +0.000 A 
ATOM     21  C   UNL     1       0.379  11.674  19.741  0.00  0.00    +0.000 A 
ATOM     22  C   UNL     1      -0.137  12.952  20.040  0.00  0.00    +0.000 A 
ATOM     23  C   UNL     1      -0.686  13.212  21.288  0.00  0.00    +0.000 A 
ATOM     24  C   UNL     1      -0.718  12.210  22.242  0.00  0.00    +0.000 A 
ATOM     25  C   UNL     1      -0.208  10.931  21.947  0.00  0.00    +0.000 A 
ENDBRANCH   4  20
TORSDOF 3
ENDMDL
MODEL 4
REMARK VINA RESULT:      -8.3      2.502      4.057
REMARK  Name = 
REMARK  4 active torsions:
REMARK  status: ('A' for Active; 'I' for Inactive)
REMARK    1  A    between atoms: C_1  and  C_2
REMARK    2  A    between atoms: C_4  and  C_5
REMARK    3  A    between atoms: C_13  and  C_14
REMARK    4  A    between atoms: C_22  and  O_23
REMARK                            x       y       z     vdW  Elec       q    Type
REMARK                         _______ _______ _______ _____ _____    ______ ____
ROOT
ATOM      1  C   UNL     1       2.991   7.776  17.437  0.00  0.00    +0.000 C 
ATOM      2  C   UNL     1       2.307   7.779  18.762  0.00  0.00    +0.000 A 
ATOM      3  N   UNL     1       1.664   8.985  18.982  0.00  0.00    +0.000 NA
ATOM      4  C   UNL     1       1.042   9.232  20.154  0.00  0.00    +0.000 A 
ATOM      5  C   UNL     1       0.978   8.233  21.114  0.00  0.00    +0.000 A 
ATOM      6  C   UNL     1       1.615   7.001  20.886  0.00  0.00    +0.000 A 
ATOM      7  C   UNL     1       2.326   6.736  19.704  0.00  0.00    +0.000 A 
ENDROOT
BRANCH   7   8
ATOM      8  C   UNL     1       3.157   5.457  19.754  0.00  0.00    +0.000 C 
ATOM      9  O   UNL     1       4.381   5.596  19.670  0.00  0.00    +0.000 OA
ATOM     10  N   UNL     1       2.641   4.176  19.905  0.00  0.00    +0.000 N 
ATOM     11  C   UNL     1       3.458   2.926  20.014  0.00  0.00    +0.000 C 
ATOM     12  C   UNL     1       2.912   2.234  21.290  0.00  0.00    +0.000 C 
ATOM     13  C   UNL     1       1.715   3.099  21.680  0.00  0.00    +0.000 C 
ATOM     14  C   UNL     1       1.330   3.800  20.368  0.00  0.00    +0.000 C 
ATOM     15  C   UNL     1       0.740   2.832  19.302  0.00  0.00    +0.000 C 
ATOM     16  C   UNL     1       1.771   2.388  18.226  0.00  0.00    +0.000 C 
ATOM     17  C   UNL     1       3.121   1.991  18.826  0.00  0.00    +0.000 C 
BRANCH  16  18
ATOM     18  O   UNL     1       2.016   3.452  17.300  0.00  0.00    +0.000 OA
ATOM     19  H   UNL     1       1.410   4.181  17.539  0.00  0.00    +0.000 HD
ENDBRANCH  16  18
ENDBRANCH   7   8
BRANCH   4  20
ATOM     20  C   UNL     1       0.536  10.621  20.386  0.00  0.00    +0.000 A 
ATOM     21  C   UNL     1      -0.110  10.985  21.586  0.00  0.00    +0.000 A 
ATOM     22  C   UNL     1      -0.583  12.297  21.803  0.00  0.00    +0.000 A 
ATOM     23  C   UNL     1      -0.437  13.266  20.821  0.00  0.00    +0.000 A 
ATOM     24  C   UNL     1       0.172  12.937  19.622  0.00  0.00    +0.000 A 
ATOM     25  C   UNL     1       0.651  11.631  19.402  0.00  0.00    +0.000 A 
ENDBRANCH   4  20
TORSDOF 3
ENDMDL
MODEL 5
REMARK VINA RESULT:      -8.2      2.543      4.317
REMARK  Name = 
REMARK  4 active torsions:
REMARK  status: ('A' for Active; 'I' for Inactive)
REMARK    1  A    between atoms: C_1  and  C_2
REMARK    2  A    between atoms: C_4  and  C_5
REMARK    3  A    between atoms: C_13  and  C_14
REMARK    4  A    between atoms: C_22  and  O_23
REMARK                            x       y       z     vdW  Elec       q    Type
REMARK                         _______ _______ _______ _____ _____    ______ ____
ROOT
ATOM      1  C   UNL     1       3.721   7.264  16.816  0.00  0.00    +0.000 C 
ATOM      2  C   UNL     1       2.880   7.584  18.005  0.00  0.00    +0.000 A 
ATOM      3  N   UNL     1       2.314   8.841  17.884  0.00  0.00    +0.000 NA
ATOM      4  C   UNL     1       1.573   9.363  18.884  0.00  0.00    +0.000 A 
ATOM      5  C   UNL     1       1.310   8.594  20.009  0.00  0.00    +0.000 A 
ATOM      6  C   UNL     1       1.869   7.310  20.125  0.00  0.00    +0.000 A 
ATOM      7  C   UNL     1       2.698   6.764  19.131  0.00  0.00    +0.000 A 
ENDROOT
BRANCH   7   8
ATOM      8  C   UNL     1       3.410   5.482  19.554  0.00  0.00    +0.000 C 
ATOM      9  O   UNL     1       4.609   5.588  19.829  0.00  0.00    +0.000 OA
ATOM     10  N   UNL     1       2.809   4.235  19.670  0.00  0.00    +0.000 N 
ATOM     11  C   UNL     1       3.491   2.990  20.141  0.00  0.00    +0.000 C 
ATOM     12  C   UNL     1       2.557   2.452  21.256  0.00  0.00    +0.000 C 
ATOM     13  C   UNL     1       1.343   3.376  21.181  0.00  0.00    +0.000 C 
ATOM     14  C   UNL     1       1.401   3.938  19.752  0.00  0.00    +0.000 C 
ATOM     15  C   UNL     1       1.106   2.870  18.658  0.00  0.00    +0.000 C 
ATOM     16  C   UNL     1       2.386   2.292  17.991  0.00  0.00    +0.000 C 
ATOM     17  C   UNL     1       3.475   1.937  19.004  0.00  0.00    +0.000 C 
BRANCH  16  18
ATOM     18  O   UNL     1       2.948   3.244  17.081  0.00  0.00    +0.000 OA
ATOM     19  H   UNL     1       2.208   3.601  16.551  0.00  0.00    +0.000 HD
ENDBRANCH  16  18
ENDBRANCH   7   8
BRANCH   4  20
ATOM     20  C   UNL     1       1.156  10.794  18.758  0.00  0.00    +0.000 A 
ATOM     21  C   UNL     1       2.085  11.816  18.470  0.00  0.00    +0.000 A 
ATOM     22  C   UNL     1       1.688  13.165  18.350  0.00  0.00    +0.000 A 
ATOM     23  C   UNL     1       0.359  13.523  18.530  0.00  0.00    +0.000 A 
ATOM     24  C   UNL     1      -0.575  12.549  18.836  0.00  0.00    +0.000 A 
ATOM     25  C   UNL     1      -0.185  11.200  18.952  0.00  0.00    +0.000 A 
ENDBRANCH   4  20
TORSDOF 3
ENDMDL
MODEL 6
REMARK VINA RESULT:      -7.9      1.182      1.375
REMARK  Name = 
REMARK  4 active torsions:
REMARK  status: ('A' for Active; 'I' for Inactive)
REMARK    1  A    between atoms: C_1  and  C_2
REMARK    2  A    between atoms: C_4  and  C_5
REMARK    3  A    between atoms: C_13  and  C_14
REMARK    4  A    between atoms: C_22  and  O_23
REMARK                            x       y       z     vdW  Elec       q    Type
REMARK                         _______ _______ _______ _____ _____    ______ ____
ROOT
ATOM      1  C   UNL     1       1.989   6.095  20.831  0.00  0.00    +0.000 C 
ATOM      2  C   UNL     1       2.064   7.133  19.764  0.00  0.00    +0.000 A 
ATOM      3  N   UNL     1       1.363   8.269  20.132  0.00  0.00    +0.000 NA
ATOM      4  C   UNL     1       1.237   9.308  19.279  0.00  0.00    +0.000 A 
ATOM      5  C   UNL     1       1.888   9.267  18.056  0.00  0.00    +0.000 A 
ATOM      6  C   UNL     1       2.617   8.123  17.688  0.00  0.00    +0.000 A 
ATOM      7  C   UNL     1       2.713   6.998  18.524  0.00  0.00    +0.000 A 
ENDROOT
BRANCH   7   8
ATOM      8  C   UNL     1       3.318   5.772  17.848  0.00  0.00    +0.000 C 
ATOM      9  O   UNL     1       2.617   4.756  17.829  0.00  0.00    +0.000 OA
ATOM     10  N   UNL     1       4.569   5.728  17.246  0.00  0.00    +0.000 N 
ATOM     11  C   UNL     1       5.140   4.545  16.530  0.00  0.00    +0.000 C 
ATOM     12  C   UNL     1       5.590   5.118  15.161  0.00  0.00    +0.000 C 
ATOM     13  C   UNL     1       5.371   6.622  15.315  0.00  0.00    +0.000 C 
ATOM     14  C   UNL     1       5.391   6.838  16.836  0.00  0.00    +0.000 C 
ATOM     15  C   UNL     1       6.794   6.613  17.472  0.00  0.00    +0.000 C 
ATOM     16  C   UNL     1       6.962   5.215  18.131  0.00  0.00    +0.000 C 
ATOM     17  C   UNL     1       6.426   4.079  17.258  0.00  0.00    +0.000 C 
BRANCH  16  18
ATOM     18  O   UNL     1       6.257   5.161  19.375  0.00  0.00    +0.000 OA
ATOM     19  H   UNL     1       5.391   4.744  19.192  0.00  0.00    +0.000 HD
ENDBRANCH  16  18
ENDBRANCH   7   8
BRANCH   4  20
ATOM     20  C   UNL     1       0.310  10.414  19.674  0.00  0.00    +0.000 A 
ATOM     21  C   UNL     1       0.451  11.100  20.899  0.00  0.00    +0.000 A 
ATOM     22  C   UNL     1      -0.424  12.144  21.267  0.00  0.00    +0.000 A 
ATOM     23  C   UNL     1      -1.467  12.513  20.429  0.00  0.00    +0.000 A 
ATOM     24  C   UNL     1      -1.648  11.846  19.230  0.00  0.00    +0.000 A 
ATOM     25  C   UNL     1      -0.774  10.806  18.855  0.00  0.00    +0.000 A 
ENDBRANCH   4  20
TORSDOF 3
ENDMDL
MODEL 7
REMARK VINA RESULT:      -7.8      2.788      4.185
REMARK  Name = 
REMARK  4 active torsions:
REMARK  status: ('A' for Active; 'I' for Inactive)
REMARK    1  A    between atoms: C_1  and  C_2
REMARK    2  A    between atoms: C_4  and  C_5
REMARK    3  A    between atoms: C_13  and  C_14
REMARK    4  A    between atoms: C_22  and  O_23
REMARK                            x       y       z     vdW  Elec       q    Type
REMARK                         _______ _______ _______ _____ _____    ______ ____
ROOT
ATOM      1  C   UNL     1       1.755   7.284  21.667  0.00  0.00    +0.000 C 
ATOM      2  C   UNL     1       1.908   7.627  20.224  0.00  0.00    +0.000 A 
ATOM      3  N   UNL     1       1.117   8.712  19.889  0.00  0.00    +0.000 NA
ATOM      4  C   UNL     1       1.046   9.146  18.612  0.00  0.00    +0.000 A 
ATOM      5  C   UNL     1       1.839   8.547  17.645  0.00  0.00    +0.000 A 
ATOM      6  C   UNL     1       2.657   7.457  17.987  0.00  0.00    +0.000 A 
ATOM      7  C   UNL     1       2.704   6.939  19.292  0.00  0.00    +0.000 A 
ENDROOT
BRANCH   7   8
ATOM      8  C   UNL     1       3.442   5.608  19.405  0.00  0.00    +0.000 C 
ATOM      9  O   UNL     1       4.669   5.651  19.277  0.00  0.00    +0.000 OA
ATOM     10  N   UNL     1       2.841   4.381  19.657  0.00  0.00    +0.000 N 
ATOM     11  C   UNL     1       3.568   3.084  19.826  0.00  0.00    +0.000 C 
ATOM     12  C   UNL     1       3.016   2.519  21.161  0.00  0.00    +0.000 C 
ATOM     13  C   UNL     1       1.898   3.493  21.525  0.00  0.00    +0.000 C 
ATOM     14  C   UNL     1       1.522   4.135  20.180  0.00  0.00    +0.000 C 
ATOM     15  C   UNL     1       0.829   3.145  19.198  0.00  0.00    +0.000 C 
ATOM     16  C   UNL     1       1.789   2.558  18.126  0.00  0.00    +0.000 C 
ATOM     17  C   UNL     1       3.126   2.101  18.713  0.00  0.00    +0.000 C 
BRANCH  16  18
ATOM     18  O   UNL     1       2.080   3.538  17.124  0.00  0.00    +0.000 OA
ATOM     19  H   UNL     1       2.573   3.080  16.415  0.00  0.00    +0.000 HD
ENDBRANCH  16  18
ENDBRANCH   7   8
BRANCH   4  20
ATOM     20  C   UNL     1       0.029  10.197  18.298  0.00  0.00    +0.000 A 
ATOM     21  C   UNL     1       0.188  11.534  18.720  0.00  0.00    +0.000 A 
ATOM     22  C   UNL     1      -0.773  12.523  18.420  0.00  0.00    +0.000 A 
ATOM     23  C   UNL     1      -1.918  12.196  17.708  0.00  0.00    +0.000 A 
ATOM     24  C   UNL     1      -2.117  10.888  17.298  0.00  0.00    +0.000 A 
ATOM     25  C   UNL     1      -1.159   9.898  17.591  0.00  0.00    +0.000 A 
ENDBRANCH   4  20
TORSDOF 3
ENDMDL
MODEL 8
REMARK VINA RESULT:      -7.8      3.262      8.187
REMARK  Name = 
REMARK  4 active torsions:
REMARK  status: ('A' for Active; 'I' for Inactive)
REMARK    1  A    between atoms: C_1  and  C_2
REMARK    2  A    between atoms: C_4  and  C_5
REMARK    3  A    between atoms: C_13  and  C_14
REMARK    4  A    between atoms: C_22  and  O_23
REMARK                            x       y       z     vdW  Elec       q    Type
REMARK                         _______ _______ _______ _____ _____    ______ ____
ROOT
ATOM      1  C   UNL     1       7.144   5.415  18.768  0.00  0.00    +0.000 C 
ATOM      2  C   UNL     1       6.382   4.548  17.824  0.00  0.00    +0.000 A 
ATOM      3  N   UNL     1       6.872   4.674  16.536  0.00  0.00    +0.000 NA
ATOM      4  C   UNL     1       6.279   4.032  15.507  0.00  0.00    +0.000 A 
ATOM      5  C   UNL     1       5.220   3.174  15.760  0.00  0.00    +0.000 A 
ATOM      6  C   UNL     1       4.733   3.030  17.070  0.00  0.00    +0.000 A 
ATOM      7  C   UNL     1       5.285   3.734  18.154  0.00  0.00    +0.000 A 
ENDROOT
BRANCH   7   8
ATOM      8  C   UNL     1       4.461   3.645  19.435  0.00  0.00    +0.000 C 
ATOM      9  O   UNL     1       5.054   3.239  20.439  0.00  0.00    +0.000 OA
ATOM     10  N   UNL     1       3.124   4.003  19.551  0.00  0.00    +0.000 N 
ATOM     11  C   UNL     1       2.331   3.972  20.820  0.00  0.00    +0.000 C 
ATOM     12  C   UNL     1       1.698   5.386  20.897  0.00  0.00    +0.000 C 
ATOM     13  C   UNL     1       2.074   6.019  19.559  0.00  0.00    +0.000 C 
ATOM     14  C   UNL     1       2.345   4.811  18.649  0.00  0.00    +0.000 C 
ATOM     15  C   UNL     1       1.063   3.995  18.311  0.00  0.00    +0.000 C 
ATOM     16  C   UNL     1       0.891   2.718  19.181  0.00  0.00    +0.000 C 
ATOM     17  C   UNL     1       1.159   2.971  20.666  0.00  0.00    +0.000 C 
BRANCH  16  18
ATOM     18  O   UNL     1       1.800   1.697  18.755  0.00  0.00    +0.000 OA
ATOM     19  H   UNL     1       2.259   1.375  19.556  0.00  0.00    +0.000 HD
ENDBRANCH  16  18
ENDBRANCH   7   8
BRANCH   4  20
ATOM     20  C   UNL     1       6.747   4.367  14.125  0.00  0.00    +0.000 A 
ATOM     21  C   UNL     1       6.319   3.634  12.999  0.00  0.00    +0.000 A 
ATOM     22  C   UNL     1       6.761   3.954  11.697  0.00  0.00    +0.000 A 
ATOM     23  C   UNL     1       7.650   5.000  11.496  0.00  0.00    +0.000 A 
ATOM     24  C   UNL     1       8.108   5.726  12.582  0.00  0.00    +0.000 A 
ATOM     25  C   UNL     1       7.667   5.414  13.883  0.00  0.00    +0.000 A 
ENDBRANCH   4  20
TORSDOF 3
ENDMDL
MODEL 9
REMARK VINA RESULT:      -7.8      1.523      1.865
REMARK  Name = 
REMARK  4 active torsions:
REMARK  status: ('A' for Active; 'I' for Inactive)
REMARK    1  A    between atoms: C_1  and  C_2
REMARK    2  A    between atoms: C_4  and  C_5
REMARK    3  A    between atoms: C_13  and  C_14
REMARK    4  A    between atoms: C_22  and  O_23
REMARK                            x       y       z     vdW  Elec       q    Type
REMARK                         _______ _______ _______ _____ _____    ______ ____
ROOT
ATOM      1  C   UNL     1       1.906   6.548  20.950  0.00  0.00    +0.000 C 
ATOM      2  C   UNL     1       1.965   7.477  19.785  0.00  0.00    +0.000 A 
ATOM      3  N   UNL     1       1.257   8.637  20.043  0.00  0.00    +0.000 NA
ATOM      4  C   UNL     1       1.117   9.586  19.093  0.00  0.00    +0.000 A 
ATOM      5  C   UNL     1       1.760   9.429  17.875  0.00  0.00    +0.000 A 
ATOM      6  C   UNL     1       2.495   8.260  17.617  0.00  0.00    +0.000 A 
ATOM      7  C   UNL     1       2.607   7.224  18.560  0.00  0.00    +0.000 A 
ENDROOT
BRANCH   7   8
ATOM      8  C   UNL     1       3.219   5.942  18.003  0.00  0.00    +0.000 C 
ATOM      9  O   UNL     1       2.516   4.929  18.068  0.00  0.00    +0.000 OA
ATOM     10  N   UNL     1       4.476   5.845  17.422  0.00  0.00    +0.000 N 
ATOM     11  C   UNL     1       5.054   4.601  16.822  0.00  0.00    +0.000 C 
ATOM     12  C   UNL     1       5.520   5.049  15.412  0.00  0.00    +0.000 C 
ATOM     13  C   UNL     1       5.301   6.561  15.428  0.00  0.00    +0.000 C 
ATOM     14  C   UNL     1       5.304   6.913  16.924  0.00  0.00    +0.000 C 
ATOM     15  C   UNL     1       6.700   6.746  17.593  0.00  0.00    +0.000 C 
ATOM     16  C   UNL     1       6.858   5.413  18.377  0.00  0.00    +0.000 C 
ATOM     17  C   UNL     1       6.331   4.203  17.604  0.00  0.00    +0.000 C 
BRANCH  16  18
ATOM     18  O   UNL     1       6.139   5.471  19.613  0.00  0.00    +0.000 OA
ATOM     19  H   UNL     1       5.503   6.211  19.536  0.00  0.00    +0.000 HD
ENDBRANCH  16  18
ENDBRANCH   7   8
BRANCH   4  20
ATOM     20  C   UNL     1       0.182  10.718  19.384  0.00  0.00    +0.000 A 
ATOM     21  C   UNL     1      -1.028  10.882  18.677  0.00  0.00    +0.000 A 
ATOM     22  C   UNL     1      -1.907  11.950  18.955  0.00  0.00    +0.000 A 
ATOM     23  C   UNL     1      -1.590  12.885  19.931  0.00  0.00    +0.000 A 
ATOM     24  C   UNL     1      -0.399  12.766  20.628  0.00  0.00    +0.000 A 
ATOM     25  C   UNL     1       0.480  11.700  20.358  0.00  0.00    +0.000 A 
ENDBRANCH   4  20
TORSDOF 3
ENDMDL
