MODEL 1
REMARK VINA RESULT:      -8.2      0.000      0.000
REMARK  Name = 
REMARK  4 active torsions:
REMARK  status: ('A' for Active; 'I' for Inactive)
REMARK    1  A    between atoms: C_2  and  C_16
REMARK    2  A    between atoms: N_3  and  C_4
REMARK    3  A    between atoms: C_4  and  C_5
REMARK    4  A    between atoms: C_5  and  C_6
REMARK                            x       y       z     vdW  Elec       q    Type
REMARK                         _______ _______ _______ _____ _____    ______ ____
ROOT
ATOM      1  O   UNL     1       2.526   5.059  21.375  0.00  0.00    +0.000 OA
ATOM      2  C   UNL     1       2.288   5.461  20.239  0.00  0.00    +0.000 C 
ATOM      3  N   UNL     1       2.333   4.645  19.139  0.00  0.00    +0.000 N 
ATOM      4  H   UNL     1       2.088   5.011  18.226  0.00  0.00    +0.000 HD
ENDROOT
BRANCH   2   5
ATOM      5  C   UNL     1       1.901   6.880  19.962  0.00  0.00    +0.000 A 
ATOM      6  C   UNL     1       2.224   7.358  18.751  0.00  0.00    +0.000 A 
ATOM      7  C   UNL     1       1.897   8.748  18.417  0.00  0.00    +0.000 A 
ATOM      8  O   UNL     1       2.160   9.211  17.316  0.00  0.00    +0.000 OA
ATOM      9  C   UNL     1       1.264   9.544  19.475  0.00  0.00    +0.000 A 
ATOM     10  C   UNL     1       0.965  10.894  19.263  0.00  0.00    +0.000 A 
ATOM     11  C   UNL     1       0.385  11.638  20.287  0.00  0.00    +0.000 A 
ATOM     12  C   UNL     1       0.103  11.032  21.516  0.00  0.00    +0.000 A 
ATOM     13  C   UNL     1       0.396   9.680  21.720  0.00  0.00    +0.000 A 
ATOM     14  C   UNL     1       0.980   8.933  20.697  0.00  0.00    +0.000 A 
ATOM     15  O   UNL     1       1.258   7.610  20.952  0.00  0.00    +0.000 OA
ENDBRANCH   2   5
BRANCH   3  16
ATOM     16  C   UNL     1       2.703   3.242  19.247  0.00  0.00    +0.000 C 
BRANCH  16  17
ATOM     17  C   UNL     1       4.211   2.997  19.138  0.00  0.00    +0.000 C 
BRANCH  17  18
ATOM     18  C   UNL     1       4.813   3.770  18.012  0.00  0.00    +0.000 A 
ATOM     19  N   UNL     1       4.520   3.597  16.741  0.00  0.00    +0.000 NA
ATOM     20  N   UNL     1       5.257   4.482  16.005  0.00  0.00    +0.000 NA
ATOM     21  C   UNL     1       5.991   5.200  16.831  0.00  0.00    +0.000 A 
ATOM     22  N   UNL     1       5.750   4.774  18.117  0.00  0.00    +0.000 N 
ATOM     23  C   UNL     1       6.344   5.289  19.335  0.00  0.00    +0.000 C 
ATOM     24  C   UNL     1       7.820   5.648  19.208  0.00  0.00    +0.000 C 
ATOM     25  C   UNL     1       8.078   7.009  18.561  0.00  0.00    +0.000 C 
ATOM     26  C   UNL     1       7.138   7.384  17.415  0.00  0.00    +0.000 C 
ATOM     27  C   UNL     1       6.946   6.262  16.403  0.00  0.00    +0.000 C 
ENDBRANCH  17  18
ENDBRANCH  16  17
ENDBRANCH   3  16
TORSDOF 4
ENDMDL
MODEL 2
REMARK VINA RESULT:      -8.0      2.996      5.349
REMARK  Name = 
REMARK  4 active torsions:
REMARK  status: ('A' for Active; 'I' for Inactive)
REMARK    1  A    between atoms: C_2  and  C_16
REMARK    2  A    between atoms: N_3  and  C_4
REMARK    3  A    between atoms: C_4  and  C_5
REMARK    4  A    between atoms: C_5  and  C_6
REMARK                            x       y       z     vdW  Elec       q    Type
REMARK                         _______ _______ _______ _____ _____    ______ ____
ROOT
ATOM      1  O   UNL     1      -0.380   9.819  17.619  0.00  0.00    +0.000 OA
ATOM      2  C   UNL     1       0.254   9.857  18.669  0.00  0.00    +0.000 C 
ATOM      3  N   UNL     1       1.518   9.341  18.792  0.00  0.00    +0.000 N 
ATOM      4  H   UNL     1       2.019   9.432  19.668  0.00  0.00    +0.000 HD
ENDROOT
BRANCH   2   5
ATOM      5  C   UNL     1      -0.294  10.496  19.907  0.00  0.00    +0.000 A 
ATOM      6  C   UNL     1       0.126   9.986  21.074  0.00  0.00    +0.000 A 
ATOM      7  C   UNL     1      -0.387  10.547  22.329  0.00  0.00    +0.000 A 
ATOM      8  O   UNL     1      -0.012  10.119  23.411  0.00  0.00    +0.000 OA
ATOM      9  C   UNL     1      -1.378  11.623  22.208  0.00  0.00    +0.000 A 
ATOM     10  C   UNL     1      -1.961  12.180  23.351  0.00  0.00    +0.000 A 
ATOM     11  C   UNL     1      -2.916  13.184  23.214  0.00  0.00    +0.000 A 
ATOM     12  C   UNL     1      -3.283  13.629  21.940  0.00  0.00    +0.000 A 
ATOM     13  C   UNL     1      -2.692  13.074  20.801  0.00  0.00    +0.000 A 
ATOM     14  C   UNL     1      -1.737  12.066  20.934  0.00  0.00    +0.000 A 
ATOM     15  O   UNL     1      -1.194  11.546  19.782  0.00  0.00    +0.000 OA
ENDBRANCH   2   5
BRANCH   3  16
ATOM     16  C   UNL     1       2.180   8.679  17.679  0.00  0.00    +0.000 C 
BRANCH  16  17
ATOM     17  C   UNL     1       3.177   7.600  18.114  0.00  0.00    +0.000 C 
BRANCH  17  18
ATOM     18  C   UNL     1       2.550   6.615  19.044  0.00  0.00    +0.000 A 
ATOM     19  N   UNL     1       2.085   6.904  20.241  0.00  0.00    +0.000 NA
ATOM     20  N   UNL     1       1.582   5.761  20.794  0.00  0.00    +0.000 NA
ATOM     21  C   UNL     1       1.733   4.778  19.929  0.00  0.00    +0.000 A 
ATOM     22  N   UNL     1       2.355   5.274  18.806  0.00  0.00    +0.000 N 
ATOM     23  C   UNL     1       2.713   4.540  17.608  0.00  0.00    +0.000 C 
ATOM     24  C   UNL     1       3.227   3.129  17.870  0.00  0.00    +0.000 C 
ATOM     25  C   UNL     1       2.126   2.098  18.118  0.00  0.00    +0.000 C 
ATOM     26  C   UNL     1       0.927   2.595  18.925  0.00  0.00    +0.000 C 
ATOM     27  C   UNL     1       1.322   3.367  20.177  0.00  0.00    +0.000 C 
ENDBRANCH  17  18
ENDBRANCH  16  17
ENDBRANCH   3  16
TORSDOF 4
ENDMDL
MODEL 3
REMARK VINA RESULT:      -7.9      4.190      6.969
REMARK  Name = 
REMARK  4 active torsions:
REMARK  status: ('A' for Active; 'I' for Inactive)
REMARK    1  A    between atoms: C_2  and  C_16
REMARK    2  A    between atoms: N_3  and  C_4
REMARK    3  A    between atoms: C_4  and  C_5
REMARK    4  A    between atoms: C_5  and  C_6
REMARK                            x       y       z     vdW  Elec       q    Type
REMARK                         _______ _______ _______ _____ _____    ______ ____
ROOT
ATOM      1  O   UNL     1       8.549   7.184  18.987  0.00  0.00    +0.000 OA
ATOM      2  C   UNL     1       8.159   8.024  18.180  0.00  0.00    +0.000 C 
ATOM      3  N   UNL     1       7.380   7.708  17.099  0.00  0.00    +0.000 N 
ATOM      4  H   UNL     1       7.047   8.440  16.482  0.00  0.00    +0.000 HD
ENDROOT
BRANCH   2   5
ATOM      5  C   UNL     1       8.484   9.478  18.326  0.00  0.00    +0.000 A 
ATOM      6  C   UNL     1       7.838  10.316  17.501  0.00  0.00    +0.000 A 
ATOM      7  C   UNL     1       8.123  11.753  17.570  0.00  0.00    +0.000 A 
ATOM      8  O   UNL     1       7.540  12.547  16.847  0.00  0.00    +0.000 OA
ATOM      9  C   UNL     1       9.150  12.171  18.532  0.00  0.00    +0.000 A 
ATOM     10  C   UNL     1       9.524  13.516  18.629  0.00  0.00    +0.000 A 
ATOM     11  C   UNL     1      10.516  13.889  19.531  0.00  0.00    +0.000 A 
ATOM     12  C   UNL     1      11.128  12.922  20.334  0.00  0.00    +0.000 A 
ATOM     13  C   UNL     1      10.745  11.580  20.240  0.00  0.00    +0.000 A 
ATOM     14  C   UNL     1       9.753  11.202  19.334  0.00  0.00    +0.000 A 
ATOM     15  O   UNL     1       9.421   9.869  19.273  0.00  0.00    +0.000 OA
ENDBRANCH   2   5
BRANCH   3  16
ATOM     16  C   UNL     1       6.990   6.335  16.818  0.00  0.00    +0.000 C 
BRANCH  16  17
ATOM     17  C   UNL     1       5.652   6.217  16.081  0.00  0.00    +0.000 C 
BRANCH  17  18
ATOM     18  C   UNL     1       4.502   6.177  17.031  0.00  0.00    +0.000 A 
ATOM     19  N   UNL     1       4.006   7.226  17.654  0.00  0.00    +0.000 NA
ATOM     20  N   UNL     1       2.961   6.810  18.430  0.00  0.00    +0.000 NA
ATOM     21  C   UNL     1       2.817   5.509  18.273  0.00  0.00    +0.000 A 
ATOM     22  N   UNL     1       3.783   5.063  17.401  0.00  0.00    +0.000 N 
ATOM     23  C   UNL     1       3.990   3.702  16.946  0.00  0.00    +0.000 C 
ATOM     24  C   UNL     1       3.776   2.644  18.022  0.00  0.00    +0.000 C 
ATOM     25  C   UNL     1       2.310   2.291  18.269  0.00  0.00    +0.000 C 
ATOM     26  C   UNL     1       1.328   3.460  18.195  0.00  0.00    +0.000 C 
ATOM     27  C   UNL     1       1.792   4.684  18.973  0.00  0.00    +0.000 C 
ENDBRANCH  17  18
ENDBRANCH  16  17
ENDBRANCH   3  16
TORSDOF 4
ENDMDL
MODEL 4
REMARK VINA RESULT:      -7.9      5.605      8.911
REMARK  Name = 
REMARK  4 active torsions:
REMARK  status: ('A' for Active; 'I' for Inactive)
REMARK    1  A    between atoms: C_2  and  C_16
REMARK    2  A    between atoms: N_3  and  C_4
REMARK    3  A    between atoms: C_4  and  C_5
REMARK    4  A    between atoms: C_5  and  C_6
REMARK                            x       y       z     vdW  Elec       q    Type
REMARK                         _______ _______ _______ _____ _____    ______ ____
ROOT
ATOM      1  O   UNL     1       8.014   6.180  18.953  0.00  0.00    +0.000 OA
ATOM      2  C   UNL     1       7.684   6.704  17.892  0.00  0.00    +0.000 C 
ATOM      3  N   UNL     1       7.890   8.032  17.625  0.00  0.00    +0.000 N 
ATOM      4  H   UNL     1       7.639   8.412  16.720  0.00  0.00    +0.000 HD
ENDROOT
BRANCH   2   5
ATOM      5  C   UNL     1       7.048   5.924  16.784  0.00  0.00    +0.000 A 
ATOM      6  C   UNL     1       5.925   5.260  17.095  0.00  0.00    +0.000 A 
ATOM      7  C   UNL     1       5.258   4.455  16.066  0.00  0.00    +0.000 A 
ATOM      8  O   UNL     1       4.223   3.852  16.309  0.00  0.00    +0.000 OA
ATOM      9  C   UNL     1       5.910   4.402  14.752  0.00  0.00    +0.000 A 
ATOM     10  C   UNL     1       5.374   3.617  13.726  0.00  0.00    +0.000 A 
ATOM     11  C   UNL     1       6.020   3.563  12.494  0.00  0.00    +0.000 A 
ATOM     12  C   UNL     1       7.195   4.293  12.290  0.00  0.00    +0.000 A 
ATOM     13  C   UNL     1       7.723   5.082  13.316  0.00  0.00    +0.000 A 
ATOM     14  C   UNL     1       7.080   5.137  14.552  0.00  0.00    +0.000 A 
ATOM     15  O   UNL     1       7.646   5.920  15.531  0.00  0.00    +0.000 OA
ENDBRANCH   2   5
BRANCH   3  16
ATOM     16  C   UNL     1       8.490   8.921  18.608  0.00  0.00    +0.000 C 
BRANCH  16  17
ATOM     17  C   UNL     1       8.486  10.393  18.184  0.00  0.00    +0.000 C 
BRANCH  17  18
ATOM     18  C   UNL     1       9.393  11.214  19.038  0.00  0.00    +0.000 A 
ATOM     19  N   UNL     1       9.923  10.812  20.174  0.00  0.00    +0.000 NA
ATOM     20  N   UNL     1      10.700  11.821  20.667  0.00  0.00    +0.000 NA
ATOM     21  C   UNL     1      10.649  12.835  19.827  0.00  0.00    +0.000 A 
ATOM     22  N   UNL     1       9.821  12.497  18.782  0.00  0.00    +0.000 N 
ATOM     23  C   UNL     1       9.482  13.316  17.634  0.00  0.00    +0.000 C 
ATOM     24  C   UNL     1       9.287  14.793  17.955  0.00  0.00    +0.000 C 
ATOM     25  C   UNL     1      10.590  15.583  18.078  0.00  0.00    +0.000 C 
ATOM     26  C   UNL     1      11.751  14.843  18.742  0.00  0.00    +0.000 C 
ATOM     27  C   UNL     1      11.354  14.133  20.029  0.00  0.00    +0.000 C 
ENDBRANCH  17  18
ENDBRANCH  16  17
ENDBRANCH   3  16
TORSDOF 4
ENDMDL
MODEL 5
REMARK VINA RESULT:      -7.8      3.830      5.428
REMARK  Name = 
REMARK  4 active torsions:
REMARK  status: ('A' for Active; 'I' for Inactive)
REMARK    1  A    between atoms: C_2  and  C_16
REMARK    2  A    between atoms: N_3  and  C_4
REMARK    3  A    between atoms: C_4  and  C_5
REMARK    4  A    between atoms: C_5  and  C_6
REMARK                            x       y       z     vdW  Elec       q    Type
REMARK                         _______ _______ _______ _____ _____    ______ ____
ROOT
ATOM      1  O   UNL     1       0.339  10.506  19.843  0.00  0.00    +0.000 OA
ATOM      2  C   UNL     1      -0.073  10.260  18.712  0.00  0.00    +0.000 C 
ATOM      3  N   UNL     1       0.691   9.632  17.764  0.00  0.00    +0.000 N 
ATOM      4  H   UNL     1       0.295   9.413  16.858  0.00  0.00    +0.000 HD
ENDROOT
BRANCH   2   5
ATOM      5  C   UNL     1      -1.463  10.607  18.280  0.00  0.00    +0.000 A 
ATOM      6  C   UNL     1      -1.819  10.208  17.050  0.00  0.00    +0.000 A 
ATOM      7  C   UNL     1      -3.159  10.533  16.549  0.00  0.00    +0.000 A 
ATOM      8  O   UNL     1      -3.523  10.169  15.440  0.00  0.00    +0.000 OA
ATOM      9  C   UNL     1      -4.015  11.327  17.438  0.00  0.00    +0.000 A 
ATOM     10  C   UNL     1      -5.289  11.728  17.022  0.00  0.00    +0.000 A 
ATOM     11  C   UNL     1      -6.077  12.500  17.871  0.00  0.00    +0.000 A 
ATOM     12  C   UNL     1      -5.593  12.866  19.131  0.00  0.00    +0.000 A 
ATOM     13  C   UNL     1      -4.322  12.456  19.545  0.00  0.00    +0.000 A 
ATOM     14  C   UNL     1      -3.529  11.684  18.696  0.00  0.00    +0.000 A 
ATOM     15  O   UNL     1      -2.283  11.316  19.147  0.00  0.00    +0.000 OA
ENDBRANCH   2   5
BRANCH   3  16
ATOM     16  C   UNL     1       2.067   9.242  18.033  0.00  0.00    +0.000 C 
BRANCH  16  17
ATOM     17  C   UNL     1       2.189   7.916  18.792  0.00  0.00    +0.000 C 
BRANCH  17  18
ATOM     18  C   UNL     1       3.060   6.945  18.066  0.00  0.00    +0.000 A 
ATOM     19  N   UNL     1       4.092   7.275  17.319  0.00  0.00    +0.000 NA
ATOM     20  N   UNL     1       4.648   6.129  16.824  0.00  0.00    +0.000 NA
ATOM     21  C   UNL     1       3.959   5.102  17.278  0.00  0.00    +0.000 A 
ATOM     22  N   UNL     1       2.932   5.574  18.063  0.00  0.00    +0.000 N 
ATOM     23  C   UNL     1       1.933   4.790  18.761  0.00  0.00    +0.000 C 
ATOM     24  C   UNL     1       1.436   3.576  17.985  0.00  0.00    +0.000 C 
ATOM     25  C   UNL     1       2.368   2.366  18.054  0.00  0.00    +0.000 C 
ATOM     26  C   UNL     1       3.863   2.682  18.028  0.00  0.00    +0.000 C 
ATOM     27  C   UNL     1       4.248   3.679  16.943  0.00  0.00    +0.000 C 
ENDBRANCH  17  18
ENDBRANCH  16  17
ENDBRANCH   3  16
TORSDOF 4
ENDMDL
MODEL 6
REMARK VINA RESULT:      -7.7      4.342      6.831
REMARK  Name = 
REMARK  4 active torsions:
REMARK  status: ('A' for Active; 'I' for Inactive)
REMARK    1  A    between atoms: C_2  and  C_16
REMARK    2  A    between atoms: N_3  and  C_4
REMARK    3  A    between atoms: C_4  and  C_5
REMARK    4  A    between atoms: C_5  and  C_6
REMARK                            x       y       z     vdW  Elec       q    Type
REMARK                         _______ _______ _______ _____ _____    ______ ____
ROOT
ATOM      1  O   UNL     1       7.302   8.045  16.833  0.00  0.00    +0.000 OA
ATOM      2  C   UNL     1       7.938   8.260  17.861  0.00  0.00    +0.000 C 
ATOM      3  N   UNL     1       8.266   7.273  18.752  0.00  0.00    +0.000 N 
ATOM      4  H   UNL     1       8.828   7.491  19.566  0.00  0.00    +0.000 HD
ENDROOT
BRANCH   2   5
ATOM      5  C   UNL     1       8.434   9.627  18.217  0.00  0.00    +0.000 A 
ATOM      6  C   UNL     1       9.315   9.695  19.226  0.00  0.00    +0.000 A 
ATOM      7  C   UNL     1       9.827  11.004  19.646  0.00  0.00    +0.000 A 
ATOM      8  O   UNL     1      10.645  11.101  20.549  0.00  0.00    +0.000 OA
ATOM      9  C   UNL     1       9.291  12.174  18.940  0.00  0.00    +0.000 A 
ATOM     10  C   UNL     1       9.682  13.464  19.310  0.00  0.00    +0.000 A 
ATOM     11  C   UNL     1       9.144  14.562  18.643  0.00  0.00    +0.000 A 
ATOM     12  C   UNL     1       8.222  14.368  17.610  0.00  0.00    +0.000 A 
ATOM     13  C   UNL     1       7.840  13.075  17.239  0.00  0.00    +0.000 A 
ATOM     14  C   UNL     1       8.374  11.973  17.907  0.00  0.00    +0.000 A 
ATOM     15  O   UNL     1       7.958  10.723  17.511  0.00  0.00    +0.000 OA
ENDBRANCH   2   5
BRANCH   3  16
ATOM     16  C   UNL     1       7.846   5.895  18.548  0.00  0.00    +0.000 C 
BRANCH  16  17
ATOM     17  C   UNL     1       6.700   5.462  19.468  0.00  0.00    +0.000 C 
BRANCH  17  18
ATOM     18  C   UNL     1       5.395   5.431  18.745  0.00  0.00    +0.000 A 
ATOM     19  N   UNL     1       4.946   6.391  17.965  0.00  0.00    +0.000 NA
ATOM     20  N   UNL     1       3.730   6.012  17.472  0.00  0.00    +0.000 NA
ATOM     21  C   UNL     1       3.443   4.817  17.947  0.00  0.00    +0.000 A 
ATOM     22  N   UNL     1       4.469   4.413  18.770  0.00  0.00    +0.000 N 
ATOM     23  C   UNL     1       4.567   3.163  19.498  0.00  0.00    +0.000 C 
ATOM     24  C   UNL     1       3.247   2.679  20.089  0.00  0.00    +0.000 C 
ATOM     25  C   UNL     1       2.337   1.971  19.085  0.00  0.00    +0.000 C 
ATOM     26  C   UNL     1       2.329   2.556  17.673  0.00  0.00    +0.000 C 
ATOM     27  C   UNL     1       2.186   4.072  17.651  0.00  0.00    +0.000 C 
ENDBRANCH  17  18
ENDBRANCH  16  17
ENDBRANCH   3  16
TORSDOF 4
ENDMDL
MODEL 7
REMARK VINA RESULT:      -7.7      3.184      8.065
REMARK  Name = 
REMARK  4 active torsions:
REMARK  status: ('A' for Active; 'I' for Inactive)
REMARK    1  A    between atoms: C_2  and  C_16
REMARK    2  A    between atoms: N_3  and  C_4
REMARK    3  A    between atoms: C_4  and  C_5
REMARK    4  A    between atoms: C_5  and  C_6
REMARK                            x       y       z     vdW  Elec       q    Type
REMARK                         _______ _______ _______ _____ _____    ______ ____
ROOT
ATOM      1  O   UNL     1       1.120   4.765  20.795  0.00  0.00    +0.000 OA
ATOM      2  C   UNL     1       1.824   5.528  20.139  0.00  0.00    +0.000 C 
ATOM      3  N   UNL     1       1.874   6.877  20.375  0.00  0.00    +0.000 N 
ATOM      4  H   UNL     1       2.501   7.462  19.835  0.00  0.00    +0.000 HD
ENDROOT
BRANCH   2   5
ATOM      5  C   UNL     1       2.710   5.042  19.036  0.00  0.00    +0.000 A 
ATOM      6  C   UNL     1       2.840   3.712  18.921  0.00  0.00    +0.000 A 
ATOM      7  C   UNL     1       3.712   3.163  17.877  0.00  0.00    +0.000 A 
ATOM      8  O   UNL     1       3.840   1.956  17.731  0.00  0.00    +0.000 OA
ATOM      9  C   UNL     1       4.427   4.137  17.042  0.00  0.00    +0.000 A 
ATOM     10  C   UNL     1       5.320   3.704  16.057  0.00  0.00    +0.000 A 
ATOM     11  C   UNL     1       6.006   4.643  15.292  0.00  0.00    +0.000 A 
ATOM     12  C   UNL     1       5.797   6.008  15.510  0.00  0.00    +0.000 A 
ATOM     13  C   UNL     1       4.896   6.436  16.492  0.00  0.00    +0.000 A 
ATOM     14  C   UNL     1       4.210   5.497  17.262  0.00  0.00    +0.000 A 
ATOM     15  O   UNL     1       3.344   5.970  18.221  0.00  0.00    +0.000 OA
ENDBRANCH   2   5
BRANCH   3  16
ATOM     16  C   UNL     1       1.061   7.499  21.409  0.00  0.00    +0.000 C 
BRANCH  16  17
ATOM     17  C   UNL     1       1.601   8.854  21.878  0.00  0.00    +0.000 C 
BRANCH  17  18
ATOM     18  C   UNL     1       0.497   9.813  22.173  0.00  0.00    +0.000 A 
ATOM     19  N   UNL     1       0.015  10.058  23.373  0.00  0.00    +0.000 NA
ATOM     20  N   UNL     1      -0.975  10.992  23.257  0.00  0.00    +0.000 NA
ATOM     21  C   UNL     1      -1.090  11.321  21.986  0.00  0.00    +0.000 A 
ATOM     22  N   UNL     1      -0.181  10.588  21.259  0.00  0.00    +0.000 N 
ATOM     23  C   UNL     1       0.035  10.636  19.826  0.00  0.00    +0.000 C 
ATOM     24  C   UNL     1      -1.241  10.784  19.006  0.00  0.00    +0.000 C 
ATOM     25  C   UNL     1      -1.770  12.217  18.928  0.00  0.00    +0.000 C 
ATOM     26  C   UNL     1      -1.627  13.044  20.205  0.00  0.00    +0.000 C 
ATOM     27  C   UNL     1      -2.080  12.301  21.456  0.00  0.00    +0.000 C 
ENDBRANCH  17  18
ENDBRANCH  16  17
ENDBRANCH   3  16
TORSDOF 4
ENDMDL
MODEL 8
REMARK VINA RESULT:      -7.7      3.532      8.640
REMARK  Name = 
REMARK  4 active torsions:
REMARK  status: ('A' for Active; 'I' for Inactive)
REMARK    1  A    between atoms: C_2  and  C_16
REMARK    2  A    between atoms: N_3  and  C_4
REMARK    3  A    between atoms: C_4  and  C_5
REMARK    4  A    between atoms: C_5  and  C_6
REMARK                            x       y       z     vdW  Elec       q    Type
REMARK                         _______ _______ _______ _____ _____    ______ ____
ROOT
ATOM      1  O   UNL     1       2.520   9.307  17.321  0.00  0.00    +0.000 OA
ATOM      2  C   UNL     1       2.088   8.684  18.287  0.00  0.00    +0.000 C 
ATOM      3  N   UNL     1       1.132   9.188  19.129  0.00  0.00    +0.000 N 
ATOM      4  H   UNL     1       0.777   8.620  19.890  0.00  0.00    +0.000 HD
ENDROOT
BRANCH   2   5
ATOM      5  C   UNL     1       2.557   7.300  18.614  0.00  0.00    +0.000 A 
ATOM      6  C   UNL     1       3.435   6.754  17.760  0.00  0.00    +0.000 A 
ATOM      7  C   UNL     1       3.921   5.391  18.003  0.00  0.00    +0.000 A 
ATOM      8  O   UNL     1       4.735   4.869  17.255  0.00  0.00    +0.000 OA
ATOM      9  C   UNL     1       3.364   4.696  19.169  0.00  0.00    +0.000 A 
ATOM     10  C   UNL     1       3.730   3.375  19.448  0.00  0.00    +0.000 A 
ATOM     11  C   UNL     1       3.173   2.726  20.546  0.00  0.00    +0.000 A 
ATOM     12  C   UNL     1       2.256   3.396  21.362  0.00  0.00    +0.000 A 
ATOM     13  C   UNL     1       1.899   4.719  21.084  0.00  0.00    +0.000 A 
ATOM     14  C   UNL     1       2.454   5.372  19.983  0.00  0.00    +0.000 A 
ATOM     15  O   UNL     1       2.062   6.669  19.747  0.00  0.00    +0.000 OA
ENDBRANCH   2   5
BRANCH   3  16
ATOM     16  C   UNL     1       0.586  10.524  18.946  0.00  0.00    +0.000 C 
BRANCH  16  17
ATOM     17  C   UNL     1       0.996  11.508  20.045  0.00  0.00    +0.000 C 
BRANCH  17  18
ATOM     18  C   UNL     1       0.166  11.340  21.273  0.00  0.00    +0.000 A 
ATOM     19  N   UNL     1       0.484  10.575  22.296  0.00  0.00    +0.000 NA
ATOM     20  N   UNL     1      -0.505  10.676  23.233  0.00  0.00    +0.000 NA
ATOM     21  C   UNL     1      -1.421  11.510  22.783  0.00  0.00    +0.000 A 
ATOM     22  N   UNL     1      -1.041  11.948  21.535  0.00  0.00    +0.000 N 
ATOM     23  C   UNL     1      -1.754  12.876  20.679  0.00  0.00    +0.000 C 
ATOM     24  C   UNL     1      -3.269  12.707  20.698  0.00  0.00    +0.000 C 
ATOM     25  C   UNL     1      -3.955  13.357  21.899  0.00  0.00    +0.000 C 
ATOM     26  C   UNL     1      -3.198  13.264  23.223  0.00  0.00    +0.000 C 
ATOM     27  C   UNL     1      -2.670  11.866  23.516  0.00  0.00    +0.000 C 
ENDBRANCH  17  18
ENDBRANCH  16  17
ENDBRANCH   3  16
TORSDOF 4
ENDMDL
MODEL 9
REMARK VINA RESULT:      -7.7      0.987      1.918
REMARK  Name = 
REMARK  4 active torsions:
REMARK  status: ('A' for Active; 'I' for Inactive)
REMARK    1  A    between atoms: C_2  and  C_16
REMARK    2  A    between atoms: N_3  and  C_4
REMARK    3  A    between atoms: C_4  and  C_5
REMARK    4  A    between atoms: C_5  and  C_6
REMARK                            x       y       z     vdW  Elec       q    Type
REMARK                         _______ _______ _______ _____ _____    ______ ____
ROOT
ATOM      1  O   UNL     1       2.270   4.752  21.592  0.00  0.00    +0.000 OA
ATOM      2  C   UNL     1       2.199   5.093  20.414  0.00  0.00    +0.000 C 
ATOM      3  N   UNL     1       2.333   4.208  19.377  0.00  0.00    +0.000 N 
ATOM      4  H   UNL     1       2.226   4.528  18.421  0.00  0.00    +0.000 HD
ENDROOT
BRANCH   2   5
ATOM      5  C   UNL     1       1.935   6.510  20.011  0.00  0.00    +0.000 A 
ATOM      6  C   UNL     1       2.354   6.867  18.788  0.00  0.00    +0.000 A 
ATOM      7  C   UNL     1       2.149   8.246  18.333  0.00  0.00    +0.000 A 
ATOM      8  O   UNL     1       2.502   8.602  17.217  0.00  0.00    +0.000 OA
ATOM      9  C   UNL     1       1.524   9.166  19.291  0.00  0.00    +0.000 A 
ATOM     10  C   UNL     1       1.339  10.513  18.962  0.00  0.00    +0.000 A 
ATOM     11  C   UNL     1       0.765  11.373  19.893  0.00  0.00    +0.000 A 
ATOM     12  C   UNL     1       0.376  10.888  21.146  0.00  0.00    +0.000 A 
ATOM     13  C   UNL     1       0.556   9.539  21.466  0.00  0.00    +0.000 A 
ATOM     14  C   UNL     1       1.134   8.674  20.537  0.00  0.00    +0.000 A 
ATOM     15  O   UNL     1       1.298   7.359  20.906  0.00  0.00    +0.000 OA
ENDBRANCH   2   5
BRANCH   3  16
ATOM     16  C   UNL     1       2.603   2.798  19.610  0.00  0.00    +0.000 C 
BRANCH  16  17
ATOM     17  C   UNL     1       3.983   2.350  19.118  0.00  0.00    +0.000 C 
BRANCH  17  18
ATOM     18  C   UNL     1       4.921   3.502  18.987  0.00  0.00    +0.000 A 
ATOM     19  N   UNL     1       5.451   4.158  19.998  0.00  0.00    +0.000 NA
ATOM     20  N   UNL     1       6.261   5.138  19.498  0.00  0.00    +0.000 NA
ATOM     21  C   UNL     1       6.230   5.073  18.182  0.00  0.00    +0.000 A 
ATOM     22  N   UNL     1       5.382   4.054  17.813  0.00  0.00    +0.000 N 
ATOM     23  C   UNL     1       5.055   3.633  16.465  0.00  0.00    +0.000 C 
ATOM     24  C   UNL     1       4.905   4.779  15.471  0.00  0.00    +0.000 C 
ATOM     25  C   UNL     1       6.231   5.317  14.933  0.00  0.00    +0.000 C 
ATOM     26  C   UNL     1       7.377   5.377  15.942  0.00  0.00    +0.000 C 
ATOM     27  C   UNL     1       6.973   5.994  17.275  0.00  0.00    +0.000 C 
ENDBRANCH  17  18
ENDBRANCH  16  17
ENDBRANCH   3  16
TORSDOF 4
ENDMDL
