MODEL 1
REMARK VINA RESULT:      -9.2      0.000      0.000
REMARK  Name = 
REMARK  2 active torsions:
REMARK  status: ('A' for Active; 'I' for Inactive)
REMARK    1  A    between atoms: C_9  and  C_10
REMARK    2  A    between atoms: N_21  and  C_22
REMARK                            x       y       z     vdW  Elec       q    Type
REMARK                         _______ _______ _______ _____ _____    ______ ____
ROOT
ATOM      1  O   UNL     1       5.129   2.632  18.346  0.00  0.00    +0.000 OA
ATOM      2  C   UNL     1       4.368   3.596  18.390  0.00  0.00    +0.000 A 
ATOM      3  C   UNL     1       3.400   3.682  19.499  0.00  0.00    +0.000 A 
ATOM      4  C   UNL     1       3.325   2.643  20.435  0.00  0.00    +0.000 A 
ATOM      5  C   UNL     1       2.386   2.695  21.460  0.00  0.00    +0.000 A 
ATOM      6  C   UNL     1       1.474   3.746  21.509  0.00  0.00    +0.000 A 
ATOM      7  C   UNL     1       1.536   4.771  20.562  0.00  0.00    +0.000 A 
ATOM      8  C   UNL     1       2.559   4.786  19.603  0.00  0.00    +0.000 A 
ATOM      9  C   UNL     1       2.852   5.927  18.701  0.00  0.00    +0.000 A 
ATOM     10  N   UNL     1       3.695   5.825  17.717  0.00  0.00    +0.000 NA
ATOM     11  N   UNL     1       4.345   4.643  17.481  0.00  0.00    +0.000 N 
ENDROOT
BRANCH   9  12
ATOM     12  C   UNL     1       2.226   7.273  18.868  0.00  0.00    +0.000 A 
ATOM     13  C   UNL     1       2.097   8.208  17.834  0.00  0.00    +0.000 A 
ATOM     14  C   UNL     1       1.576   9.480  18.101  0.00  0.00    +0.000 A 
ATOM     15  C   UNL     1       1.124   9.788  19.383  0.00  0.00    +0.000 A 
ATOM     16  C   UNL     1       1.114   8.806  20.362  0.00  0.00    +0.000 A 
ATOM     17  C   UNL     1       1.681   7.563  20.124  0.00  0.00    +0.000 A 
ATOM     18  O   UNL     1       0.543   9.002  21.589  0.00  0.00    +0.000 OA
ATOM     19  C   UNL     1       0.865  10.318  22.013  0.00  0.00    +0.000 C 
ATOM     20  C   UNL     1       0.471  11.380  20.991  0.00  0.00    +0.000 C 
ATOM     21  O   UNL     1       0.714  11.069  19.612  0.00  0.00    +0.000 OA
ENDBRANCH   9  12
BRANCH  11  22
ATOM     22  C   UNL     1       5.298   4.698  16.420  0.00  0.00    +0.000 A 
ATOM     23  N   UNL     1       4.949   4.131  15.228  0.00  0.00    +0.000 NA
ATOM     24  C   UNL     1       5.805   4.291  14.185  0.00  0.00    +0.000 A 
ATOM     25  C   UNL     1       7.016   4.951  14.278  0.00  0.00    +0.000 A 
ATOM     26 CL   UNL     1       8.027   5.139  12.904  0.00  0.00    +0.000 Cl
ATOM     27  C   UNL     1       7.400   5.461  15.507  0.00  0.00    +0.000 A 
ATOM     28  C   UNL     1       6.545   5.326  16.601  0.00  0.00    +0.000 A 
ATOM     29 CL   UNL     1       7.145   5.808  18.151  0.00  0.00    +0.000 Cl
ENDBRANCH  11  22
TORSDOF 2
ENDMDL
MODEL 2
REMARK VINA RESULT:      -8.8      3.209      7.082
REMARK  Name = 
REMARK  2 active torsions:
REMARK  status: ('A' for Active; 'I' for Inactive)
REMARK    1  A    between atoms: C_9  and  C_10
REMARK    2  A    between atoms: N_21  and  C_22
REMARK                            x       y       z     vdW  Elec       q    Type
REMARK                         _______ _______ _______ _____ _____    ______ ____
ROOT
ATOM      1  O   UNL     1       0.493   6.326  20.944  0.00  0.00    +0.000 OA
ATOM      2  C   UNL     1       1.573   6.214  20.368  0.00  0.00    +0.000 A 
ATOM      3  C   UNL     1       2.266   4.913  20.411  0.00  0.00    +0.000 A 
ATOM      4  C   UNL     1       1.715   3.860  21.151  0.00  0.00    +0.000 A 
ATOM      5  C   UNL     1       2.382   2.641  21.233  0.00  0.00    +0.000 A 
ATOM      6  C   UNL     1       3.632   2.497  20.637  0.00  0.00    +0.000 A 
ATOM      7  C   UNL     1       4.190   3.556  19.916  0.00  0.00    +0.000 A 
ATOM      8  C   UNL     1       3.466   4.742  19.727  0.00  0.00    +0.000 A 
ATOM      9  C   UNL     1       3.861   5.833  18.803  0.00  0.00    +0.000 A 
ATOM     10  N   UNL     1       3.250   6.980  18.795  0.00  0.00    +0.000 NA
ATOM     11  N   UNL     1       2.210   7.218  19.652  0.00  0.00    +0.000 N 
ENDROOT
BRANCH   9  12
ATOM     12  C   UNL     1       4.964   5.690  17.806  0.00  0.00    +0.000 A 
ATOM     13  C   UNL     1       6.186   6.367  17.891  0.00  0.00    +0.000 A 
ATOM     14  C   UNL     1       7.130   6.240  16.864  0.00  0.00    +0.000 A 
ATOM     15  C   UNL     1       6.877   5.387  15.792  0.00  0.00    +0.000 A 
ATOM     16  C   UNL     1       5.732   4.604  15.794  0.00  0.00    +0.000 A 
ATOM     17  C   UNL     1       4.765   4.765  16.774  0.00  0.00    +0.000 A 
ATOM     18  O   UNL     1       5.504   3.640  14.851  0.00  0.00    +0.000 OA
ATOM     19  C   UNL     1       5.921   4.152  13.595  0.00  0.00    +0.000 C 
ATOM     20  C   UNL     1       7.365   4.647  13.610  0.00  0.00    +0.000 C 
ATOM     21  O   UNL     1       7.785   5.372  14.774  0.00  0.00    +0.000 OA
ENDBRANCH   9  12
BRANCH  11  22
ATOM     22  C   UNL     1       1.582   8.487  19.479  0.00  0.00    +0.000 A 
ATOM     23  N   UNL     1       1.351   8.908  18.200  0.00  0.00    +0.000 NA
ATOM     24  C   UNL     1       0.644  10.057  18.037  0.00  0.00    +0.000 A 
ATOM     25  C   UNL     1       0.191  10.836  19.085  0.00  0.00    +0.000 A 
ATOM     26 CL   UNL     1      -0.725  12.259  18.797  0.00  0.00    +0.000 Cl
ATOM     27  C   UNL     1       0.490  10.444  20.380  0.00  0.00    +0.000 A 
ATOM     28  C   UNL     1       1.206   9.266  20.590  0.00  0.00    +0.000 A 
ATOM     29 CL   UNL     1       1.718   8.917  22.206  0.00  0.00    +0.000 Cl
ENDBRANCH  11  22
TORSDOF 2
ENDMDL
MODEL 3
REMARK VINA RESULT:      -8.5      0.874      1.562
REMARK  Name = 
REMARK  2 active torsions:
REMARK  status: ('A' for Active; 'I' for Inactive)
REMARK    1  A    between atoms: C_9  and  C_10
REMARK    2  A    between atoms: N_21  and  C_22
REMARK                            x       y       z     vdW  Elec       q    Type
REMARK                         _______ _______ _______ _____ _____    ______ ____
ROOT
ATOM      1  O   UNL     1       4.864   2.327  18.413  0.00  0.00    +0.000 OA
ATOM      2  C   UNL     1       4.150   3.311  18.596  0.00  0.00    +0.000 A 
ATOM      3  C   UNL     1       3.184   3.285  19.709  0.00  0.00    +0.000 A 
ATOM      4  C   UNL     1       3.057   2.128  20.489  0.00  0.00    +0.000 A 
ATOM      5  C   UNL     1       2.118   2.079  21.515  0.00  0.00    +0.000 A 
ATOM      6  C   UNL     1       1.258   3.155  21.716  0.00  0.00    +0.000 A 
ATOM      7  C   UNL     1       1.371   4.300  20.924  0.00  0.00    +0.000 A 
ATOM      8  C   UNL     1       2.396   4.402  19.972  0.00  0.00    +0.000 A 
ATOM      9  C   UNL     1       2.747   5.644  19.240  0.00  0.00    +0.000 A 
ATOM     10  N   UNL     1       3.586   5.642  18.248  0.00  0.00    +0.000 NA
ATOM     11  N   UNL     1       4.179   4.476  17.844  0.00  0.00    +0.000 N 
ENDROOT
BRANCH   9  12
ATOM     12  C   UNL     1       2.185   6.980  19.599  0.00  0.00    +0.000 A 
ATOM     13  C   UNL     1       1.935   7.396  20.912  0.00  0.00    +0.000 A 
ATOM     14  C   UNL     1       1.326   8.633  21.151  0.00  0.00    +0.000 A 
ATOM     15  C   UNL     1       1.031   9.478  20.083  0.00  0.00    +0.000 A 
ATOM     16  C   UNL     1       1.422   9.124  18.800  0.00  0.00    +0.000 A 
ATOM     17  C   UNL     1       1.973   7.878  18.546  0.00  0.00    +0.000 A 
ATOM     18  O   UNL     1       1.300   9.976  17.737  0.00  0.00    +0.000 OA
ATOM     19  C   UNL     1       0.055  10.648  17.859  0.00  0.00    +0.000 C 
ATOM     20  C   UNL     1      -0.111  11.343  19.207  0.00  0.00    +0.000 C 
ATOM     21  O   UNL     1       0.352  10.629  20.362  0.00  0.00    +0.000 OA
ENDBRANCH   9  12
BRANCH  11  22
ATOM     22  C   UNL     1       5.137   4.634  16.798  0.00  0.00    +0.000 A 
ATOM     23  N   UNL     1       4.789   4.198  15.552  0.00  0.00    +0.000 NA
ATOM     24  C   UNL     1       5.650   4.461  14.534  0.00  0.00    +0.000 A 
ATOM     25  C   UNL     1       6.865   5.098  14.700  0.00  0.00    +0.000 A 
ATOM     26 CL   UNL     1       7.883   5.423  13.357  0.00  0.00    +0.000 Cl
ATOM     27  C   UNL     1       7.247   5.474  15.977  0.00  0.00    +0.000 A 
ATOM     28  C   UNL     1       6.387   5.231  17.048  0.00  0.00    +0.000 A 
ATOM     29 CL   UNL     1       6.985   5.543  18.642  0.00  0.00    +0.000 Cl
ENDBRANCH  11  22
TORSDOF 2
ENDMDL
MODEL 4
REMARK VINA RESULT:      -8.3      2.910      7.137
REMARK  Name = 
REMARK  2 active torsions:
REMARK  status: ('A' for Active; 'I' for Inactive)
REMARK    1  A    between atoms: C_9  and  C_10
REMARK    2  A    between atoms: N_21  and  C_22
REMARK                            x       y       z     vdW  Elec       q    Type
REMARK                         _______ _______ _______ _____ _____    ______ ____
ROOT
ATOM      1  O   UNL     1       0.315   5.611  20.804  0.00  0.00    +0.000 OA
ATOM      2  C   UNL     1       1.412   5.563  20.253  0.00  0.00    +0.000 A 
ATOM      3  C   UNL     1       1.958   4.246  19.877  0.00  0.00    +0.000 A 
ATOM      4  C   UNL     1       1.250   3.083  20.208  0.00  0.00    +0.000 A 
ATOM      5  C   UNL     1       1.777   1.834  19.895  0.00  0.00    +0.000 A 
ATOM      6  C   UNL     1       3.041   1.741  19.319  0.00  0.00    +0.000 A 
ATOM      7  C   UNL     1       3.755   2.901  19.009  0.00  0.00    +0.000 A 
ATOM      8  C   UNL     1       3.176   4.163  19.208  0.00  0.00    +0.000 A 
ATOM      9  C   UNL     1       3.744   5.440  18.712  0.00  0.00    +0.000 A 
ATOM     10  N   UNL     1       3.261   6.592  19.072  0.00  0.00    +0.000 NA
ATOM     11  N   UNL     1       2.198   6.660  19.931  0.00  0.00    +0.000 N 
ENDROOT
BRANCH   9  12
ATOM     12  C   UNL     1       4.889   5.499  17.755  0.00  0.00    +0.000 A 
ATOM     13  C   UNL     1       5.962   6.390  17.874  0.00  0.00    +0.000 A 
ATOM     14  C   UNL     1       6.949   6.435  16.881  0.00  0.00    +0.000 A 
ATOM     15  C   UNL     1       6.895   5.545  15.810  0.00  0.00    +0.000 A 
ATOM     16  C   UNL     1       5.914   4.565  15.781  0.00  0.00    +0.000 A 
ATOM     17  C   UNL     1       4.900   4.548  16.727  0.00  0.00    +0.000 A 
ATOM     18  O   UNL     1       5.901   3.571  14.842  0.00  0.00    +0.000 OA
ATOM     19  C   UNL     1       6.261   4.146  13.595  0.00  0.00    +0.000 C 
ATOM     20  C   UNL     1       7.587   4.899  13.654  0.00  0.00    +0.000 C 
ATOM     21  O   UNL     1       7.825   5.694  14.823  0.00  0.00    +0.000 OA
ENDBRANCH   9  12
BRANCH  11  22
ATOM     22  C   UNL     1       1.722   7.983  20.175  0.00  0.00    +0.000 A 
ATOM     23  N   UNL     1       1.437   8.323  21.467  0.00  0.00    +0.000 NA
ATOM     24  C   UNL     1       1.104   9.616  21.714  0.00  0.00    +0.000 A 
ATOM     25  C   UNL     1       0.994  10.584  20.732  0.00  0.00    +0.000 A 
ATOM     26 CL   UNL     1       0.599  12.206  21.130  0.00  0.00    +0.000 Cl
ATOM     27  C   UNL     1       1.213  10.218  19.414  0.00  0.00    +0.000 A 
ATOM     28  C   UNL     1       1.567   8.901  19.120  0.00  0.00    +0.000 A 
ATOM     29 CL   UNL     1       1.644   8.447  17.452  0.00  0.00    +0.000 Cl
ENDBRANCH  11  22
TORSDOF 2
ENDMDL
MODEL 5
REMARK VINA RESULT:      -8.0      5.671     10.039
REMARK  Name = 
REMARK  2 active torsions:
REMARK  status: ('A' for Active; 'I' for Inactive)
REMARK    1  A    between atoms: C_9  and  C_10
REMARK    2  A    between atoms: N_21  and  C_22
REMARK                            x       y       z     vdW  Elec       q    Type
REMARK                         _______ _______ _______ _____ _____    ______ ____
ROOT
ATOM      1  O   UNL     1      -3.384  13.661  20.055  0.00  0.00    +0.000 OA
ATOM      2  C   UNL     1      -2.630  12.698  19.938  0.00  0.00    +0.000 A 
ATOM      3  C   UNL     1      -2.862  11.750  18.832  0.00  0.00    +0.000 A 
ATOM      4  C   UNL     1      -3.962  11.929  17.984  0.00  0.00    +0.000 A 
ATOM      5  C   UNL     1      -4.213  11.017  16.965  0.00  0.00    +0.000 A 
ATOM      6  C   UNL     1      -3.410   9.886  16.837  0.00  0.00    +0.000 A 
ATOM      7  C   UNL     1      -2.325   9.697  17.697  0.00  0.00    +0.000 A 
ATOM      8  C   UNL     1      -1.995  10.676  18.645  0.00  0.00    +0.000 A 
ATOM      9  C   UNL     1      -0.749  10.686  19.448  0.00  0.00    +0.000 A 
ATOM     10  N   UNL     1      -0.572  11.517  20.431  0.00  0.00    +0.000 NA
ATOM     11  N   UNL     1      -1.548  12.421  20.759  0.00  0.00    +0.000 N 
ENDROOT
BRANCH   9  12
ATOM     12  C   UNL     1       0.397   9.767  19.176  0.00  0.00    +0.000 A 
ATOM     13  C   UNL     1       1.262   9.899  18.083  0.00  0.00    +0.000 A 
ATOM     14  C   UNL     1       2.257   8.939  17.858  0.00  0.00    +0.000 A 
ATOM     15  C   UNL     1       2.426   7.892  18.761  0.00  0.00    +0.000 A 
ATOM     16  C   UNL     1       1.665   7.855  19.921  0.00  0.00    +0.000 A 
ATOM     17  C   UNL     1       0.640   8.766  20.124  0.00  0.00    +0.000 A 
ATOM     18  O   UNL     1       1.891   6.943  20.914  0.00  0.00    +0.000 OA
ATOM     19  C   UNL     1       2.175   5.694  20.302  0.00  0.00    +0.000 C 
ATOM     20  C   UNL     1       3.318   5.778  19.295  0.00  0.00    +0.000 C 
ATOM     21  O   UNL     1       3.344   6.933  18.445  0.00  0.00    +0.000 OA
ENDBRANCH   9  12
BRANCH  11  22
ATOM     22  C   UNL     1      -1.188  13.322  21.805  0.00  0.00    +0.000 A 
ATOM     23  N   UNL     1      -0.224  14.252  21.534  0.00  0.00    +0.000 NA
ATOM     24  C   UNL     1       0.030  15.186  22.486  0.00  0.00    +0.000 A 
ATOM     25  C   UNL     1      -0.596  15.218  23.718  0.00  0.00    +0.000 A 
ATOM     26 CL   UNL     1      -0.243  16.453  24.857  0.00  0.00    +0.000 Cl
ATOM     27  C   UNL     1      -1.521  14.231  24.018  0.00  0.00    +0.000 A 
ATOM     28  C   UNL     1      -1.816  13.259  23.062  0.00  0.00    +0.000 A 
ATOM     29 CL   UNL     1      -2.830  11.942  23.547  0.00  0.00    +0.000 Cl
ENDBRANCH  11  22
TORSDOF 2
ENDMDL
MODEL 6
REMARK VINA RESULT:      -8.0      5.748     10.379
REMARK  Name = 
REMARK  2 active torsions:
REMARK  status: ('A' for Active; 'I' for Inactive)
REMARK    1  A    between atoms: C_9  and  C_10
REMARK    2  A    between atoms: N_21  and  C_22
REMARK                            x       y       z     vdW  Elec       q    Type
REMARK                         _______ _______ _______ _____ _____    ______ ____
ROOT
ATOM      1  O   UNL     1      -1.455  14.881  19.930  0.00  0.00    +0.000 OA
ATOM      2  C   UNL     1      -0.958  13.781  19.701  0.00  0.00    +0.000 A 
ATOM      3  C   UNL     1       0.445  13.719  19.252  0.00  0.00    +0.000 A 
ATOM      4  C   UNL     1       1.156  14.906  19.037  0.00  0.00    +0.000 A 
ATOM      5  C   UNL     1       2.467  14.859  18.572  0.00  0.00    +0.000 A 
ATOM      6  C   UNL     1       3.043  13.633  18.252  0.00  0.00    +0.000 A 
ATOM      7  C   UNL     1       2.325  12.450  18.447  0.00  0.00    +0.000 A 
ATOM      8  C   UNL     1       1.050  12.485  19.031  0.00  0.00    +0.000 A 
ATOM      9  C   UNL     1       0.298  11.290  19.487  0.00  0.00    +0.000 A 
ATOM     10  N   UNL     1      -0.944  11.363  19.860  0.00  0.00    +0.000 NA
ATOM     11  N   UNL     1      -1.604  12.562  19.844  0.00  0.00    +0.000 N 
ENDROOT
BRANCH   9  12
ATOM     12  C   UNL     1       0.912   9.931  19.571  0.00  0.00    +0.000 A 
ATOM     13  C   UNL     1       0.836   9.110  20.702  0.00  0.00    +0.000 A 
ATOM     14  C   UNL     1       1.516   7.885  20.725  0.00  0.00    +0.000 A 
ATOM     15  C   UNL     1       2.211   7.458  19.595  0.00  0.00    +0.000 A 
ATOM     16  C   UNL     1       2.153   8.207  18.429  0.00  0.00    +0.000 A 
ATOM     17  C   UNL     1       1.532   9.446  18.414  0.00  0.00    +0.000 A 
ATOM     18  O   UNL     1       2.683   7.764  17.249  0.00  0.00    +0.000 OA
ATOM     19  C   UNL     1       3.923   7.136  17.538  0.00  0.00    +0.000 C 
ATOM     20  C   UNL     1       3.795   6.036  18.588  0.00  0.00    +0.000 C 
ATOM     21  O   UNL     1       2.933   6.305  19.702  0.00  0.00    +0.000 OA
ENDBRANCH   9  12
BRANCH  11  22
ATOM     22  C   UNL     1      -2.936  12.508  20.355  0.00  0.00    +0.000 A 
ATOM     23  N   UNL     1      -3.106  12.704  21.696  0.00  0.00    +0.000 NA
ATOM     24  C   UNL     1      -4.380  12.775  22.161  0.00  0.00    +0.000 A 
ATOM     25  C   UNL     1      -5.499  12.618  21.365  0.00  0.00    +0.000 A 
ATOM     26 CL   UNL     1      -7.078  12.755  22.024  0.00  0.00    +0.000 Cl
ATOM     27  C   UNL     1      -5.322  12.348  20.018  0.00  0.00    +0.000 A 
ATOM     28  C   UNL     1      -4.029  12.275  19.500  0.00  0.00    +0.000 A 
ATOM     29 CL   UNL     1      -3.852  11.750  17.860  0.00  0.00    +0.000 Cl
ENDBRANCH  11  22
TORSDOF 2
ENDMDL
MODEL 7
REMARK VINA RESULT:      -8.0      5.627     10.132
REMARK  Name = 
REMARK  2 active torsions:
REMARK  status: ('A' for Active; 'I' for Inactive)
REMARK    1  A    between atoms: C_9  and  C_10
REMARK    2  A    between atoms: N_21  and  C_22
REMARK                            x       y       z     vdW  Elec       q    Type
REMARK                         _______ _______ _______ _____ _____    ______ ____
ROOT
ATOM      1  O   UNL     1      -1.432  14.871  19.776  0.00  0.00    +0.000 OA
ATOM      2  C   UNL     1      -0.872  13.835  19.425  0.00  0.00    +0.000 A 
ATOM      3  C   UNL     1       0.554  13.891  19.058  0.00  0.00    +0.000 A 
ATOM      4  C   UNL     1       1.221  15.123  19.057  0.00  0.00    +0.000 A 
ATOM      5  C   UNL     1       2.556  15.193  18.672  0.00  0.00    +0.000 A 
ATOM      6  C   UNL     1       3.205  14.049  18.218  0.00  0.00    +0.000 A 
ATOM      7  C   UNL     1       2.533  12.824  18.199  0.00  0.00    +0.000 A 
ATOM      8  C   UNL     1       1.228  12.726  18.703  0.00  0.00    +0.000 A 
ATOM      9  C   UNL     1       0.508  11.450  18.937  0.00  0.00    +0.000 A 
ATOM     10  N   UNL     1      -0.755  11.421  19.240  0.00  0.00    +0.000 NA
ATOM     11  N   UNL     1      -1.468  12.584  19.353  0.00  0.00    +0.000 N 
ENDROOT
BRANCH   9  12
ATOM     12  C   UNL     1       1.178  10.118  18.866  0.00  0.00    +0.000 A 
ATOM     13  C   UNL     1       1.902   9.665  17.756  0.00  0.00    +0.000 A 
ATOM     14  C   UNL     1       2.424   8.366  17.743  0.00  0.00    +0.000 A 
ATOM     15  C   UNL     1       2.279   7.550  18.862  0.00  0.00    +0.000 A 
ATOM     16  C   UNL     1       1.695   8.059  20.013  0.00  0.00    +0.000 A 
ATOM     17  C   UNL     1       1.125   9.323  20.017  0.00  0.00    +0.000 A 
ATOM     18  O   UNL     1       1.664   7.361  21.188  0.00  0.00    +0.000 OA
ATOM     19  C   UNL     1       1.380   6.004  20.880  0.00  0.00    +0.000 C 
ATOM     20  C   UNL     1       2.350   5.417  19.859  0.00  0.00    +0.000 C 
ATOM     21  O   UNL     1       2.722   6.263  18.762  0.00  0.00    +0.000 OA
ENDBRANCH   9  12
BRANCH  11  22
ATOM     22  C   UNL     1      -2.822  12.407  19.769  0.00  0.00    +0.000 A 
ATOM     23  N   UNL     1      -3.114  12.632  21.084  0.00  0.00    +0.000 NA
ATOM     24  C   UNL     1      -4.420  12.583  21.452  0.00  0.00    +0.000 A 
ATOM     25  C   UNL     1      -5.453  12.278  20.586  0.00  0.00    +0.000 A 
ATOM     26 CL   UNL     1      -7.083  12.269  21.122  0.00  0.00    +0.000 Cl
ATOM     27  C   UNL     1      -5.146  11.980  19.268  0.00  0.00    +0.000 A 
ATOM     28  C   UNL     1      -3.817  12.027  18.848  0.00  0.00    +0.000 A 
ATOM     29 CL   UNL     1      -3.462  11.465  17.250  0.00  0.00    +0.000 Cl
ENDBRANCH  11  22
TORSDOF 2
ENDMDL
MODEL 8
REMARK VINA RESULT:      -7.9      5.748     10.440
REMARK  Name = 
REMARK  2 active torsions:
REMARK  status: ('A' for Active; 'I' for Inactive)
REMARK    1  A    between atoms: C_9  and  C_10
REMARK    2  A    between atoms: N_21  and  C_22
REMARK                            x       y       z     vdW  Elec       q    Type
REMARK                         _______ _______ _______ _____ _____    ______ ____
ROOT
ATOM      1  O   UNL     1      -1.433  15.080  20.031  0.00  0.00    +0.000 OA
ATOM      2  C   UNL     1      -0.974  13.960  19.819  0.00  0.00    +0.000 A 
ATOM      3  C   UNL     1       0.400  13.845  19.296  0.00  0.00    +0.000 A 
ATOM      4  C   UNL     1       1.125  15.005  18.996  0.00  0.00    +0.000 A 
ATOM      5  C   UNL     1       2.406  14.908  18.462  0.00  0.00    +0.000 A 
ATOM      6  C   UNL     1       2.935  13.656  18.161  0.00  0.00    +0.000 A 
ATOM      7  C   UNL     1       2.203  12.500  18.442  0.00  0.00    +0.000 A 
ATOM      8  C   UNL     1       0.964  12.589  19.093  0.00  0.00    +0.000 A 
ATOM      9  C   UNL     1       0.211  11.432  19.636  0.00  0.00    +0.000 A 
ATOM     10  N   UNL     1      -1.007  11.550  20.074  0.00  0.00    +0.000 NA
ATOM     11  N   UNL     1      -1.639  12.764  20.045  0.00  0.00    +0.000 N 
ENDROOT
BRANCH   9  12
ATOM     12  C   UNL     1       0.798  10.062  19.741  0.00  0.00    +0.000 A 
ATOM     13  C   UNL     1       0.743   9.276  20.898  0.00  0.00    +0.000 A 
ATOM     14  C   UNL     1       1.396   8.038  20.935  0.00  0.00    +0.000 A 
ATOM     15  C   UNL     1       2.043   7.562  19.797  0.00  0.00    +0.000 A 
ATOM     16  C   UNL     1       1.961   8.277  18.611  0.00  0.00    +0.000 A 
ATOM     17  C   UNL     1       1.367   9.529  18.579  0.00  0.00    +0.000 A 
ATOM     18  O   UNL     1       2.441   7.788  17.428  0.00  0.00    +0.000 OA
ATOM     19  C   UNL     1       3.676   7.140  17.694  0.00  0.00    +0.000 C 
ATOM     20  C   UNL     1       3.560   6.074  18.780  0.00  0.00    +0.000 C 
ATOM     21  O   UNL     1       2.743   6.396  19.914  0.00  0.00    +0.000 OA
ENDBRANCH   9  12
BRANCH  11  22
ATOM     22  C   UNL     1      -2.941  12.763  20.630  0.00  0.00    +0.000 A 
ATOM     23  N   UNL     1      -4.013  12.774  19.784  0.00  0.00    +0.000 NA
ATOM     24  C   UNL     1      -5.247  12.648  20.337  0.00  0.00    +0.000 A 
ATOM     25  C   UNL     1      -5.475  12.557  21.697  0.00  0.00    +0.000 A 
ATOM     26 CL   UNL     1      -7.065  12.367  22.316  0.00  0.00    +0.000 Cl
ATOM     27  C   UNL     1      -4.391  12.619  22.556  0.00  0.00    +0.000 A 
ATOM     28  C   UNL     1      -3.105  12.738  22.028  0.00  0.00    +0.000 A 
ATOM     29 CL   UNL     1      -1.804  13.003  23.137  0.00  0.00    +0.000 Cl
ENDBRANCH  11  22
TORSDOF 2
ENDMDL
MODEL 9
REMARK VINA RESULT:      -7.8      4.640      8.792
REMARK  Name = 
REMARK  2 active torsions:
REMARK  status: ('A' for Active; 'I' for Inactive)
REMARK    1  A    between atoms: C_9  and  C_10
REMARK    2  A    between atoms: N_21  and  C_22
REMARK                            x       y       z     vdW  Elec       q    Type
REMARK                         _______ _______ _______ _____ _____    ______ ____
ROOT
ATOM      1  O   UNL     1      -0.758  14.217  19.227  0.00  0.00    +0.000 OA
ATOM      2  C   UNL     1      -0.327  13.068  19.293  0.00  0.00    +0.000 A 
ATOM      3  C   UNL     1      -1.144  11.974  18.736  0.00  0.00    +0.000 A 
ATOM      4  C   UNL     1      -2.408  12.256  18.203  0.00  0.00    +0.000 A 
ATOM      5  C   UNL     1      -3.204  11.225  17.713  0.00  0.00    +0.000 A 
ATOM      6  C   UNL     1      -2.770   9.907  17.821  0.00  0.00    +0.000 A 
ATOM      7  C   UNL     1      -1.517   9.625  18.372  0.00  0.00    +0.000 A 
ATOM      8  C   UNL     1      -0.661  10.669  18.753  0.00  0.00    +0.000 A 
ATOM      9  C   UNL     1       0.761  10.496  19.135  0.00  0.00    +0.000 A 
ATOM     10  N   UNL     1       1.458  11.468  19.644  0.00  0.00    +0.000 NA
ATOM     11  N   UNL     1       0.890  12.697  19.844  0.00  0.00    +0.000 N 
ENDROOT
BRANCH   9  12
ATOM     12  C   UNL     1       1.500   9.212  18.946  0.00  0.00    +0.000 A 
ATOM     13  C   UNL     1       2.287   8.922  17.825  0.00  0.00    +0.000 A 
ATOM     14  C   UNL     1       2.874   7.658  17.690  0.00  0.00    +0.000 A 
ATOM     15  C   UNL     1       2.729   6.714  18.705  0.00  0.00    +0.000 A 
ATOM     16  C   UNL     1       2.077   7.063  19.878  0.00  0.00    +0.000 A 
ATOM     17  C   UNL     1       1.443   8.290  19.998  0.00  0.00    +0.000 A 
ATOM     18  O   UNL     1       2.036   6.236  20.966  0.00  0.00    +0.000 OA
ATOM     19  C   UNL     1       1.833   4.911  20.498  0.00  0.00    +0.000 C 
ATOM     20  C   UNL     1       2.869   4.488  19.460  0.00  0.00    +0.000 C 
ATOM     21  O   UNL     1       3.239   5.468  18.481  0.00  0.00    +0.000 OA
ENDBRANCH   9  12
BRANCH  11  22
ATOM     22  C   UNL     1       1.792  13.689  20.333  0.00  0.00    +0.000 A 
ATOM     23  N   UNL     1       1.613  14.130  21.614  0.00  0.00    +0.000 NA
ATOM     24  C   UNL     1       2.543  14.980  22.119  0.00  0.00    +0.000 A 
ATOM     25  C   UNL     1       3.624  15.454  21.398  0.00  0.00    +0.000 A 
ATOM     26 CL   UNL     1       4.775  16.503  22.120  0.00  0.00    +0.000 Cl
ATOM     27  C   UNL     1       3.762  15.063  20.077  0.00  0.00    +0.000 A 
ATOM     28  C   UNL     1       2.833  14.182  19.524  0.00  0.00    +0.000 A 
ATOM     29 CL   UNL     1       2.936  13.872  17.824  0.00  0.00    +0.000 Cl
ENDBRANCH  11  22
TORSDOF 2
ENDMDL
