MODEL 1
REMARK VINA RESULT:      -8.8      0.000      0.000
REMARK  Name = 
REMARK  6 active torsions:
REMARK  status: ('A' for Active; 'I' for Inactive)
REMARK    1  A    between atoms: C_2  and  C_3
REMARK    2  A    between atoms: C_3  and  S_4
REMARK    3  A    between atoms: S_4  and  C_5
REMARK    4  A    between atoms: N_17  and  C_18
REMARK    5  A    between atoms: C_18  and  C_19
REMARK    6  A    between atoms: C_19  and  C_20
REMARK                            x       y       z     vdW  Elec       q    Type
REMARK                         _______ _______ _______ _____ _____    ______ ____
ROOT
ATOM      1  C   UNL     1       7.805   5.865  18.482  0.00  0.00    +0.000 C 
ENDROOT
BRANCH   1   3
ATOM      2  O   UNL     1       7.131   7.596  16.936  0.00  0.00    +0.000 OA
ATOM      3  C   UNL     1       7.764   7.286  17.941  0.00  0.00    +0.000 C 
ATOM      4  N   UNL     1       8.476   8.199  18.694  0.00  0.00    +0.000 N 
ATOM      5  H   UNL     1       9.211   7.831  19.288  0.00  0.00    +0.000 HD
BRANCH   4   6
ATOM      6  C   UNL     1       8.606   9.587  18.278  0.00  0.00    +0.000 C 
BRANCH   6   7
ATOM      7  C   UNL     1       9.416  10.440  19.262  0.00  0.00    +0.000 C 
BRANCH   7   8
ATOM      8  C   UNL     1       9.860  11.745  18.644  0.00  0.00    +0.000 A 
ATOM      9  C   UNL     1       9.200  12.940  18.965  0.00  0.00    +0.000 A 
ATOM     10  C   UNL     1       9.597  14.146  18.381  0.00  0.00    +0.000 A 
ATOM     11  C   UNL     1      10.653  14.161  17.473  0.00  0.00    +0.000 A 
ATOM     12 CL   UNL     1      11.137  15.642  16.746  0.00  0.00    +0.000 Cl
ATOM     13  C   UNL     1      11.319  12.980  17.147  0.00  0.00    +0.000 A 
ATOM     14  C   UNL     1      10.922  11.775  17.730  0.00  0.00    +0.000 A 
ENDBRANCH   7   8
ENDBRANCH   6   7
ENDBRANCH   4   6
ENDBRANCH   1   3
BRANCH   1  15
ATOM     15  S   UNL     1       6.273   5.439  19.343  0.00  0.00    +0.000 S 
BRANCH  15  16
ATOM     16  C   UNL     1       5.468   4.527  18.118  0.00  0.00    +0.000 A 
ATOM     17  N   UNL     1       5.994   4.154  16.969  0.00  0.00    +0.000 NA
ATOM     18  N   UNL     1       4.981   3.406  16.343  0.00  0.00    +0.000 N 
ATOM     19  C   UNL     1       3.901   3.299  17.133  0.00  0.00    +0.000 A 
ATOM     20  N   UNL     1       2.740   2.715  17.191  0.00  0.00    +0.000 NA
ATOM     21  C   UNL     1       2.234   3.145  18.414  0.00  0.00    +0.000 A 
ATOM     22  C   UNL     1       0.999   2.857  19.015  0.00  0.00    +0.000 A 
ATOM     23  C   UNL     1       0.704   3.425  20.262  0.00  0.00    +0.000 A 
ATOM     24  C   UNL     1       1.621   4.259  20.907  0.00  0.00    +0.000 A 
ATOM     25  C   UNL     1       2.864   4.553  20.338  0.00  0.00    +0.000 A 
ATOM     26  C   UNL     1       3.136   3.981  19.092  0.00  0.00    +0.000 A 
ATOM     27  N   UNL     1       4.189   4.022  18.236  0.00  0.00    +0.000 N 
ATOM     28  H   UNL     1       5.159   2.820  15.529  0.00  0.00    +0.000 HD
ENDBRANCH  15  16
ENDBRANCH   1  15
TORSDOF 6
ENDMDL
MODEL 2
REMARK VINA RESULT:      -8.2      1.929      2.569
REMARK  Name = 
REMARK  6 active torsions:
REMARK  status: ('A' for Active; 'I' for Inactive)
REMARK    1  A    between atoms: C_2  and  C_3
REMARK    2  A    between atoms: C_3  and  S_4
REMARK    3  A    between atoms: S_4  and  C_5
REMARK    4  A    between atoms: N_17  and  C_18
REMARK    5  A    between atoms: C_18  and  C_19
REMARK    6  A    between atoms: C_19  and  C_20
REMARK                            x       y       z     vdW  Elec       q    Type
REMARK                         _______ _______ _______ _____ _____    ______ ____
ROOT
ATOM      1  C   UNL     1       7.380   4.696  17.074  0.00  0.00    +0.000 C 
ENDROOT
BRANCH   1   3
ATOM      2  O   UNL     1       7.148   6.073  19.047  0.00  0.00    +0.000 OA
ATOM      3  C   UNL     1       7.392   6.007  17.845  0.00  0.00    +0.000 C 
ATOM      4  N   UNL     1       7.726   7.110  17.084  0.00  0.00    +0.000 N 
ATOM      5  H   UNL     1       7.591   7.033  16.081  0.00  0.00    +0.000 HD
BRANCH   4   6
ATOM      6  C   UNL     1       7.711   8.451  17.644  0.00  0.00    +0.000 C 
BRANCH   6   7
ATOM      7  C   UNL     1       8.794   8.677  18.705  0.00  0.00    +0.000 C 
BRANCH   7   8
ATOM      8  C   UNL     1       9.068  10.145  18.929  0.00  0.00    +0.000 A 
ATOM      9  C   UNL     1       8.832  11.074  17.905  0.00  0.00    +0.000 A 
ATOM     10  C   UNL     1       9.102  12.430  18.103  0.00  0.00    +0.000 A 
ATOM     11  C   UNL     1       9.610  12.863  19.326  0.00  0.00    +0.000 A 
ATOM     12 CL   UNL     1       9.952  14.531  19.569  0.00  0.00    +0.000 Cl
ATOM     13  C   UNL     1       9.848  11.951  20.353  0.00  0.00    +0.000 A 
ATOM     14  C   UNL     1       9.579  10.595  20.155  0.00  0.00    +0.000 A 
ENDBRANCH   7   8
ENDBRANCH   6   7
ENDBRANCH   4   6
ENDBRANCH   1   3
BRANCH   1  15
ATOM     15  S   UNL     1       6.028   4.645  15.874  0.00  0.00    +0.000 S 
BRANCH  15  16
ATOM     16  C   UNL     1       4.851   5.612  16.687  0.00  0.00    +0.000 A 
ATOM     17  N   UNL     1       4.732   6.920  16.589  0.00  0.00    +0.000 NA
ATOM     18  N   UNL     1       3.618   7.234  17.387  0.00  0.00    +0.000 N 
ATOM     19  C   UNL     1       3.065   6.125  17.903  0.00  0.00    +0.000 A 
ATOM     20  N   UNL     1       2.040   5.734  18.603  0.00  0.00    +0.000 NA
ATOM     21  C   UNL     1       2.220   4.356  18.677  0.00  0.00    +0.000 A 
ATOM     22  C   UNL     1       1.435   3.391  19.327  0.00  0.00    +0.000 A 
ATOM     23  C   UNL     1       1.831   2.047  19.271  0.00  0.00    +0.000 A 
ATOM     24  C   UNL     1       2.981   1.664  18.577  0.00  0.00    +0.000 A 
ATOM     25  C   UNL     1       3.775   2.602  17.909  0.00  0.00    +0.000 A 
ATOM     26  C   UNL     1       3.366   3.936  17.982  0.00  0.00    +0.000 A 
ATOM     27  N   UNL     1       3.849   5.107  17.490  0.00  0.00    +0.000 N 
ATOM     28  H   UNL     1       3.160   8.143  17.352  0.00  0.00    +0.000 HD
ENDBRANCH  15  16
ENDBRANCH   1  15
TORSDOF 6
ENDMDL
MODEL 3
REMARK VINA RESULT:      -8.1      1.956      2.610
REMARK  Name = 
REMARK  6 active torsions:
REMARK  status: ('A' for Active; 'I' for Inactive)
REMARK    1  A    between atoms: C_2  and  C_3
REMARK    2  A    between atoms: C_3  and  S_4
REMARK    3  A    between atoms: S_4  and  C_5
REMARK    4  A    between atoms: N_17  and  C_18
REMARK    5  A    between atoms: C_18  and  C_19
REMARK    6  A    between atoms: C_19  and  C_20
REMARK                            x       y       z     vdW  Elec       q    Type
REMARK                         _______ _______ _______ _____ _____    ______ ____
ROOT
ATOM      1  C   UNL     1       6.489   4.776  17.255  0.00  0.00    +0.000 C 
ENDROOT
BRANCH   1   3
ATOM      2  O   UNL     1       7.749   6.157  15.721  0.00  0.00    +0.000 OA
ATOM      3  C   UNL     1       7.201   6.046  16.815  0.00  0.00    +0.000 C 
ATOM      4  N   UNL     1       7.154   7.071  17.740  0.00  0.00    +0.000 N 
ATOM      5  H   UNL     1       6.986   6.811  18.705  0.00  0.00    +0.000 HD
BRANCH   4   6
ATOM      6  C   UNL     1       7.847   8.329  17.514  0.00  0.00    +0.000 C 
BRANCH   6   7
ATOM      7  C   UNL     1       8.633   8.816  18.737  0.00  0.00    +0.000 C 
BRANCH   7   8
ATOM      8  C   UNL     1       9.016  10.272  18.620  0.00  0.00    +0.000 A 
ATOM      9  C   UNL     1       8.314  11.121  17.752  0.00  0.00    +0.000 A 
ATOM     10  C   UNL     1       8.678  12.464  17.627  0.00  0.00    +0.000 A 
ATOM     11  C   UNL     1       9.747  12.962  18.367  0.00  0.00    +0.000 A 
ATOM     12 CL   UNL     1      10.204  14.613  18.208  0.00  0.00    +0.000 Cl
ATOM     13  C   UNL     1      10.453  12.130  19.234  0.00  0.00    +0.000 A 
ATOM     14  C   UNL     1      10.089  10.788  19.359  0.00  0.00    +0.000 A 
ENDBRANCH   7   8
ENDBRANCH   6   7
ENDBRANCH   4   6
ENDBRANCH   1   3
BRANCH   1  15
ATOM     15  S   UNL     1       4.853   4.638  16.497  0.00  0.00    +0.000 S 
BRANCH  15  16
ATOM     16  C   UNL     1       3.950   5.709  17.505  0.00  0.00    +0.000 A 
ATOM     17  N   UNL     1       3.657   6.962  17.225  0.00  0.00    +0.000 NA
ATOM     18  N   UNL     1       2.881   7.397  18.313  0.00  0.00    +0.000 N 
ATOM     19  C   UNL     1       2.679   6.401  19.190  0.00  0.00    +0.000 A 
ATOM     20  N   UNL     1       2.028   6.127  20.283  0.00  0.00    +0.000 NA
ATOM     21  C   UNL     1       2.375   4.803  20.531  0.00  0.00    +0.000 A 
ATOM     22  C   UNL     1       1.992   3.967  21.592  0.00  0.00    +0.000 A 
ATOM     23  C   UNL     1       2.488   2.657  21.635  0.00  0.00    +0.000 A 
ATOM     24  C   UNL     1       3.344   2.179  20.640  0.00  0.00    +0.000 A 
ATOM     25  C   UNL     1       3.732   2.985  19.564  0.00  0.00    +0.000 A 
ATOM     26  C   UNL     1       3.231   4.289  19.543  0.00  0.00    +0.000 A 
ATOM     27  N   UNL     1       3.369   5.347  18.703  0.00  0.00    +0.000 N 
ATOM     28  H   UNL     1       2.342   8.261  18.290  0.00  0.00    +0.000 HD
ENDBRANCH  15  16
ENDBRANCH   1  15
TORSDOF 6
ENDMDL
MODEL 4
REMARK VINA RESULT:      -8.0      1.694      2.016
REMARK  Name = 
REMARK  6 active torsions:
REMARK  status: ('A' for Active; 'I' for Inactive)
REMARK    1  A    between atoms: C_2  and  C_3
REMARK    2  A    between atoms: C_3  and  S_4
REMARK    3  A    between atoms: S_4  and  C_5
REMARK    4  A    between atoms: N_17  and  C_18
REMARK    5  A    between atoms: C_18  and  C_19
REMARK    6  A    between atoms: C_19  and  C_20
REMARK                            x       y       z     vdW  Elec       q    Type
REMARK                         _______ _______ _______ _____ _____    ______ ____
ROOT
ATOM      1  C   UNL     1       6.911   6.478  16.872  0.00  0.00    +0.000 C 
ENDROOT
BRANCH   1   3
ATOM      2  O   UNL     1       8.187   6.573  18.923  0.00  0.00    +0.000 OA
ATOM      3  C   UNL     1       7.741   7.167  17.945  0.00  0.00    +0.000 C 
ATOM      4  N   UNL     1       7.973   8.508  17.709  0.00  0.00    +0.000 N 
ATOM      5  H   UNL     1       7.326   8.983  17.089  0.00  0.00    +0.000 HD
BRANCH   4   6
ATOM      6  C   UNL     1       8.684   9.336  18.670  0.00  0.00    +0.000 C 
BRANCH   6   7
ATOM      7  C   UNL     1       9.286  10.602  18.050  0.00  0.00    +0.000 C 
BRANCH   7   8
ATOM      8  C   UNL     1       9.500  11.687  19.078  0.00  0.00    +0.000 A 
ATOM      9  C   UNL     1       9.686  13.018  18.675  0.00  0.00    +0.000 A 
ATOM     10  C   UNL     1       9.902  14.021  19.623  0.00  0.00    +0.000 A 
ATOM     11  C   UNL     1       9.936  13.697  20.977  0.00  0.00    +0.000 A 
ATOM     12 CL   UNL     1      10.213  14.929  22.145  0.00  0.00    +0.000 Cl
ATOM     13  C   UNL     1       9.752  12.379  21.393  0.00  0.00    +0.000 A 
ATOM     14  C   UNL     1       9.535  11.376  20.445  0.00  0.00    +0.000 A 
ENDBRANCH   7   8
ENDBRANCH   6   7
ENDBRANCH   4   6
ENDBRANCH   1   3
BRANCH   1  15
ATOM     15  S   UNL     1       5.160   6.423  17.324  0.00  0.00    +0.000 S 
BRANCH  15  16
ATOM     16  C   UNL     1       4.843   4.736  17.145  0.00  0.00    +0.000 A 
ATOM     17  N   UNL     1       5.472   3.920  16.324  0.00  0.00    +0.000 NA
ATOM     18  N   UNL     1       4.900   2.660  16.570  0.00  0.00    +0.000 N 
ATOM     19  C   UNL     1       3.989   2.727  17.554  0.00  0.00    +0.000 A 
ATOM     20  N   UNL     1       3.215   1.968  18.274  0.00  0.00    +0.000 NA
ATOM     21  C   UNL     1       2.579   2.877  19.113  0.00  0.00    +0.000 A 
ATOM     22  C   UNL     1       1.610   2.646  20.102  0.00  0.00    +0.000 A 
ATOM     23  C   UNL     1       1.101   3.738  20.818  0.00  0.00    +0.000 A 
ATOM     24  C   UNL     1       1.548   5.037  20.566  0.00  0.00    +0.000 A 
ATOM     25  C   UNL     1       2.522   5.295  19.596  0.00  0.00    +0.000 A 
ATOM     26  C   UNL     1       3.013   4.194  18.889  0.00  0.00    +0.000 A 
ATOM     27  N   UNL     1       3.929   4.030  17.900  0.00  0.00    +0.000 N 
ATOM     28  H   UNL     1       5.316   1.795  16.229  0.00  0.00    +0.000 HD
ENDBRANCH  15  16
ENDBRANCH   1  15
TORSDOF 6
ENDMDL
MODEL 5
REMARK VINA RESULT:      -8.0      2.294      3.059
REMARK  Name = 
REMARK  6 active torsions:
REMARK  status: ('A' for Active; 'I' for Inactive)
REMARK    1  A    between atoms: C_2  and  C_3
REMARK    2  A    between atoms: C_3  and  S_4
REMARK    3  A    between atoms: S_4  and  C_5
REMARK    4  A    between atoms: N_17  and  C_18
REMARK    5  A    between atoms: C_18  and  C_19
REMARK    6  A    between atoms: C_19  and  C_20
REMARK                            x       y       z     vdW  Elec       q    Type
REMARK                         _______ _______ _______ _____ _____    ______ ____
ROOT
ATOM      1  C   UNL     1       7.102   4.787  16.976  0.00  0.00    +0.000 C 
ENDROOT
BRANCH   1   3
ATOM      2  O   UNL     1       7.298   6.103  18.994  0.00  0.00    +0.000 OA
ATOM      3  C   UNL     1       7.275   6.075  17.767  0.00  0.00    +0.000 C 
ATOM      4  N   UNL     1       7.431   7.204  16.985  0.00  0.00    +0.000 N 
ATOM      5  H   UNL     1       7.082   7.155  16.034  0.00  0.00    +0.000 HD
BRANCH   4   6
ATOM      6  C   UNL     1       7.532   8.528  17.577  0.00  0.00    +0.000 C 
BRANCH   6   7
ATOM      7  C   UNL     1       8.710   8.669  18.548  0.00  0.00    +0.000 C 
BRANCH   7   8
ATOM      8  C   UNL     1       9.034  10.116  18.836  0.00  0.00    +0.000 A 
ATOM      9  C   UNL     1       9.565  10.488  20.080  0.00  0.00    +0.000 A 
ATOM     10  C   UNL     1       9.849  11.828  20.356  0.00  0.00    +0.000 A 
ATOM     11  C   UNL     1       9.600  12.801  19.391  0.00  0.00    +0.000 A 
ATOM     12 CL   UNL     1       9.940  14.452  19.731  0.00  0.00    +0.000 Cl
ATOM     13  C   UNL     1       9.075  12.445  18.149  0.00  0.00    +0.000 A 
ATOM     14  C   UNL     1       8.791  11.105  17.873  0.00  0.00    +0.000 A 
ENDBRANCH   7   8
ENDBRANCH   6   7
ENDBRANCH   4   6
ENDBRANCH   1   3
BRANCH   1  15
ATOM     15  S   UNL     1       5.398   4.585  16.404  0.00  0.00    +0.000 S 
BRANCH  15  16
ATOM     16  C   UNL     1       4.615   4.186  17.889  0.00  0.00    +0.000 A 
ATOM     17  N   UNL     1       4.767   3.063  18.559  0.00  0.00    +0.000 NA
ATOM     18  N   UNL     1       3.971   3.225  19.706  0.00  0.00    +0.000 N 
ATOM     19  C   UNL     1       3.404   4.441  19.733  0.00  0.00    +0.000 A 
ATOM     20  N   UNL     1       2.677   5.206  20.495  0.00  0.00    +0.000 NA
ATOM     21  C   UNL     1       2.548   6.367  19.741  0.00  0.00    +0.000 A 
ATOM     22  C   UNL     1       1.849   7.548  20.038  0.00  0.00    +0.000 A 
ATOM     23  C   UNL     1       1.852   8.591  19.102  0.00  0.00    +0.000 A 
ATOM     24  C   UNL     1       2.542   8.471  17.893  0.00  0.00    +0.000 A 
ATOM     25  C   UNL     1       3.256   7.312  17.575  0.00  0.00    +0.000 A 
ATOM     26  C   UNL     1       3.236   6.281  18.519  0.00  0.00    +0.000 A 
ATOM     27  N   UNL     1       3.781   5.039  18.583  0.00  0.00    +0.000 N 
ATOM     28  H   UNL     1       4.040   2.605  20.511  0.00  0.00    +0.000 HD
ENDBRANCH  15  16
ENDBRANCH   1  15
TORSDOF 6
ENDMDL
MODEL 6
REMARK VINA RESULT:      -7.9      1.800      2.172
REMARK  Name = 
REMARK  6 active torsions:
REMARK  status: ('A' for Active; 'I' for Inactive)
REMARK    1  A    between atoms: C_2  and  C_3
REMARK    2  A    between atoms: C_3  and  S_4
REMARK    3  A    between atoms: S_4  and  C_5
REMARK    4  A    between atoms: N_17  and  C_18
REMARK    5  A    between atoms: C_18  and  C_19
REMARK    6  A    between atoms: C_19  and  C_20
REMARK                            x       y       z     vdW  Elec       q    Type
REMARK                         _______ _______ _______ _____ _____    ______ ____
ROOT
ATOM      1  C   UNL     1       6.183   7.082  16.567  0.00  0.00    +0.000 C 
ENDROOT
BRANCH   1   3
ATOM      2  O   UNL     1       7.812   6.607  18.289  0.00  0.00    +0.000 OA
ATOM      3  C   UNL     1       7.284   7.438  17.554  0.00  0.00    +0.000 C 
ATOM      4  N   UNL     1       7.657   8.768  17.533  0.00  0.00    +0.000 N 
ATOM      5  H   UNL     1       6.982   9.428  17.163  0.00  0.00    +0.000 HD
BRANCH   4   6
ATOM      6  C   UNL     1       8.640   9.295  18.466  0.00  0.00    +0.000 C 
BRANCH   6   7
ATOM      7  C   UNL     1       9.284  10.603  17.991  0.00  0.00    +0.000 C 
BRANCH   7   8
ATOM      8  C   UNL     1       9.389  11.617  19.106  0.00  0.00    +0.000 A 
ATOM      9  C   UNL     1       9.549  11.195  20.434  0.00  0.00    +0.000 A 
ATOM     10  C   UNL     1       9.628  12.129  21.469  0.00  0.00    +0.000 A 
ATOM     11  C   UNL     1       9.546  13.489  21.181  0.00  0.00    +0.000 A 
ATOM     12 CL   UNL     1       9.634  14.642  22.455  0.00  0.00    +0.000 Cl
ATOM     13  C   UNL     1       9.389  13.924  19.865  0.00  0.00    +0.000 A 
ATOM     14  C   UNL     1       9.309  12.989  18.830  0.00  0.00    +0.000 A 
ENDBRANCH   7   8
ENDBRANCH   6   7
ENDBRANCH   4   6
ENDBRANCH   1   3
BRANCH   1  15
ATOM     15  S   UNL     1       4.637   6.681  17.415  0.00  0.00    +0.000 S 
BRANCH  15  16
ATOM     16  C   UNL     1       4.621   4.964  17.241  0.00  0.00    +0.000 A 
ATOM     17  N   UNL     1       5.397   4.267  16.438  0.00  0.00    +0.000 NA
ATOM     18  N   UNL     1       5.047   2.927  16.683  0.00  0.00    +0.000 N 
ATOM     19  C   UNL     1       4.120   2.839  17.649  0.00  0.00    +0.000 A 
ATOM     20  N   UNL     1       3.476   1.960  18.361  0.00  0.00    +0.000 NA
ATOM     21  C   UNL     1       2.676   2.748  19.182  0.00  0.00    +0.000 A 
ATOM     22  C   UNL     1       1.743   2.357  20.155  0.00  0.00    +0.000 A 
ATOM     23  C   UNL     1       1.039   3.346  20.855  0.00  0.00    +0.000 A 
ATOM     24  C   UNL     1       1.259   4.702  20.601  0.00  0.00    +0.000 A 
ATOM     25  C   UNL     1       2.192   5.122  19.647  0.00  0.00    +0.000 A 
ATOM     26  C   UNL     1       2.879   4.120  18.957  0.00  0.00    +0.000 A 
ATOM     27  N   UNL     1       3.828   4.114  17.985  0.00  0.00    +0.000 N 
ATOM     28  H   UNL     1       5.613   2.146  16.355  0.00  0.00    +0.000 HD
ENDBRANCH  15  16
ENDBRANCH   1  15
TORSDOF 6
ENDMDL
MODEL 7
REMARK VINA RESULT:      -7.9      2.123      2.742
REMARK  Name = 
REMARK  6 active torsions:
REMARK  status: ('A' for Active; 'I' for Inactive)
REMARK    1  A    between atoms: C_2  and  C_3
REMARK    2  A    between atoms: C_3  and  S_4
REMARK    3  A    between atoms: S_4  and  C_5
REMARK    4  A    between atoms: N_17  and  C_18
REMARK    5  A    between atoms: C_18  and  C_19
REMARK    6  A    between atoms: C_19  and  C_20
REMARK                            x       y       z     vdW  Elec       q    Type
REMARK                         _______ _______ _______ _____ _____    ______ ____
ROOT
ATOM      1  C   UNL     1       7.401   4.431  16.994  0.00  0.00    +0.000 C 
ENDROOT
BRANCH   1   3
ATOM      2  O   UNL     1       7.190   5.412  19.193  0.00  0.00    +0.000 OA
ATOM      3  C   UNL     1       7.457   5.566  18.005  0.00  0.00    +0.000 C 
ATOM      4  N   UNL     1       7.860   6.777  17.475  0.00  0.00    +0.000 N 
ATOM      5  H   UNL     1       7.744   6.902  16.476  0.00  0.00    +0.000 HD
BRANCH   4   6
ATOM      6  C   UNL     1       7.896   7.984  18.285  0.00  0.00    +0.000 C 
BRANCH   6   7
ATOM      7  C   UNL     1       8.185   9.251  17.470  0.00  0.00    +0.000 C 
BRANCH   7   8
ATOM      8  C   UNL     1       8.752  10.357  18.328  0.00  0.00    +0.000 A 
ATOM      9  C   UNL     1       8.786  11.676  17.852  0.00  0.00    +0.000 A 
ATOM     10  C   UNL     1       9.326  12.698  18.636  0.00  0.00    +0.000 A 
ATOM     11  C   UNL     1       9.838  12.405  19.897  0.00  0.00    +0.000 A 
ATOM     12 CL   UNL     1      10.514  13.660  20.861  0.00  0.00    +0.000 Cl
ATOM     13  C   UNL     1       9.810  11.099  20.385  0.00  0.00    +0.000 A 
ATOM     14  C   UNL     1       9.269  10.077  19.601  0.00  0.00    +0.000 A 
ENDBRANCH   7   8
ENDBRANCH   6   7
ENDBRANCH   4   6
ENDBRANCH   1   3
BRANCH   1  15
ATOM     15  S   UNL     1       5.694   3.992  16.586  0.00  0.00    +0.000 S 
BRANCH  15  16
ATOM     16  C   UNL     1       4.874   5.425  17.088  0.00  0.00    +0.000 A 
ATOM     17  N   UNL     1       4.933   6.594  16.485  0.00  0.00    +0.000 NA
ATOM     18  N   UNL     1       4.073   7.420  17.229  0.00  0.00    +0.000 N 
ATOM     19  C   UNL     1       3.481   6.734  18.219  0.00  0.00    +0.000 A 
ATOM     20  N   UNL     1       2.580   6.867  19.149  0.00  0.00    +0.000 NA
ATOM     21  C   UNL     1       2.563   5.612  19.750  0.00  0.00    +0.000 A 
ATOM     22  C   UNL     1       1.799   5.156  20.835  0.00  0.00    +0.000 A 
ATOM     23  C   UNL     1       1.968   3.836  21.276  0.00  0.00    +0.000 A 
ATOM     24  C   UNL     1       2.875   2.979  20.648  0.00  0.00    +0.000 A 
ATOM     25  C   UNL     1       3.642   3.402  19.557  0.00  0.00    +0.000 A 
ATOM     26  C   UNL     1       3.461   4.722  19.137  0.00  0.00    +0.000 A 
ATOM     27  N   UNL     1       3.999   5.489  18.153  0.00  0.00    +0.000 N 
ATOM     28  H   UNL     1       3.758   8.328  16.890  0.00  0.00    +0.000 HD
ENDBRANCH  15  16
ENDBRANCH   1  15
TORSDOF 6
ENDMDL
MODEL 8
REMARK VINA RESULT:      -7.9      4.859      6.320
REMARK  Name = 
REMARK  6 active torsions:
REMARK  status: ('A' for Active; 'I' for Inactive)
REMARK    1  A    between atoms: C_2  and  C_3
REMARK    2  A    between atoms: C_3  and  S_4
REMARK    3  A    between atoms: S_4  and  C_5
REMARK    4  A    between atoms: N_17  and  C_18
REMARK    5  A    between atoms: C_18  and  C_19
REMARK    6  A    between atoms: C_19  and  C_20
REMARK                            x       y       z     vdW  Elec       q    Type
REMARK                         _______ _______ _______ _____ _____    ______ ____
ROOT
ATOM      1  C   UNL     1       6.301   6.951  17.622  0.00  0.00    +0.000 C 
ENDROOT
BRANCH   1   3
ATOM      2  O   UNL     1       4.672   6.924  15.837  0.00  0.00    +0.000 OA
ATOM      3  C   UNL     1       4.907   7.090  17.031  0.00  0.00    +0.000 C 
ATOM      4  N   UNL     1       3.926   7.390  17.956  0.00  0.00    +0.000 N 
ATOM      5  H   UNL     1       4.229   7.822  18.822  0.00  0.00    +0.000 HD
BRANCH   4   6
ATOM      6  C   UNL     1       2.551   7.633  17.552  0.00  0.00    +0.000 C 
BRANCH   6   7
ATOM      7  C   UNL     1       2.095   9.077  17.791  0.00  0.00    +0.000 C 
BRANCH   7   8
ATOM      8  C   UNL     1       1.434   9.245  19.139  0.00  0.00    +0.000 A 
ATOM      9  C   UNL     1       1.593   8.267  20.132  0.00  0.00    +0.000 A 
ATOM     10  C   UNL     1       0.968   8.411  21.373  0.00  0.00    +0.000 A 
ATOM     11  C   UNL     1       0.178   9.530  21.624  0.00  0.00    +0.000 A 
ATOM     12 CL   UNL     1      -0.602   9.704  23.148  0.00  0.00    +0.000 Cl
ATOM     13  C   UNL     1       0.011  10.510  20.647  0.00  0.00    +0.000 A 
ATOM     14  C   UNL     1       0.637  10.367  19.406  0.00  0.00    +0.000 A 
ENDBRANCH   7   8
ENDBRANCH   6   7
ENDBRANCH   4   6
ENDBRANCH   1   3
BRANCH   1  15
ATOM     15  S   UNL     1       6.390   5.574  18.792  0.00  0.00    +0.000 S 
BRANCH  15  16
ATOM     16  C   UNL     1       5.561   4.351  17.900  0.00  0.00    +0.000 A 
ATOM     17  N   UNL     1       6.031   3.720  16.843  0.00  0.00    +0.000 NA
ATOM     18  N   UNL     1       5.024   2.800  16.504  0.00  0.00    +0.000 N 
ATOM     19  C   UNL     1       4.005   2.855  17.377  0.00  0.00    +0.000 A 
ATOM     20  N   UNL     1       2.885   2.260  17.669  0.00  0.00    +0.000 NA
ATOM     21  C   UNL     1       2.437   2.965  18.781  0.00  0.00    +0.000 A 
ATOM     22  C   UNL     1       1.262   2.792  19.529  0.00  0.00    +0.000 A 
ATOM     23  C   UNL     1       1.018   3.646  20.613  0.00  0.00    +0.000 A 
ATOM     24  C   UNL     1       1.925   4.650  20.957  0.00  0.00    +0.000 A 
ATOM     25  C   UNL     1       3.110   4.838  20.238  0.00  0.00    +0.000 A 
ATOM     26  C   UNL     1       3.332   3.980  19.157  0.00  0.00    +0.000 A 
ATOM     27  N   UNL     1       4.323   3.844  18.239  0.00  0.00    +0.000 N 
ATOM     28  H   UNL     1       5.181   2.034  15.851  0.00  0.00    +0.000 HD
ENDBRANCH  15  16
ENDBRANCH   1  15
TORSDOF 6
ENDMDL
MODEL 9
REMARK VINA RESULT:      -7.9      4.538      7.073
REMARK  Name = 
REMARK  6 active torsions:
REMARK  status: ('A' for Active; 'I' for Inactive)
REMARK    1  A    between atoms: C_2  and  C_3
REMARK    2  A    between atoms: C_3  and  S_4
REMARK    3  A    between atoms: S_4  and  C_5
REMARK    4  A    between atoms: N_17  and  C_18
REMARK    5  A    between atoms: C_18  and  C_19
REMARK    6  A    between atoms: C_19  and  C_20
REMARK                            x       y       z     vdW  Elec       q    Type
REMARK                         _______ _______ _______ _____ _____    ______ ____
ROOT
ATOM      1  C   UNL     1       1.335   4.638  19.862  0.00  0.00    +0.000 C 
ENDROOT
BRANCH   1   3
ATOM      2  O   UNL     1       2.244   2.404  19.702  0.00  0.00    +0.000 OA
ATOM      3  C   UNL     1       2.272   3.571  19.319  0.00  0.00    +0.000 C 
ATOM      4  N   UNL     1       3.136   4.020  18.340  0.00  0.00    +0.000 N 
ATOM      5  H   UNL     1       3.325   5.016  18.315  0.00  0.00    +0.000 HD
BRANCH   4   6
ATOM      6  C   UNL     1       4.151   3.150  17.766  0.00  0.00    +0.000 C 
BRANCH   6   7
ATOM      7  C   UNL     1       4.902   3.789  16.592  0.00  0.00    +0.000 C 
BRANCH   7   8
ATOM      8  C   UNL     1       5.770   4.942  17.037  0.00  0.00    +0.000 A 
ATOM      9  C   UNL     1       5.556   6.229  16.523  0.00  0.00    +0.000 A 
ATOM     10  C   UNL     1       6.370   7.294  16.919  0.00  0.00    +0.000 A 
ATOM     11  C   UNL     1       7.402   7.075  17.828  0.00  0.00    +0.000 A 
ATOM     12 CL   UNL     1       8.411   8.382  18.310  0.00  0.00    +0.000 Cl
ATOM     13  C   UNL     1       7.626   5.801  18.348  0.00  0.00    +0.000 A 
ATOM     14  C   UNL     1       6.812   4.736  17.952  0.00  0.00    +0.000 A 
ENDBRANCH   7   8
ENDBRANCH   6   7
ENDBRANCH   4   6
ENDBRANCH   1   3
BRANCH   1  15
ATOM     15  S   UNL     1       2.244   5.935  20.737  0.00  0.00    +0.000 S 
BRANCH  15  16
ATOM     16  C   UNL     1       2.157   7.213  19.580  0.00  0.00    +0.000 A 
ATOM     17  N   UNL     1       2.595   7.156  18.339  0.00  0.00    +0.000 NA
ATOM     18  N   UNL     1       2.262   8.406  17.789  0.00  0.00    +0.000 N 
ATOM     19  C   UNL     1       1.595   9.162  18.675  0.00  0.00    +0.000 A 
ATOM     20  N   UNL     1       0.973  10.301  18.773  0.00  0.00    +0.000 NA
ATOM     21  C   UNL     1       0.538  10.307  20.094  0.00  0.00    +0.000 A 
ATOM     22  C   UNL     1      -0.178  11.294  20.790  0.00  0.00    +0.000 A 
ATOM     23  C   UNL     1      -0.494  11.077  22.138  0.00  0.00    +0.000 A 
ATOM     24  C   UNL     1      -0.114   9.899  22.786  0.00  0.00    +0.000 A 
ATOM     25  C   UNL     1       0.588   8.893  22.115  0.00  0.00    +0.000 A 
ATOM     26  C   UNL     1       0.899   9.131  20.773  0.00  0.00    +0.000 A 
ATOM     27  N   UNL     1       1.549   8.431  19.809  0.00  0.00    +0.000 N 
ATOM     28  H   UNL     1       2.296   8.589  16.787  0.00  0.00    +0.000 HD
ENDBRANCH  15  16
ENDBRANCH   1  15
TORSDOF 6
ENDMDL
