MODEL 1
REMARK VINA RESULT:      -8.6      0.000      0.000
REMARK  Name = 
REMARK  8 active torsions:
REMARK  status: ('A' for Active; 'I' for Inactive)
REMARK    1  A    between atoms: C_1  and  S_2
REMARK    2  A    between atoms: S_2  and  C_5
REMARK    3  A    between atoms: C_5  and  C_6
REMARK    4  A    between atoms: N_14  and  C_15
REMARK    5  A    between atoms: C_15  and  C_16
REMARK    6  A    between atoms: N_18  and  C_19
REMARK    7  A    between atoms: C_22  and  O_23
REMARK    8  A    between atoms: O_23  and  C_24
REMARK                            x       y       z     vdW  Elec       q    Type
REMARK                         _______ _______ _______ _____ _____    ______ ____
ROOT
ATOM      1  C   UNL     1       2.408   7.437  19.226  0.00  0.00    +0.000 C 
ATOM      2  O   UNL     1       2.472   6.964  20.361  0.00  0.00    +0.000 OA
ATOM      3  N   UNL     1       1.752   8.609  18.882  0.00  0.00    +0.000 N 
ATOM      4  H   UNL     1       1.413   8.679  17.929  0.00  0.00    +0.000 HD
ENDROOT
BRANCH   3   5
ATOM      5  C   UNL     1       1.032   9.347  19.849  0.00  0.00    +0.000 A 
ATOM      6  C   UNL     1       0.953  10.741  19.809  0.00  0.00    +0.000 A 
ATOM      7  C   UNL     1       0.393  11.441  20.877  0.00  0.00    +0.000 A 
ATOM      8  C   UNL     1      -0.100  10.759  21.989  0.00  0.00    +0.000 A 
ATOM      9  C   UNL     1      -0.090   9.364  21.996  0.00  0.00    +0.000 A 
ATOM     10  C   UNL     1       0.449   8.658  20.913  0.00  0.00    +0.000 A 
BRANCH   8  11
ATOM     11  O   UNL     1      -0.504  11.567  23.011  0.00  0.00    +0.000 OA
BRANCH  11  12
ATOM     12  C   UNL     1      -1.517  12.531  22.756  0.00  0.00    +0.000 C 
ATOM     13  C   UNL     1      -1.267  13.821  23.534  0.00  0.00    +0.000 C 
ATOM     14  C   UNL     1      -2.636  14.362  23.920  0.00  0.00    +0.000 C 
ATOM     15  C   UNL     1      -3.646  13.256  23.629  0.00  0.00    +0.000 C 
ATOM     16  C   UNL     1      -2.826  12.011  23.345  0.00  0.00    +0.000 C 
ENDBRANCH  11  12
ENDBRANCH   8  11
ENDBRANCH   3   5
BRANCH   1  17
ATOM     17  C   UNL     1       3.101   6.723  18.094  0.00  0.00    +0.000 C 
BRANCH  17  26
ATOM     18  C   UNL     1       4.953   5.004  18.457  0.00  0.00    +0.000 A 
ATOM     19  N   UNL     1       5.040   3.692  18.548  0.00  0.00    +0.000 NA
ATOM     20  C   UNL     1       3.758   3.223  18.603  0.00  0.00    +0.000 A 
ATOM     21  C   UNL     1       3.315   1.897  18.717  0.00  0.00    +0.000 A 
ATOM     22  C   UNL     1       1.940   1.650  18.696  0.00  0.00    +0.000 A 
ATOM     23  C   UNL     1       1.031   2.702  18.565  0.00  0.00    +0.000 A 
ATOM     24  C   UNL     1       1.463   4.029  18.465  0.00  0.00    +0.000 A 
ATOM     25  C   UNL     1       2.846   4.261  18.496  0.00  0.00    +0.000 A 
ATOM     26  N   UNL     1       3.627   5.402  18.405  0.00  0.00    +0.000 N 
BRANCH  18  27
ATOM     27  C   UNL     1       6.151   5.881  18.411  0.00  0.00    +0.000 C 
BRANCH  27  29
ATOM     28  C   UNL     1       5.653   5.359  15.657  0.00  0.00    +0.000 C 
ATOM     29  S   UNL     1       6.966   5.637  16.830  0.00  0.00    +0.000 S 
ATOM     30  O   UNL     1       7.772   4.427  16.896  0.00  0.00    +0.000 OA
ATOM     31  O   UNL     1       7.584   6.899  16.465  0.00  0.00    +0.000 OA
ENDBRANCH  27  29
ENDBRANCH  18  27
ENDBRANCH  17  26
ENDBRANCH   1  17
TORSDOF 7
ENDMDL
MODEL 2
REMARK VINA RESULT:      -8.5      1.423      1.868
REMARK  Name = 
REMARK  8 active torsions:
REMARK  status: ('A' for Active; 'I' for Inactive)
REMARK    1  A    between atoms: C_1  and  S_2
REMARK    2  A    between atoms: S_2  and  C_5
REMARK    3  A    between atoms: C_5  and  C_6
REMARK    4  A    between atoms: N_14  and  C_15
REMARK    5  A    between atoms: C_15  and  C_16
REMARK    6  A    between atoms: N_18  and  C_19
REMARK    7  A    between atoms: C_22  and  O_23
REMARK    8  A    between atoms: O_23  and  C_24
REMARK                            x       y       z     vdW  Elec       q    Type
REMARK                         _______ _______ _______ _____ _____    ______ ____
ROOT
ATOM      1  C   UNL     1       2.530   7.745  18.332  0.00  0.00    +0.000 C 
ATOM      2  O   UNL     1       2.404   7.520  19.536  0.00  0.00    +0.000 OA
ATOM      3  N   UNL     1       2.015   8.845  17.663  0.00  0.00    +0.000 N 
ATOM      4  H   UNL     1       1.815   8.726  16.676  0.00  0.00    +0.000 HD
ENDROOT
BRANCH   3   5
ATOM      5  C   UNL     1       1.225   9.801  18.343  0.00  0.00    +0.000 A 
ATOM      6  C   UNL     1      -0.083   9.525  18.747  0.00  0.00    +0.000 A 
ATOM      7  C   UNL     1      -0.890  10.547  19.246  0.00  0.00    +0.000 A 
ATOM      8  C   UNL     1      -0.399  11.848  19.353  0.00  0.00    +0.000 A 
ATOM      9  C   UNL     1       0.930  12.107  19.021  0.00  0.00    +0.000 A 
ATOM     10  C   UNL     1       1.751  11.078  18.544  0.00  0.00    +0.000 A 
BRANCH   8  11
ATOM     11  O   UNL     1      -1.328  12.770  19.737  0.00  0.00    +0.000 OA
BRANCH  11  12
ATOM     12  C   UNL     1      -2.290  12.400  20.716  0.00  0.00    +0.000 C 
ATOM     13  C   UNL     1      -3.688  12.884  20.335  0.00  0.00    +0.000 C 
ATOM     14  C   UNL     1      -4.384  13.251  21.637  0.00  0.00    +0.000 C 
ATOM     15  C   UNL     1      -3.314  13.261  22.724  0.00  0.00    +0.000 C 
ATOM     16  C   UNL     1      -1.985  13.173  21.997  0.00  0.00    +0.000 C 
ENDBRANCH  11  12
ENDBRANCH   8  11
ENDBRANCH   3   5
BRANCH   1  17
ATOM     17  C   UNL     1       3.317   6.779  17.484  0.00  0.00    +0.000 C 
BRANCH  17  26
ATOM     18  C   UNL     1       5.023   5.147  18.457  0.00  0.00    +0.000 A 
ATOM     19  N   UNL     1       5.033   3.888  18.845  0.00  0.00    +0.000 NA
ATOM     20  C   UNL     1       3.733   3.469  18.831  0.00  0.00    +0.000 A 
ATOM     21  C   UNL     1       3.215   2.211  19.174  0.00  0.00    +0.000 A 
ATOM     22  C   UNL     1       1.842   1.994  19.027  0.00  0.00    +0.000 A 
ATOM     23  C   UNL     1       1.010   3.008  18.549  0.00  0.00    +0.000 A 
ATOM     24  C   UNL     1       1.515   4.271  18.218  0.00  0.00    +0.000 A 
ATOM     25  C   UNL     1       2.894   4.475  18.379  0.00  0.00    +0.000 A 
ATOM     26  N   UNL     1       3.735   5.551  18.144  0.00  0.00    +0.000 N 
BRANCH  18  27
ATOM     27  C   UNL     1       6.259   5.967  18.378  0.00  0.00    +0.000 C 
BRANCH  27  29
ATOM     28  C   UNL     1       5.914   4.924  15.751  0.00  0.00    +0.000 C 
ATOM     29  S   UNL     1       7.157   5.491  16.897  0.00  0.00    +0.000 S 
ATOM     30  O   UNL     1       8.024   4.365  17.212  0.00  0.00    +0.000 OA
ATOM     31  O   UNL     1       7.721   6.701  16.328  0.00  0.00    +0.000 OA
ENDBRANCH  27  29
ENDBRANCH  18  27
ENDBRANCH  17  26
ENDBRANCH   1  17
TORSDOF 7
ENDMDL
MODEL 3
REMARK VINA RESULT:      -8.4      2.305      3.837
REMARK  Name = 
REMARK  8 active torsions:
REMARK  status: ('A' for Active; 'I' for Inactive)
REMARK    1  A    between atoms: C_1  and  S_2
REMARK    2  A    between atoms: S_2  and  C_5
REMARK    3  A    between atoms: C_5  and  C_6
REMARK    4  A    between atoms: N_14  and  C_15
REMARK    5  A    between atoms: C_15  and  C_16
REMARK    6  A    between atoms: N_18  and  C_19
REMARK    7  A    between atoms: C_22  and  O_23
REMARK    8  A    between atoms: O_23  and  C_24
REMARK                            x       y       z     vdW  Elec       q    Type
REMARK                         _______ _______ _______ _____ _____    ______ ____
ROOT
ATOM      1  C   UNL     1       2.586   7.040  19.602  0.00  0.00    +0.000 C 
ATOM      2  O   UNL     1       2.423   7.673  18.558  0.00  0.00    +0.000 OA
ATOM      3  N   UNL     1       1.957   7.308  20.808  0.00  0.00    +0.000 N 
ATOM      4  H   UNL     1       2.447   7.027  21.650  0.00  0.00    +0.000 HD
ENDROOT
BRANCH   3   5
ATOM      5  C   UNL     1       1.086   8.414  20.941  0.00  0.00    +0.000 A 
ATOM      6  C   UNL     1       0.971   9.388  19.946  0.00  0.00    +0.000 A 
ATOM      7  C   UNL     1       0.247  10.554  20.190  0.00  0.00    +0.000 A 
ATOM      8  C   UNL     1      -0.375  10.756  21.422  0.00  0.00    +0.000 A 
ATOM      9  C   UNL     1      -0.324   9.751  22.387  0.00  0.00    +0.000 A 
ATOM     10  C   UNL     1       0.382   8.568  22.136  0.00  0.00    +0.000 A 
BRANCH   8  11
ATOM     11  O   UNL     1      -0.943  11.988  21.570  0.00  0.00    +0.000 OA
BRANCH  11  12
ATOM     12  C   UNL     1      -1.338  12.402  22.872  0.00  0.00    +0.000 C 
ATOM     13  C   UNL     1      -2.857  12.383  23.025  0.00  0.00    +0.000 C 
ATOM     14  C   UNL     1      -3.210  13.549  23.938  0.00  0.00    +0.000 C 
ATOM     15  C   UNL     1      -1.953  14.402  24.071  0.00  0.00    +0.000 C 
ATOM     16  C   UNL     1      -0.984  13.879  23.027  0.00  0.00    +0.000 C 
ENDBRANCH  11  12
ENDBRANCH   8  11
ENDBRANCH   3   5
BRANCH   1  17
ATOM     17  C   UNL     1       3.524   5.860  19.606  0.00  0.00    +0.000 C 
BRANCH  17  26
ATOM     18  C   UNL     1       2.882   4.375  17.630  0.00  0.00    +0.000 A 
ATOM     19  N   UNL     1       3.501   3.812  16.612  0.00  0.00    +0.000 NA
ATOM     20  C   UNL     1       4.768   4.324  16.600  0.00  0.00    +0.000 A 
ATOM     21  C   UNL     1       5.813   4.052  15.705  0.00  0.00    +0.000 A 
ATOM     22  C   UNL     1       7.053   4.657  15.925  0.00  0.00    +0.000 A 
ATOM     23  C   UNL     1       7.243   5.512  17.013  0.00  0.00    +0.000 A 
ATOM     24  C   UNL     1       6.202   5.801  17.903  0.00  0.00    +0.000 A 
ATOM     25  C   UNL     1       4.961   5.191  17.663  0.00  0.00    +0.000 A 
ATOM     26  N   UNL     1       3.740   5.218  18.317  0.00  0.00    +0.000 N 
BRANCH  18  27
ATOM     27  C   UNL     1       1.459   4.096  17.950  0.00  0.00    +0.000 C 
BRANCH  27  29
ATOM     28  C   UNL     1       1.100   3.413  20.691  0.00  0.00    +0.000 C 
ATOM     29  S   UNL     1       1.400   2.704  19.083  0.00  0.00    +0.000 S 
ATOM     30  O   UNL     1       2.707   2.063  19.113  0.00  0.00    +0.000 OA
ATOM     31  O   UNL     1       0.221   1.926  18.750  0.00  0.00    +0.000 OA
ENDBRANCH  27  29
ENDBRANCH  18  27
ENDBRANCH  17  26
ENDBRANCH   1  17
TORSDOF 7
ENDMDL
MODEL 4
REMARK VINA RESULT:      -8.4      1.242      1.662
REMARK  Name = 
REMARK  8 active torsions:
REMARK  status: ('A' for Active; 'I' for Inactive)
REMARK    1  A    between atoms: C_1  and  S_2
REMARK    2  A    between atoms: S_2  and  C_5
REMARK    3  A    between atoms: C_5  and  C_6
REMARK    4  A    between atoms: N_14  and  C_15
REMARK    5  A    between atoms: C_15  and  C_16
REMARK    6  A    between atoms: N_18  and  C_19
REMARK    7  A    between atoms: C_22  and  O_23
REMARK    8  A    between atoms: O_23  and  C_24
REMARK                            x       y       z     vdW  Elec       q    Type
REMARK                         _______ _______ _______ _____ _____    ______ ____
ROOT
ATOM      1  C   UNL     1       2.599   7.507  18.951  0.00  0.00    +0.000 C 
ATOM      2  O   UNL     1       1.941   7.753  17.940  0.00  0.00    +0.000 OA
ATOM      3  N   UNL     1       2.296   7.945  20.231  0.00  0.00    +0.000 N 
ATOM      4  H   UNL     1       3.073   8.048  20.875  0.00  0.00    +0.000 HD
ENDROOT
BRANCH   3   5
ATOM      5  C   UNL     1       1.187   8.792  20.463  0.00  0.00    +0.000 A 
ATOM      6  C   UNL     1       0.853   9.829  19.589  0.00  0.00    +0.000 A 
ATOM      7  C   UNL     1      -0.128  10.754  19.944  0.00  0.00    +0.000 A 
ATOM      8  C   UNL     1      -0.791  10.648  21.167  0.00  0.00    +0.000 A 
ATOM      9  C   UNL     1      -0.511   9.569  22.005  0.00  0.00    +0.000 A 
ATOM     10  C   UNL     1       0.457   8.625  21.640  0.00  0.00    +0.000 A 
BRANCH   8  11
ATOM     11  O   UNL     1      -1.634  11.685  21.441  0.00  0.00    +0.000 OA
BRANCH  11  12
ATOM     12  C   UNL     1      -1.684  12.187  22.770  0.00  0.00    +0.000 C 
ATOM     13  C   UNL     1      -3.107  12.575  23.166  0.00  0.00    +0.000 C 
ATOM     14  C   UNL     1      -2.984  13.791  24.073  0.00  0.00    +0.000 C 
ATOM     15  C   UNL     1      -1.542  14.278  23.965  0.00  0.00    +0.000 C 
ATOM     16  C   UNL     1      -0.933  13.516  22.803  0.00  0.00    +0.000 C 
ENDBRANCH  11  12
ENDBRANCH   8  11
ENDBRANCH   3   5
BRANCH   1  17
ATOM     17  C   UNL     1       3.832   6.647  18.834  0.00  0.00    +0.000 C 
BRANCH  17  26
ATOM     18  C   UNL     1       4.165   4.697  17.220  0.00  0.00    +0.000 A 
ATOM     19  N   UNL     1       3.571   3.548  16.967  0.00  0.00    +0.000 NA
ATOM     20  C   UNL     1       2.652   3.363  17.960  0.00  0.00    +0.000 A 
ATOM     21  C   UNL     1       1.774   2.285  18.150  0.00  0.00    +0.000 A 
ATOM     22  C   UNL     1       0.873   2.340  19.218  0.00  0.00    +0.000 A 
ATOM     23  C   UNL     1       0.851   3.444  20.072  0.00  0.00    +0.000 A 
ATOM     24  C   UNL     1       1.733   4.518  19.900  0.00  0.00    +0.000 A 
ATOM     25  C   UNL     1       2.636   4.443  18.828  0.00  0.00    +0.000 A 
ATOM     26  N   UNL     1       3.616   5.294  18.343  0.00  0.00    +0.000 N 
BRANCH  18  27
ATOM     27  C   UNL     1       5.261   5.231  16.372  0.00  0.00    +0.000 C 
BRANCH  27  29
ATOM     28  C   UNL     1       7.360   6.582  17.742  0.00  0.00    +0.000 C 
ATOM     29  S   UNL     1       6.817   4.964  17.229  0.00  0.00    +0.000 S 
ATOM     30  O   UNL     1       7.793   4.442  16.284  0.00  0.00    +0.000 OA
ATOM     31  O   UNL     1       6.519   4.226  18.443  0.00  0.00    +0.000 OA
ENDBRANCH  27  29
ENDBRANCH  18  27
ENDBRANCH  17  26
ENDBRANCH   1  17
TORSDOF 7
ENDMDL
MODEL 5
REMARK VINA RESULT:      -8.4      2.240      3.947
REMARK  Name = 
REMARK  8 active torsions:
REMARK  status: ('A' for Active; 'I' for Inactive)
REMARK    1  A    between atoms: C_1  and  S_2
REMARK    2  A    between atoms: S_2  and  C_5
REMARK    3  A    between atoms: C_5  and  C_6
REMARK    4  A    between atoms: N_14  and  C_15
REMARK    5  A    between atoms: C_15  and  C_16
REMARK    6  A    between atoms: N_18  and  C_19
REMARK    7  A    between atoms: C_22  and  O_23
REMARK    8  A    between atoms: O_23  and  C_24
REMARK                            x       y       z     vdW  Elec       q    Type
REMARK                         _______ _______ _______ _____ _____    ______ ____
ROOT
ATOM      1  C   UNL     1       2.739   7.188  17.935  0.00  0.00    +0.000 C 
ATOM      2  O   UNL     1       2.874   8.264  17.351  0.00  0.00    +0.000 OA
ATOM      3  N   UNL     1       2.091   7.009  19.147  0.00  0.00    +0.000 N 
ATOM      4  H   UNL     1       2.390   6.222  19.713  0.00  0.00    +0.000 HD
ENDROOT
BRANCH   3   5
ATOM      5  C   UNL     1       1.564   8.113  19.856  0.00  0.00    +0.000 A 
ATOM      6  C   UNL     1       1.161   9.283  19.209  0.00  0.00    +0.000 A 
ATOM      7  C   UNL     1       0.822  10.413  19.953  0.00  0.00    +0.000 A 
ATOM      8  C   UNL     1       0.873  10.383  21.346  0.00  0.00    +0.000 A 
ATOM      9  C   UNL     1       1.201   9.193  21.994  0.00  0.00    +0.000 A 
ATOM     10  C   UNL     1       1.518   8.050  21.249  0.00  0.00    +0.000 A 
BRANCH   8  11
ATOM     11  O   UNL     1       0.639  11.588  21.944  0.00  0.00    +0.000 OA
BRANCH  11  12
ATOM     12  C   UNL     1      -0.681  12.115  21.915  0.00  0.00    +0.000 C 
ATOM     13  C   UNL     1      -0.717  13.554  22.424  0.00  0.00    +0.000 C 
ATOM     14  C   UNL     1      -2.039  13.717  23.159  0.00  0.00    +0.000 C 
ATOM     15  C   UNL     1      -2.625  12.319  23.328  0.00  0.00    +0.000 C 
ATOM     16  C   UNL     1      -1.518  11.356  22.941  0.00  0.00    +0.000 C 
ENDBRANCH  11  12
ENDBRANCH   8  11
ENDBRANCH   3   5
BRANCH   1  17
ATOM     17  C   UNL     1       3.295   5.937  17.304  0.00  0.00    +0.000 C 
BRANCH  17  26
ATOM     18  C   UNL     1       4.563   4.239  18.728  0.00  0.00    +0.000 A 
ATOM     19  N   UNL     1       5.741   4.167  19.314  0.00  0.00    +0.000 NA
ATOM     20  C   UNL     1       6.456   5.245  18.875  0.00  0.00    +0.000 A 
ATOM     21  C   UNL     1       7.772   5.612  19.195  0.00  0.00    +0.000 A 
ATOM     22  C   UNL     1       8.280   6.800  18.663  0.00  0.00    +0.000 A 
ATOM     23  C   UNL     1       7.494   7.600  17.833  0.00  0.00    +0.000 A 
ATOM     24  C   UNL     1       6.185   7.236  17.495  0.00  0.00    +0.000 A 
ATOM     25  C   UNL     1       5.693   6.036  18.031  0.00  0.00    +0.000 A 
ATOM     26  N   UNL     1       4.477   5.377  17.942  0.00  0.00    +0.000 N 
BRANCH  18  27
ATOM     27  C   UNL     1       3.509   3.212  18.930  0.00  0.00    +0.000 C 
BRANCH  27  29
ATOM     28  C   UNL     1       1.052   3.019  20.355  0.00  0.00    +0.000 C 
ATOM     29  S   UNL     1       2.763   3.480  20.542  0.00  0.00    +0.000 S 
ATOM     30  O   UNL     1       2.813   4.901  20.855  0.00  0.00    +0.000 OA
ATOM     31  O   UNL     1       3.352   2.518  21.454  0.00  0.00    +0.000 OA
ENDBRANCH  27  29
ENDBRANCH  18  27
ENDBRANCH  17  26
ENDBRANCH   1  17
TORSDOF 7
ENDMDL
MODEL 6
REMARK VINA RESULT:      -8.3      3.106      4.703
REMARK  Name = 
REMARK  8 active torsions:
REMARK  status: ('A' for Active; 'I' for Inactive)
REMARK    1  A    between atoms: C_1  and  S_2
REMARK    2  A    between atoms: S_2  and  C_5
REMARK    3  A    between atoms: C_5  and  C_6
REMARK    4  A    between atoms: N_14  and  C_15
REMARK    5  A    between atoms: C_15  and  C_16
REMARK    6  A    between atoms: N_18  and  C_19
REMARK    7  A    between atoms: C_22  and  O_23
REMARK    8  A    between atoms: O_23  and  C_24
REMARK                            x       y       z     vdW  Elec       q    Type
REMARK                         _______ _______ _______ _____ _____    ______ ____
ROOT
ATOM      1  C   UNL     1       2.788   6.580  19.298  0.00  0.00    +0.000 C 
ATOM      2  O   UNL     1       2.306   6.709  18.173  0.00  0.00    +0.000 OA
ATOM      3  N   UNL     1       2.447   7.339  20.408  0.00  0.00    +0.000 N 
ATOM      4  H   UNL     1       3.155   7.442  21.126  0.00  0.00    +0.000 HD
ENDROOT
BRANCH   3   5
ATOM      5  C   UNL     1       1.516   8.398  20.302  0.00  0.00    +0.000 A 
ATOM      6  C   UNL     1       0.448   8.536  21.190  0.00  0.00    +0.000 A 
ATOM      7  C   UNL     1      -0.550   9.479  20.945  0.00  0.00    +0.000 A 
ATOM      8  C   UNL     1      -0.486  10.298  19.818  0.00  0.00    +0.000 A 
ATOM      9  C   UNL     1       0.620  10.213  18.972  0.00  0.00    +0.000 A 
ATOM     10  C   UNL     1       1.635   9.284  19.230  0.00  0.00    +0.000 A 
BRANCH   8  11
ATOM     11  O   UNL     1      -1.584  11.087  19.632  0.00  0.00    +0.000 OA
BRANCH  11  12
ATOM     12  C   UNL     1      -2.075  11.268  18.310  0.00  0.00    +0.000 C 
ATOM     13  C   UNL     1      -3.513  11.780  18.316  0.00  0.00    +0.000 C 
ATOM     14  C   UNL     1      -4.199  11.146  17.114  0.00  0.00    +0.000 C 
ATOM     15  C   UNL     1      -3.263  10.059  16.594  0.00  0.00    +0.000 C 
ATOM     16  C   UNL     1      -2.190   9.895  17.654  0.00  0.00    +0.000 C 
ENDBRANCH  11  12
ENDBRANCH   8  11
ENDBRANCH   3   5
BRANCH   1  17
ATOM     17  C   UNL     1       3.824   5.512  19.536  0.00  0.00    +0.000 C 
BRANCH  17  26
ATOM     18  C   UNL     1       3.774   3.299  18.262  0.00  0.00    +0.000 A 
ATOM     19  N   UNL     1       4.381   2.782  17.213  0.00  0.00    +0.000 NA
ATOM     20  C   UNL     1       5.081   3.801  16.632  0.00  0.00    +0.000 A 
ATOM     21  C   UNL     1       5.880   3.767  15.479  0.00  0.00    +0.000 A 
ATOM     22  C   UNL     1       6.552   4.933  15.101  0.00  0.00    +0.000 A 
ATOM     23  C   UNL     1       6.429   6.100  15.855  0.00  0.00    +0.000 A 
ATOM     24  C   UNL     1       5.623   6.148  16.999  0.00  0.00    +0.000 A 
ATOM     25  C   UNL     1       4.948   4.972  17.360  0.00  0.00    +0.000 A 
ATOM     26  N   UNL     1       4.103   4.637  18.406  0.00  0.00    +0.000 N 
BRANCH  18  27
ATOM     27  C   UNL     1       2.879   2.501  19.139  0.00  0.00    +0.000 C 
BRANCH  27  29
ATOM     28  C   UNL     1       0.665   3.968  20.166  0.00  0.00    +0.000 C 
ATOM     29  S   UNL     1       1.181   2.968  18.783  0.00  0.00    +0.000 S 
ATOM     30  O   UNL     1       0.356   1.768  18.765  0.00  0.00    +0.000 OA
ATOM     31  O   UNL     1       1.208   3.845  17.627  0.00  0.00    +0.000 OA
ENDBRANCH  27  29
ENDBRANCH  18  27
ENDBRANCH  17  26
ENDBRANCH   1  17
TORSDOF 7
ENDMDL
MODEL 7
REMARK VINA RESULT:      -8.3      2.951      4.605
REMARK  Name = 
REMARK  8 active torsions:
REMARK  status: ('A' for Active; 'I' for Inactive)
REMARK    1  A    between atoms: C_1  and  S_2
REMARK    2  A    between atoms: S_2  and  C_5
REMARK    3  A    between atoms: C_5  and  C_6
REMARK    4  A    between atoms: N_14  and  C_15
REMARK    5  A    between atoms: C_15  and  C_16
REMARK    6  A    between atoms: N_18  and  C_19
REMARK    7  A    between atoms: C_22  and  O_23
REMARK    8  A    between atoms: O_23  and  C_24
REMARK                            x       y       z     vdW  Elec       q    Type
REMARK                         _______ _______ _______ _____ _____    ______ ____
ROOT
ATOM      1  C   UNL     1       2.416   5.823  17.787  0.00  0.00    +0.000 C 
ATOM      2  O   UNL     1       1.215   5.562  17.714  0.00  0.00    +0.000 OA
ATOM      3  N   UNL     1       2.955   6.976  18.338  0.00  0.00    +0.000 N 
ATOM      4  H   UNL     1       3.858   7.271  17.986  0.00  0.00    +0.000 HD
ENDROOT
BRANCH   3   5
ATOM      5  C   UNL     1       2.116   8.004  18.827  0.00  0.00    +0.000 A 
ATOM      6  C   UNL     1       1.730   8.070  20.167  0.00  0.00    +0.000 A 
ATOM      7  C   UNL     1       0.759   8.985  20.572  0.00  0.00    +0.000 A 
ATOM      8  C   UNL     1       0.171   9.847  19.646  0.00  0.00    +0.000 A 
ATOM      9  C   UNL     1       0.611   9.834  18.323  0.00  0.00    +0.000 A 
ATOM     10  C   UNL     1       1.603   8.933  17.920  0.00  0.00    +0.000 A 
BRANCH   8  11
ATOM     11  O   UNL     1      -0.849  10.602  20.149  0.00  0.00    +0.000 OA
BRANCH  11  12
ATOM     12  C   UNL     1      -0.722  12.017  20.127  0.00  0.00    +0.000 C 
ATOM     13  C   UNL     1      -1.044  12.585  18.747  0.00  0.00    +0.000 C 
ATOM     14  C   UNL     1      -0.120  13.777  18.546  0.00  0.00    +0.000 C 
ATOM     15  C   UNL     1       0.920  13.722  19.661  0.00  0.00    +0.000 C 
ATOM     16  C   UNL     1       0.753  12.364  20.317  0.00  0.00    +0.000 C 
ENDBRANCH  11  12
ENDBRANCH   8  11
ENDBRANCH   3   5
BRANCH   1  17
ATOM     17  C   UNL     1       3.417   4.825  17.263  0.00  0.00    +0.000 C 
BRANCH  17  26
ATOM     18  C   UNL     1       4.826   3.783  19.120  0.00  0.00    +0.000 A 
ATOM     19  N   UNL     1       5.952   4.064  19.743  0.00  0.00    +0.000 NA
ATOM     20  C   UNL     1       6.519   5.104  19.062  0.00  0.00    +0.000 A 
ATOM     21  C   UNL     1       7.733   5.760  19.320  0.00  0.00    +0.000 A 
ATOM     22  C   UNL     1       8.086   6.846  18.514  0.00  0.00    +0.000 A 
ATOM     23  C   UNL     1       7.248   7.265  17.479  0.00  0.00    +0.000 A 
ATOM     24  C   UNL     1       6.043   6.608  17.205  0.00  0.00    +0.000 A 
ATOM     25  C   UNL     1       5.707   5.514  18.018  0.00  0.00    +0.000 A 
ATOM     26  N   UNL     1       4.621   4.655  18.063  0.00  0.00    +0.000 N 
BRANCH  18  27
ATOM     27  C   UNL     1       3.935   2.674  19.547  0.00  0.00    +0.000 C 
BRANCH  27  29
ATOM     28  C   UNL     1       1.140   2.950  20.015  0.00  0.00    +0.000 C 
ATOM     29  S   UNL     1       2.736   3.332  20.712  0.00  0.00    +0.000 S 
ATOM     30  O   UNL     1       2.870   4.781  20.759  0.00  0.00    +0.000 OA
ATOM     31  O   UNL     1       2.849   2.554  21.932  0.00  0.00    +0.000 OA
ENDBRANCH  27  29
ENDBRANCH  18  27
ENDBRANCH  17  26
ENDBRANCH   1  17
TORSDOF 7
ENDMDL
MODEL 8
REMARK VINA RESULT:      -8.3      3.337      4.830
REMARK  Name = 
REMARK  8 active torsions:
REMARK  status: ('A' for Active; 'I' for Inactive)
REMARK    1  A    between atoms: C_1  and  S_2
REMARK    2  A    between atoms: S_2  and  C_5
REMARK    3  A    between atoms: C_5  and  C_6
REMARK    4  A    between atoms: N_14  and  C_15
REMARK    5  A    between atoms: C_15  and  C_16
REMARK    6  A    between atoms: N_18  and  C_19
REMARK    7  A    between atoms: C_22  and  O_23
REMARK    8  A    between atoms: O_23  and  C_24
REMARK                            x       y       z     vdW  Elec       q    Type
REMARK                         _______ _______ _______ _____ _____    ______ ____
ROOT
ATOM      1  C   UNL     1       2.455   6.484  20.004  0.00  0.00    +0.000 C 
ATOM      2  O   UNL     1       1.502   6.234  20.742  0.00  0.00    +0.000 OA
ATOM      3  N   UNL     1       2.607   7.641  19.255  0.00  0.00    +0.000 N 
ATOM      4  H   UNL     1       3.165   7.569  18.411  0.00  0.00    +0.000 HD
ENDROOT
BRANCH   3   5
ATOM      5  C   UNL     1       1.602   8.636  19.248  0.00  0.00    +0.000 A 
ATOM      6  C   UNL     1       0.917   9.004  20.408  0.00  0.00    +0.000 A 
ATOM      7  C   UNL     1      -0.189   9.850  20.329  0.00  0.00    +0.000 A 
ATOM      8  C   UNL     1      -0.616  10.341  19.096  0.00  0.00    +0.000 A 
ATOM      9  C   UNL     1       0.112  10.034  17.947  0.00  0.00    +0.000 A 
ATOM     10  C   UNL     1       1.238   9.205  18.027  0.00  0.00    +0.000 A 
BRANCH   8  11
ATOM     11  O   UNL     1      -1.780  11.053  19.146  0.00  0.00    +0.000 OA
BRANCH  11  12
ATOM     12  C   UNL     1      -2.435  11.371  17.926  0.00  0.00    +0.000 C 
ATOM     13  C   UNL     1      -3.836  11.926  18.174  0.00  0.00    +0.000 C 
ATOM     14  C   UNL     1      -4.705  11.428  17.028  0.00  0.00    +0.000 C 
ATOM     15  C   UNL     1      -3.896  10.364  16.292  0.00  0.00    +0.000 C 
ATOM     16  C   UNL     1      -2.699  10.068  17.175  0.00  0.00    +0.000 C 
ENDBRANCH  11  12
ENDBRANCH   8  11
ENDBRANCH   3   5
BRANCH   1  17
ATOM     17  C   UNL     1       3.578   5.484  19.889  0.00  0.00    +0.000 C 
BRANCH  17  26
ATOM     18  C   UNL     1       3.012   4.263  17.720  0.00  0.00    +0.000 A 
ATOM     19  N   UNL     1       3.673   3.800  16.679  0.00  0.00    +0.000 NA
ATOM     20  C   UNL     1       4.952   4.264  16.797  0.00  0.00    +0.000 A 
ATOM     21  C   UNL     1       6.041   4.061  15.935  0.00  0.00    +0.000 A 
ATOM     22  C   UNL     1       7.283   4.593  16.294  0.00  0.00    +0.000 A 
ATOM     23  C   UNL     1       7.432   5.308  17.483  0.00  0.00    +0.000 A 
ATOM     24  C   UNL     1       6.349   5.529  18.343  0.00  0.00    +0.000 A 
ATOM     25  C   UNL     1       5.108   4.995  17.964  0.00  0.00    +0.000 A 
ATOM     26  N   UNL     1       3.851   4.990  18.548  0.00  0.00    +0.000 N 
BRANCH  18  27
ATOM     27  C   UNL     1       1.565   3.999  17.926  0.00  0.00    +0.000 C 
BRANCH  27  29
ATOM     28  C   UNL     1       1.159   2.916  20.528  0.00  0.00    +0.000 C 
ATOM     29  S   UNL     1       1.397   2.452  18.823  0.00  0.00    +0.000 S 
ATOM     30  O   UNL     1       2.648   1.714  18.729  0.00  0.00    +0.000 OA
ATOM     31  O   UNL     1       0.158   1.834  18.388  0.00  0.00    +0.000 OA
ENDBRANCH  27  29
ENDBRANCH  18  27
ENDBRANCH  17  26
ENDBRANCH   1  17
TORSDOF 7
ENDMDL
MODEL 9
REMARK VINA RESULT:      -8.3      1.908      2.369
REMARK  Name = 
REMARK  8 active torsions:
REMARK  status: ('A' for Active; 'I' for Inactive)
REMARK    1  A    between atoms: C_1  and  S_2
REMARK    2  A    between atoms: S_2  and  C_5
REMARK    3  A    between atoms: C_5  and  C_6
REMARK    4  A    between atoms: N_14  and  C_15
REMARK    5  A    between atoms: C_15  and  C_16
REMARK    6  A    between atoms: N_18  and  C_19
REMARK    7  A    between atoms: C_22  and  O_23
REMARK    8  A    between atoms: O_23  and  C_24
REMARK                            x       y       z     vdW  Elec       q    Type
REMARK                         _______ _______ _______ _____ _____    ______ ____
ROOT
ATOM      1  C   UNL     1       2.474   7.597  18.450  0.00  0.00    +0.000 C 
ATOM      2  O   UNL     1       2.320   7.360  19.649  0.00  0.00    +0.000 OA
ATOM      3  N   UNL     1       1.911   8.662  17.764  0.00  0.00    +0.000 N 
ATOM      4  H   UNL     1       1.755   8.534  16.770  0.00  0.00    +0.000 HD
ENDROOT
BRANCH   3   5
ATOM      5  C   UNL     1       1.034   9.560  18.415  0.00  0.00    +0.000 A 
ATOM      6  C   UNL     1      -0.257   9.806  17.943  0.00  0.00    +0.000 A 
ATOM      7  C   UNL     1      -1.022  10.830  18.500  0.00  0.00    +0.000 A 
ATOM      8  C   UNL     1      -0.511  11.612  19.535  0.00  0.00    +0.000 A 
ATOM      9  C   UNL     1       0.748  11.317  20.057  0.00  0.00    +0.000 A 
ATOM     10  C   UNL     1       1.509  10.273  19.517  0.00  0.00    +0.000 A 
BRANCH   8  11
ATOM     11  O   UNL     1      -1.311  12.655  19.901  0.00  0.00    +0.000 OA
BRANCH  11  12
ATOM     12  C   UNL     1      -0.716  13.928  20.109  0.00  0.00    +0.000 C 
ATOM     13  C   UNL     1      -1.742  14.952  20.589  0.00  0.00    +0.000 C 
ATOM     14  C   UNL     1      -1.340  16.284  19.974  0.00  0.00    +0.000 C 
ATOM     15  C   UNL     1      -0.277  15.982  18.922  0.00  0.00    +0.000 C 
ATOM     16  C   UNL     1      -0.280  14.475  18.752  0.00  0.00    +0.000 C 
ENDBRANCH  11  12
ENDBRANCH   8  11
ENDBRANCH   3   5
BRANCH   1  17
ATOM     17  C   UNL     1       3.355   6.689  17.631  0.00  0.00    +0.000 C 
BRANCH  17  26
ATOM     18  C   UNL     1       5.056   5.048  18.597  0.00  0.00    +0.000 A 
ATOM     19  N   UNL     1       5.066   3.784  18.970  0.00  0.00    +0.000 NA
ATOM     20  C   UNL     1       3.766   3.365  18.943  0.00  0.00    +0.000 A 
ATOM     21  C   UNL     1       3.247   2.102  19.268  0.00  0.00    +0.000 A 
ATOM     22  C   UNL     1       1.876   1.885  19.109  0.00  0.00    +0.000 A 
ATOM     23  C   UNL     1       1.045   2.903  18.638  0.00  0.00    +0.000 A 
ATOM     24  C   UNL     1       1.551   4.170  18.324  0.00  0.00    +0.000 A 
ATOM     25  C   UNL     1       2.929   4.374  18.497  0.00  0.00    +0.000 A 
ATOM     26  N   UNL     1       3.770   5.454  18.280  0.00  0.00    +0.000 N 
BRANCH  18  27
ATOM     27  C   UNL     1       6.291   5.870  18.535  0.00  0.00    +0.000 C 
BRANCH  27  29
ATOM     28  C   UNL     1       5.922   4.884  15.890  0.00  0.00    +0.000 C 
ATOM     29  S   UNL     1       7.172   5.452  17.027  0.00  0.00    +0.000 S 
ATOM     30  O   UNL     1       8.071   4.340  17.298  0.00  0.00    +0.000 OA
ATOM     31  O   UNL     1       7.697   6.689  16.477  0.00  0.00    +0.000 OA
ENDBRANCH  27  29
ENDBRANCH  18  27
ENDBRANCH  17  26
ENDBRANCH   1  17
TORSDOF 7
ENDMDL
