MODEL 1
REMARK VINA RESULT:      -8.2      0.000      0.000
REMARK  Name = 
REMARK  5 active torsions:
REMARK  status: ('A' for Active; 'I' for Inactive)
REMARK    1  A    between atoms: C_1  and  N_2
REMARK    2  A    between atoms: C_6  and  C_7
REMARK    3  A    between atoms: C_7  and  C_8
REMARK    4  A    between atoms: C_12  and  N_13
REMARK    5  A    between atoms: C_21  and  C_22
REMARK                            x       y       z     vdW  Elec       q    Type
REMARK                         _______ _______ _______ _____ _____    ______ ____
ROOT
ATOM      1  N   UNL     1      -1.681  12.511  18.931  0.00  0.00    +0.000 N 
ATOM      2  C   UNL     1      -0.284  12.142  18.603  0.00  0.00    +0.000 C 
ATOM      3  C   UNL     1       0.073  11.230  19.742  0.00  0.00    +0.000 A 
ATOM      4  C   UNL     1      -0.697  11.626  20.843  0.00  0.00    +0.000 A 
ATOM      5  C   UNL     1      -0.738  10.921  22.031  0.00  0.00    +0.000 A 
ATOM      6  C   UNL     1       0.023   9.762  22.087  0.00  0.00    +0.000 A 
ATOM      7  F   UNL     1      -0.038   8.988  23.179  0.00  0.00    +0.000 F 
ATOM      8  C   UNL     1       0.783   9.325  20.991  0.00  0.00    +0.000 A 
ATOM      9  C   UNL     1       0.818  10.054  19.783  0.00  0.00    +0.000 A 
ATOM     10  C   UNL     1      -1.727  12.568  20.348  0.00  0.00    +0.000 C 
ATOM     11  O   UNL     1      -2.565  13.094  21.063  0.00  0.00    +0.000 OA
ENDROOT
BRANCH   1  16
ATOM     12  C   UNL     1      -4.927  11.509  17.606  0.00  0.00    +0.000 A 
ATOM     13  C   UNL     1      -4.486  11.167  16.319  0.00  0.00    +0.000 A 
ATOM     14  C   UNL     1      -3.155  10.828  16.093  0.00  0.00    +0.000 A 
ATOM     15  C   UNL     1      -2.227  10.943  17.115  0.00  0.00    +0.000 A 
ATOM     16  C   UNL     1      -2.605  11.567  18.314  0.00  0.00    +0.000 A 
ATOM     17  C   UNL     1      -3.969  11.682  18.617  0.00  0.00    +0.000 A 
BRANCH  12  18
ATOM     18  C   UNL     1      -6.411  11.634  17.874  0.00  0.00    +0.000 C 
BRANCH  18  24
ATOM     19  C   UNL     1      -7.631  13.024  20.431  0.00  0.00    +0.000 C 
ATOM     20  N   UNL     1      -7.454  11.614  20.205  0.00  0.00    +0.000 N 
ATOM     21  C   UNL     1      -7.842  10.624  21.059  0.00  0.00    +0.000 A 
ATOM     22  N   UNL     1      -7.526   9.456  20.558  0.00  0.00    +0.000 NA
ATOM     23  N   UNL     1      -6.929   9.679  19.338  0.00  0.00    +0.000 NA
ATOM     24  C   UNL     1      -6.899  10.984  19.122  0.00  0.00    +0.000 A 
ENDBRANCH  18  24
ENDBRANCH  12  18
ENDBRANCH   1  16
BRANCH   9  25
ATOM     25  C   UNL     1       1.536   9.467  18.598  0.00  0.00    +0.000 C 
ATOM     26  F   UNL     1       2.415  10.310  17.993  0.00  0.00    +0.000 F 
ATOM     27  F   UNL     1       2.252   8.357  18.923  0.00  0.00    +0.000 F 
ATOM     28  F   UNL     1       0.676   9.079  17.612  0.00  0.00    +0.000 F 
ENDBRANCH   9  25
TORSDOF 4
ENDMDL
MODEL 2
REMARK VINA RESULT:      -8.0      5.767      8.829
REMARK  Name = 
REMARK  5 active torsions:
REMARK  status: ('A' for Active; 'I' for Inactive)
REMARK    1  A    between atoms: C_1  and  N_2
REMARK    2  A    between atoms: C_6  and  C_7
REMARK    3  A    between atoms: C_7  and  C_8
REMARK    4  A    between atoms: C_12  and  N_13
REMARK    5  A    between atoms: C_21  and  C_22
REMARK                            x       y       z     vdW  Elec       q    Type
REMARK                         _______ _______ _______ _____ _____    ______ ____
ROOT
ATOM      1  N   UNL     1       4.040   4.597  19.111  0.00  0.00    +0.000 N 
ATOM      2  C   UNL     1       5.394   5.183  19.253  0.00  0.00    +0.000 C 
ATOM      3  C   UNL     1       5.947   5.028  17.865  0.00  0.00    +0.000 A 
ATOM      4  C   UNL     1       5.320   3.913  17.294  0.00  0.00    +0.000 A 
ATOM      5  C   UNL     1       5.477   3.553  15.969  0.00  0.00    +0.000 A 
ATOM      6  C   UNL     1       6.291   4.371  15.199  0.00  0.00    +0.000 A 
ATOM      7  F   UNL     1       6.418   4.125  13.888  0.00  0.00    +0.000 F 
ATOM      8  C   UNL     1       6.911   5.510  15.735  0.00  0.00    +0.000 A 
ATOM      9  C   UNL     1       6.744   5.868  17.090  0.00  0.00    +0.000 A 
ATOM     10  C   UNL     1       4.189   3.541  18.175  0.00  0.00    +0.000 C 
ATOM     11  O   UNL     1       3.435   2.607  17.952  0.00  0.00    +0.000 OA
ENDROOT
BRANCH   1  16
ATOM     12  C   UNL     1       1.904   7.471  19.798  0.00  0.00    +0.000 A 
ATOM     13  C   UNL     1       2.466   8.332  18.844  0.00  0.00    +0.000 A 
ATOM     14  C   UNL     1       3.147   7.821  17.743  0.00  0.00    +0.000 A 
ATOM     15  C   UNL     1       3.380   6.458  17.643  0.00  0.00    +0.000 A 
ATOM     16  C   UNL     1       3.084   5.633  18.738  0.00  0.00    +0.000 A 
ATOM     17  C   UNL     1       2.199   6.101  19.720  0.00  0.00    +0.000 A 
BRANCH  12  18
ATOM     18  C   UNL     1       0.966   8.032  20.846  0.00  0.00    +0.000 C 
BRANCH  18  24
ATOM     19  C   UNL     1      -0.800   9.913  19.030  0.00  0.00    +0.000 C 
ATOM     20  N   UNL     1       0.065  10.305  20.112  0.00  0.00    +0.000 N 
ATOM     21  C   UNL     1       0.225  11.579  20.571  0.00  0.00    +0.000 A 
ATOM     22  N   UNL     1       1.089  11.591  21.555  0.00  0.00    +0.000 NA
ATOM     23  N   UNL     1       1.497  10.293  21.760  0.00  0.00    +0.000 NA
ATOM     24  C   UNL     1       0.867   9.517  20.894  0.00  0.00    +0.000 A 
ENDBRANCH  18  24
ENDBRANCH  12  18
ENDBRANCH   1  16
BRANCH   9  25
ATOM     25  C   UNL     1       7.316   7.173  17.575  0.00  0.00    +0.000 C 
ATOM     26  F   UNL     1       6.393   8.143  17.814  0.00  0.00    +0.000 F 
ATOM     27  F   UNL     1       8.014   7.033  18.735  0.00  0.00    +0.000 F 
ATOM     28  F   UNL     1       8.187   7.721  16.681  0.00  0.00    +0.000 F 
ENDBRANCH   9  25
TORSDOF 4
ENDMDL
MODEL 3
REMARK VINA RESULT:      -7.9      0.594      1.360
REMARK  Name = 
REMARK  5 active torsions:
REMARK  status: ('A' for Active; 'I' for Inactive)
REMARK    1  A    between atoms: C_1  and  N_2
REMARK    2  A    between atoms: C_6  and  C_7
REMARK    3  A    between atoms: C_7  and  C_8
REMARK    4  A    between atoms: C_12  and  N_13
REMARK    5  A    between atoms: C_21  and  C_22
REMARK                            x       y       z     vdW  Elec       q    Type
REMARK                         _______ _______ _______ _____ _____    ______ ____
ROOT
ATOM      1  N   UNL     1      -1.711  12.487  18.998  0.00  0.00    +0.000 N 
ATOM      2  C   UNL     1      -0.323  12.114  18.635  0.00  0.00    +0.000 C 
ATOM      3  C   UNL     1       0.067  11.217  19.776  0.00  0.00    +0.000 A 
ATOM      4  C   UNL     1      -0.673  11.627  20.893  0.00  0.00    +0.000 A 
ATOM      5  C   UNL     1      -0.681  10.937  22.090  0.00  0.00    +0.000 A 
ATOM      6  C   UNL     1       0.082   9.779  22.140  0.00  0.00    +0.000 A 
ATOM      7  F   UNL     1       0.052   9.019  23.243  0.00  0.00    +0.000 F 
ATOM      8  C   UNL     1       0.812   9.328  21.029  0.00  0.00    +0.000 A 
ATOM      9  C   UNL     1       0.813  10.041  19.811  0.00  0.00    +0.000 A 
ATOM     10  C   UNL     1      -1.717  12.562  20.414  0.00  0.00    +0.000 C 
ATOM     11  O   UNL     1      -2.535  13.097  21.146  0.00  0.00    +0.000 OA
ENDROOT
BRANCH   1  16
ATOM     12  C   UNL     1      -4.901  11.541  17.506  0.00  0.00    +0.000 A 
ATOM     13  C   UNL     1      -4.380  11.003  16.319  0.00  0.00    +0.000 A 
ATOM     14  C   UNL     1      -3.066  10.548  16.265  0.00  0.00    +0.000 A 
ATOM     15  C   UNL     1      -2.223  10.734  17.349  0.00  0.00    +0.000 A 
ATOM     16  C   UNL     1      -2.651  11.534  18.418  0.00  0.00    +0.000 A 
ATOM     17  C   UNL     1      -4.022  11.781  18.574  0.00  0.00    +0.000 A 
BRANCH  12  18
ATOM     18  C   UNL     1      -6.388  11.801  17.615  0.00  0.00    +0.000 C 
BRANCH  18  24
ATOM     19  C   UNL     1      -7.044   9.328  19.461  0.00  0.00    +0.000 C 
ATOM     20  N   UNL     1      -7.186  10.722  19.787  0.00  0.00    +0.000 N 
ATOM     21  C   UNL     1      -7.588  11.213  20.994  0.00  0.00    +0.000 A 
ATOM     22  N   UNL     1      -7.620  12.521  20.954  0.00  0.00    +0.000 NA
ATOM     23  N   UNL     1      -7.215  12.904  19.696  0.00  0.00    +0.000 NA
ATOM     24  C   UNL     1      -6.942  11.815  18.997  0.00  0.00    +0.000 A 
ENDBRANCH  18  24
ENDBRANCH  12  18
ENDBRANCH   1  16
BRANCH   9  25
ATOM     25  C   UNL     1       1.497   9.439  18.614  0.00  0.00    +0.000 C 
ATOM     26  F   UNL     1       0.657   9.045  17.620  0.00  0.00    +0.000 F 
ATOM     27  F   UNL     1       2.378  10.299  18.034  0.00  0.00    +0.000 F 
ATOM     28  F   UNL     1       2.220   8.327  18.935  0.00  0.00    +0.000 F 
ENDBRANCH   9  25
TORSDOF 4
ENDMDL
MODEL 4
REMARK VINA RESULT:      -7.8      5.273      7.806
REMARK  Name = 
REMARK  5 active torsions:
REMARK  status: ('A' for Active; 'I' for Inactive)
REMARK    1  A    between atoms: C_1  and  N_2
REMARK    2  A    between atoms: C_6  and  C_7
REMARK    3  A    between atoms: C_7  and  C_8
REMARK    4  A    between atoms: C_12  and  N_13
REMARK    5  A    between atoms: C_21  and  C_22
REMARK                            x       y       z     vdW  Elec       q    Type
REMARK                         _______ _______ _______ _____ _____    ______ ____
ROOT
ATOM      1  N   UNL     1       2.917   5.814  17.433  0.00  0.00    +0.000 N 
ATOM      2  C   UNL     1       1.857   4.821  17.727  0.00  0.00    +0.000 C 
ATOM      3  C   UNL     1       2.583   3.842  18.606  0.00  0.00    +0.000 A 
ATOM      4  C   UNL     1       3.935   3.886  18.241  0.00  0.00    +0.000 A 
ATOM      5  C   UNL     1       4.928   3.221  18.934  0.00  0.00    +0.000 A 
ATOM      6  C   UNL     1       4.525   2.499  20.049  0.00  0.00    +0.000 A 
ATOM      7  F   UNL     1       5.449   1.900  20.812  0.00  0.00    +0.000 F 
ATOM      8  C   UNL     1       3.183   2.458  20.455  0.00  0.00    +0.000 A 
ATOM      9  C   UNL     1       2.177   3.141  19.739  0.00  0.00    +0.000 A 
ATOM     10  C   UNL     1       4.119   5.064  17.362  0.00  0.00    +0.000 C 
ATOM     11  O   UNL     1       5.191   5.386  16.876  0.00  0.00    +0.000 OA
ENDROOT
BRANCH   1  16
ATOM     12  C   UNL     1       1.709   8.950  18.848  0.00  0.00    +0.000 A 
ATOM     13  C   UNL     1       1.326   8.436  20.096  0.00  0.00    +0.000 A 
ATOM     14  C   UNL     1       1.892   7.261  20.582  0.00  0.00    +0.000 A 
ATOM     15  C   UNL     1       2.750   6.523  19.783  0.00  0.00    +0.000 A 
ATOM     16  C   UNL     1       2.899   6.875  18.433  0.00  0.00    +0.000 A 
ATOM     17  C   UNL     1       2.530   8.164  18.024  0.00  0.00    +0.000 A 
BRANCH  12  18
ATOM     18  C   UNL     1       1.270  10.343  18.450  0.00  0.00    +0.000 C 
BRANCH  18  24
ATOM     19  C   UNL     1      -0.314  12.273  20.379  0.00  0.00    +0.000 C 
ATOM     20  N   UNL     1      -0.853  11.463  19.319  0.00  0.00    +0.000 N 
ATOM     21  C   UNL     1      -2.162  11.437  18.934  0.00  0.00    +0.000 A 
ATOM     22  N   UNL     1      -2.319  10.589  17.949  0.00  0.00    +0.000 NA
ATOM     23  N   UNL     1      -1.083  10.053  17.667  0.00  0.00    +0.000 NA
ATOM     24  C   UNL     1      -0.198  10.592  18.489  0.00  0.00    +0.000 A 
ENDBRANCH  18  24
ENDBRANCH  12  18
ENDBRANCH   1  16
BRANCH   9  25
ATOM     25  C   UNL     1       0.780   3.178  20.298  0.00  0.00    +0.000 C 
ATOM     26  F   UNL     1       0.257   4.426  20.434  0.00  0.00    +0.000 F 
ATOM     27  F   UNL     1      -0.104   2.488  19.530  0.00  0.00    +0.000 F 
ATOM     28  F   UNL     1       0.705   2.622  21.542  0.00  0.00    +0.000 F 
ENDBRANCH   9  25
TORSDOF 4
ENDMDL
MODEL 5
REMARK VINA RESULT:      -7.8      5.795      8.824
REMARK  Name = 
REMARK  5 active torsions:
REMARK  status: ('A' for Active; 'I' for Inactive)
REMARK    1  A    between atoms: C_1  and  N_2
REMARK    2  A    between atoms: C_6  and  C_7
REMARK    3  A    between atoms: C_7  and  C_8
REMARK    4  A    between atoms: C_12  and  N_13
REMARK    5  A    between atoms: C_21  and  C_22
REMARK                            x       y       z     vdW  Elec       q    Type
REMARK                         _______ _______ _______ _____ _____    ______ ____
ROOT
ATOM      1  N   UNL     1       4.119   4.395  19.008  0.00  0.00    +0.000 N 
ATOM      2  C   UNL     1       5.465   4.990  19.180  0.00  0.00    +0.000 C 
ATOM      3  C   UNL     1       6.008   4.941  17.780  0.00  0.00    +0.000 A 
ATOM      4  C   UNL     1       5.392   3.859  17.137  0.00  0.00    +0.000 A 
ATOM      5  C   UNL     1       5.542   3.595  15.789  0.00  0.00    +0.000 A 
ATOM      6  C   UNL     1       6.336   4.477  15.072  0.00  0.00    +0.000 A 
ATOM      7  F   UNL     1       6.455   4.325  13.746  0.00  0.00    +0.000 F 
ATOM      8  C   UNL     1       6.945   5.585  15.682  0.00  0.00    +0.000 A 
ATOM      9  C   UNL     1       6.785   5.845  17.060  0.00  0.00    +0.000 A 
ATOM     10  C   UNL     1       4.274   3.410  18.000  0.00  0.00    +0.000 C 
ATOM     11  O   UNL     1       3.533   2.482  17.718  0.00  0.00    +0.000 OA
ENDROOT
BRANCH   1  16
ATOM     12  C   UNL     1       2.208   7.395  19.809  0.00  0.00    +0.000 A 
ATOM     13  C   UNL     1       2.629   8.162  18.712  0.00  0.00    +0.000 A 
ATOM     14  C   UNL     1       3.105   7.546  17.558  0.00  0.00    +0.000 A 
ATOM     15  C   UNL     1       3.279   6.172  17.528  0.00  0.00    +0.000 A 
ATOM     16  C   UNL     1       3.144   5.439  18.717  0.00  0.00    +0.000 A 
ATOM     17  C   UNL     1       2.448   6.013  19.790  0.00  0.00    +0.000 A 
BRANCH  12  18
ATOM     18  C   UNL     1       1.473   8.068  20.948  0.00  0.00    +0.000 C 
BRANCH  18  24
ATOM     19  C   UNL     1      -0.340   9.831  22.835  0.00  0.00    +0.000 C 
ATOM     20  N   UNL     1      -0.172   9.965  21.412  0.00  0.00    +0.000 N 
ATOM     21  C   UNL     1      -0.743  10.931  20.638  0.00  0.00    +0.000 A 
ATOM     22  N   UNL     1      -0.396  10.762  19.387  0.00  0.00    +0.000 NA
ATOM     23  N   UNL     1       0.437   9.668  19.336  0.00  0.00    +0.000 NA
ATOM     24  C   UNL     1       0.580   9.196  20.564  0.00  0.00    +0.000 A 
ENDBRANCH  18  24
ENDBRANCH  12  18
ENDBRANCH   1  16
BRANCH   9  25
ATOM     25  C   UNL     1       7.342   7.121  17.631  0.00  0.00    +0.000 C 
ATOM     26  F   UNL     1       8.037   6.968  18.790  0.00  0.00    +0.000 F 
ATOM     27  F   UNL     1       8.191   7.746  16.771  0.00  0.00    +0.000 F 
ATOM     28  F   UNL     1       6.366   8.031  17.916  0.00  0.00    +0.000 F 
ENDBRANCH   9  25
TORSDOF 4
ENDMDL
MODEL 6
REMARK VINA RESULT:      -7.7      5.477      8.194
REMARK  Name = 
REMARK  5 active torsions:
REMARK  status: ('A' for Active; 'I' for Inactive)
REMARK    1  A    between atoms: C_1  and  N_2
REMARK    2  A    between atoms: C_6  and  C_7
REMARK    3  A    between atoms: C_7  and  C_8
REMARK    4  A    between atoms: C_12  and  N_13
REMARK    5  A    between atoms: C_21  and  C_22
REMARK                            x       y       z     vdW  Elec       q    Type
REMARK                         _______ _______ _______ _____ _____    ______ ____
ROOT
ATOM      1  N   UNL     1       3.199   5.465  17.372  0.00  0.00    +0.000 N 
ATOM      2  C   UNL     1       2.079   4.542  17.676  0.00  0.00    +0.000 C 
ATOM      3  C   UNL     1       2.711   3.601  18.662  0.00  0.00    +0.000 A 
ATOM      4  C   UNL     1       4.081   3.559  18.371  0.00  0.00    +0.000 A 
ATOM      5  C   UNL     1       5.003   2.905  19.165  0.00  0.00    +0.000 A 
ATOM      6  C   UNL     1       4.508   2.285  20.304  0.00  0.00    +0.000 A 
ATOM      7  F   UNL     1       5.361   1.705  21.159  0.00  0.00    +0.000 F 
ATOM      8  C   UNL     1       3.145   2.332  20.636  0.00  0.00    +0.000 A 
ATOM      9  C   UNL     1       2.212   3.003  19.817  0.00  0.00    +0.000 A 
ATOM     10  C   UNL     1       4.366   4.661  17.423  0.00  0.00    +0.000 C 
ATOM     11  O   UNL     1       5.477   4.900  16.976  0.00  0.00    +0.000 OA
ENDROOT
BRANCH   1  16
ATOM     12  C   UNL     1       2.079   8.753  18.481  0.00  0.00    +0.000 A 
ATOM     13  C   UNL     1       1.594   8.352  19.735  0.00  0.00    +0.000 A 
ATOM     14  C   UNL     1       2.064   7.190  20.338  0.00  0.00    +0.000 A 
ATOM     15  C   UNL     1       2.928   6.353  19.651  0.00  0.00    +0.000 A 
ATOM     16  C   UNL     1       3.178   6.596  18.291  0.00  0.00    +0.000 A 
ATOM     17  C   UNL     1       2.904   7.868  17.769  0.00  0.00    +0.000 A 
BRANCH  12  18
ATOM     18  C   UNL     1       1.740  10.133  17.959  0.00  0.00    +0.000 C 
BRANCH  18  24
ATOM     19  C   UNL     1      -1.408  10.153  17.751  0.00  0.00    +0.000 C 
ATOM     20  N   UNL     1      -0.590  10.878  18.687  0.00  0.00    +0.000 N 
ATOM     21  C   UNL     1      -1.058  11.671  19.693  0.00  0.00    +0.000 A 
ATOM     22  N   UNL     1      -0.054  12.190  20.353  0.00  0.00    +0.000 NA
ATOM     23  N   UNL     1       1.105  11.717  19.779  0.00  0.00    +0.000 NA
ATOM     24  C   UNL     1       0.776  10.915  18.780  0.00  0.00    +0.000 A 
ENDBRANCH  18  24
ENDBRANCH  12  18
ENDBRANCH   1  16
BRANCH   9  25
ATOM     25  C   UNL     1       0.791   3.142  20.293  0.00  0.00    +0.000 C 
ATOM     26  F   UNL     1       0.347   4.424  20.388  0.00  0.00    +0.000 F 
ATOM     27  F   UNL     1      -0.092   2.505  19.478  0.00  0.00    +0.000 F 
ATOM     28  F   UNL     1       0.606   2.606  21.533  0.00  0.00    +0.000 F 
ENDBRANCH   9  25
TORSDOF 4
ENDMDL
MODEL 7
REMARK VINA RESULT:      -7.6      6.039      9.127
REMARK  Name = 
REMARK  5 active torsions:
REMARK  status: ('A' for Active; 'I' for Inactive)
REMARK    1  A    between atoms: C_1  and  N_2
REMARK    2  A    between atoms: C_6  and  C_7
REMARK    3  A    between atoms: C_7  and  C_8
REMARK    4  A    between atoms: C_12  and  N_13
REMARK    5  A    between atoms: C_21  and  C_22
REMARK                            x       y       z     vdW  Elec       q    Type
REMARK                         _______ _______ _______ _____ _____    ______ ____
ROOT
ATOM      1  N   UNL     1       4.004   3.109  18.944  0.00  0.00    +0.000 N 
ATOM      2  C   UNL     1       5.475   3.288  18.964  0.00  0.00    +0.000 C 
ATOM      3  C   UNL     1       5.677   4.325  17.896  0.00  0.00    +0.000 A 
ATOM      4  C   UNL     1       4.631   4.178  16.976  0.00  0.00    +0.000 A 
ATOM      5  C   UNL     1       4.410   5.058  15.933  0.00  0.00    +0.000 A 
ATOM      6  C   UNL     1       5.282   6.133  15.839  0.00  0.00    +0.000 A 
ATOM      7  F   UNL     1       5.073   7.067  14.901  0.00  0.00    +0.000 F 
ATOM      8  C   UNL     1       6.323   6.323  16.761  0.00  0.00    +0.000 A 
ATOM      9  C   UNL     1       6.538   5.417  17.822  0.00  0.00    +0.000 A 
ATOM     10  C   UNL     1       3.628   3.274  17.586  0.00  0.00    +0.000 C 
ATOM     11  O   UNL     1       2.588   2.947  17.038  0.00  0.00    +0.000 OA
ENDROOT
BRANCH   1  16
ATOM     12  C   UNL     1       2.251   6.182  19.826  0.00  0.00    +0.000 A 
ATOM     13  C   UNL     1       1.143   5.576  20.438  0.00  0.00    +0.000 A 
ATOM     14  C   UNL     1       1.235   4.284  20.948  0.00  0.00    +0.000 A 
ATOM     15  C   UNL     1       2.386   3.540  20.748  0.00  0.00    +0.000 A 
ATOM     16  C   UNL     1       3.376   4.032  19.883  0.00  0.00    +0.000 A 
ATOM     17  C   UNL     1       3.388   5.399  19.574  0.00  0.00    +0.000 A 
BRANCH  12  18
ATOM     18  C   UNL     1       2.204   7.660  19.501  0.00  0.00    +0.000 C 
BRANCH  18  24
ATOM     19  C   UNL     1       0.186   9.990  18.829  0.00  0.00    +0.000 C 
ATOM     20  N   UNL     1       0.541   9.492  20.131  0.00  0.00    +0.000 N 
ATOM     21  C   UNL     1       0.011   9.922  21.312  0.00  0.00    +0.000 A 
ATOM     22  N   UNL     1       0.557   9.272  22.308  0.00  0.00    +0.000 NA
ATOM     23  N   UNL     1       1.458   8.379  21.772  0.00  0.00    +0.000 NA
ATOM     24  C   UNL     1       1.437   8.507  20.456  0.00  0.00    +0.000 A 
ENDBRANCH  18  24
ENDBRANCH  12  18
ENDBRANCH   1  16
BRANCH   9  25
ATOM     25  C   UNL     1       7.578   5.744  18.860  0.00  0.00    +0.000 C 
ATOM     26  F   UNL     1       8.189   6.948  18.691  0.00  0.00    +0.000 F 
ATOM     27  F   UNL     1       7.064   5.764  20.119  0.00  0.00    +0.000 F 
ATOM     28  F   UNL     1       8.590   4.830  18.886  0.00  0.00    +0.000 F 
ENDBRANCH   9  25
TORSDOF 4
ENDMDL
MODEL 8
REMARK VINA RESULT:      -7.6      1.763      2.617
REMARK  Name = 
REMARK  5 active torsions:
REMARK  status: ('A' for Active; 'I' for Inactive)
REMARK    1  A    between atoms: C_1  and  N_2
REMARK    2  A    between atoms: C_6  and  C_7
REMARK    3  A    between atoms: C_7  and  C_8
REMARK    4  A    between atoms: C_12  and  N_13
REMARK    5  A    between atoms: C_21  and  C_22
REMARK                            x       y       z     vdW  Elec       q    Type
REMARK                         _______ _______ _______ _____ _____    ______ ____
ROOT
ATOM      1  N   UNL     1      -0.371  11.661  18.618  0.00  0.00    +0.000 N 
ATOM      2  C   UNL     1       0.442  10.880  19.579  0.00  0.00    +0.000 C 
ATOM      3  C   UNL     1      -0.087  11.364  20.900  0.00  0.00    +0.000 A 
ATOM      4  C   UNL     1      -0.547  12.672  20.704  0.00  0.00    +0.000 A 
ATOM      5  C   UNL     1      -1.233  13.386  21.669  0.00  0.00    +0.000 A 
ATOM      6  C   UNL     1      -1.470  12.730  22.868  0.00  0.00    +0.000 A 
ATOM      7  F   UNL     1      -2.202  13.335  23.814  0.00  0.00    +0.000 F 
ATOM      8  C   UNL     1      -1.047  11.410  23.084  0.00  0.00    +0.000 A 
ATOM      9  C   UNL     1      -0.346  10.691  22.092  0.00  0.00    +0.000 A 
ATOM     10  C   UNL     1      -0.582  12.916  19.243  0.00  0.00    +0.000 C 
ATOM     11  O   UNL     1      -0.944  13.968  18.741  0.00  0.00    +0.000 OA
ENDROOT
BRANCH   1  16
ATOM     12  C   UNL     1      -3.849  11.405  17.554  0.00  0.00    +0.000 A 
ATOM     13  C   UNL     1      -3.624  10.599  16.428  0.00  0.00    +0.000 A 
ATOM     14  C   UNL     1      -2.480   9.810  16.340  0.00  0.00    +0.000 A 
ATOM     15  C   UNL     1      -1.495   9.906  17.310  0.00  0.00    +0.000 A 
ATOM     16  C   UNL     1      -1.581  10.924  18.272  0.00  0.00    +0.000 A 
ATOM     17  C   UNL     1      -2.819  11.541  18.497  0.00  0.00    +0.000 A 
BRANCH  12  18
ATOM     18  C   UNL     1      -5.201  12.060  17.741  0.00  0.00    +0.000 C 
BRANCH  18  24
ATOM     19  C   UNL     1      -5.789  13.504  20.484  0.00  0.00    +0.000 C 
ATOM     20  N   UNL     1      -6.276  12.221  20.051  0.00  0.00    +0.000 N 
ATOM     21  C   UNL     1      -7.132  11.424  20.753  0.00  0.00    +0.000 A 
ATOM     22  N   UNL     1      -7.366  10.324  20.083  0.00  0.00    +0.000 NA
ATOM     23  N   UNL     1      -6.660  10.402  18.904  0.00  0.00    +0.000 NA
ATOM     24  C   UNL     1      -6.012  11.555  18.883  0.00  0.00    +0.000 A 
ENDBRANCH  18  24
ENDBRANCH  12  18
ENDBRANCH   1  16
BRANCH   9  25
ATOM     25  C   UNL     1      -0.041   9.236  22.324  0.00  0.00    +0.000 C 
ATOM     26  F   UNL     1      -0.784   8.375  21.578  0.00  0.00    +0.000 F 
ATOM     27  F   UNL     1       1.258   8.931  22.057  0.00  0.00    +0.000 F 
ATOM     28  F   UNL     1      -0.252   8.863  23.618  0.00  0.00    +0.000 F 
ENDBRANCH   9  25
TORSDOF 4
ENDMDL
MODEL 9
REMARK VINA RESULT:      -7.5      5.508      8.505
REMARK  Name = 
REMARK  5 active torsions:
REMARK  status: ('A' for Active; 'I' for Inactive)
REMARK    1  A    between atoms: C_1  and  N_2
REMARK    2  A    between atoms: C_6  and  C_7
REMARK    3  A    between atoms: C_7  and  C_8
REMARK    4  A    between atoms: C_12  and  N_13
REMARK    5  A    between atoms: C_21  and  C_22
REMARK                            x       y       z     vdW  Elec       q    Type
REMARK                         _______ _______ _______ _____ _____    ______ ____
ROOT
ATOM      1  N   UNL     1       3.795   4.910  19.276  0.00  0.00    +0.000 N 
ATOM      2  C   UNL     1       5.173   5.440  19.404  0.00  0.00    +0.000 C 
ATOM      3  C   UNL     1       5.755   5.124  18.056  0.00  0.00    +0.000 A 
ATOM      4  C   UNL     1       5.087   3.990  17.575  0.00  0.00    +0.000 A 
ATOM      5  C   UNL     1       5.261   3.494  16.297  0.00  0.00    +0.000 A 
ATOM      6  C   UNL     1       6.137   4.192  15.479  0.00  0.00    +0.000 A 
ATOM      7  F   UNL     1       6.287   3.813  14.202  0.00  0.00    +0.000 F 
ATOM      8  C   UNL     1       6.800   5.347  15.922  0.00  0.00    +0.000 A 
ATOM      9  C   UNL     1       6.615   5.844  17.230  0.00  0.00    +0.000 A 
ATOM     10  C   UNL     1       3.914   3.762  18.451  0.00  0.00    +0.000 C 
ATOM     11  O   UNL     1       3.120   2.849  18.296  0.00  0.00    +0.000 OA
ENDROOT
BRANCH   1  16
ATOM     12  C   UNL     1       1.978   8.061  19.537  0.00  0.00    +0.000 A 
ATOM     13  C   UNL     1       2.532   8.671  18.401  0.00  0.00    +0.000 A 
ATOM     14  C   UNL     1       3.074   7.900  17.377  0.00  0.00    +0.000 A 
ATOM     15  C   UNL     1       3.180   6.526  17.525  0.00  0.00    +0.000 A 
ATOM     16  C   UNL     1       2.904   5.950  18.774  0.00  0.00    +0.000 A 
ATOM     17  C   UNL     1       2.147   6.678  19.703  0.00  0.00    +0.000 A 
BRANCH  12  18
ATOM     18  C   UNL     1       1.182   8.897  20.516  0.00  0.00    +0.000 C 
BRANCH  18  24
ATOM     19  C   UNL     1       1.491  12.036  20.594  0.00  0.00    +0.000 C 
ATOM     20  N   UNL     1       0.462  11.276  19.934  0.00  0.00    +0.000 N 
ATOM     21  C   UNL     1      -0.542  11.801  19.175  0.00  0.00    +0.000 A 
ATOM     22  N   UNL     1      -1.311  10.841  18.730  0.00  0.00    +0.000 NA
ATOM     23  N   UNL     1      -0.795   9.652  19.193  0.00  0.00    +0.000 NA
ATOM     24  C   UNL     1       0.283   9.918  19.911  0.00  0.00    +0.000 A 
ENDBRANCH  18  24
ENDBRANCH  12  18
ENDBRANCH   1  16
BRANCH   9  25
ATOM     25  C   UNL     1       7.241   7.160  17.606  0.00  0.00    +0.000 C 
ATOM     26  F   UNL     1       6.354   8.169  17.819  0.00  0.00    +0.000 F 
ATOM     27  F   UNL     1       7.984   7.075  18.742  0.00  0.00    +0.000 F 
ATOM     28  F   UNL     1       8.087   7.625  16.642  0.00  0.00    +0.000 F 
ENDBRANCH   9  25
TORSDOF 4
ENDMDL
