MODEL 1
REMARK VINA RESULT:      -8.7      0.000      0.000
REMARK  Name = 
REMARK  5 active torsions:
REMARK  status: ('A' for Active; 'I' for Inactive)
REMARK    1  A    between atoms: C_2  and  C_15
REMARK    2  A    between atoms: N_3  and  C_4
REMARK    3  A    between atoms: C_4  and  C_5
REMARK    4  A    between atoms: N_18  and  S_19
REMARK    5  A    between atoms: S_19  and  C_22
REMARK                            x       y       z     vdW  Elec       q    Type
REMARK                         _______ _______ _______ _____ _____    ______ ____
ROOT
ATOM      1  O   UNL     1       7.449   6.906  16.280  0.00  0.00    +0.000 OA
ATOM      2  C   UNL     1       7.664   6.996  17.479  0.00  0.00    +0.000 C 
ATOM      3  N   UNL     1       8.078   8.153  18.115  0.00  0.00    +0.000 N 
ATOM      4  H   UNL     1       8.156   8.156  19.123  0.00  0.00    +0.000 HD
ENDROOT
BRANCH   2   5
ATOM      5  C   UNL     1       7.576   5.809  18.443  0.00  0.00    +0.000 C 
ATOM      6  C   UNL     1       7.639   4.492  17.662  0.00  0.00    +0.000 C 
ATOM      7  C   UNL     1       6.281   4.087  17.092  0.00  0.00    +0.000 C 
ATOM      8  N   UNL     1       5.313   3.940  18.214  0.00  0.00    +0.000 NA
ATOM      9  C   UNL     1       5.081   5.269  18.864  0.00  0.00    +0.000 C 
ATOM     10  C   UNL     1       6.384   5.858  19.402  0.00  0.00    +0.000 C 
BRANCH   8  11
ATOM     11  S   UNL     1       3.816   3.200  17.758  0.00  0.00    +0.000 S 
ATOM     12  O   UNL     1       3.119   4.109  16.872  0.00  0.00    +0.000 OA
ATOM     13  O   UNL     1       4.123   1.845  17.346  0.00  0.00    +0.000 OA
BRANCH  11  14
ATOM     14  C   UNL     1       2.857   3.117  19.256  0.00  0.00    +0.000 A 
ATOM     15  C   UNL     1       3.425   2.564  20.407  0.00  0.00    +0.000 A 
ATOM     16  C   UNL     1       2.716   2.603  21.611  0.00  0.00    +0.000 A 
ATOM     17  C   UNL     1       1.454   3.198  21.664  0.00  0.00    +0.000 A 
ATOM     18  C   UNL     1       0.891   3.753  20.513  0.00  0.00    +0.000 A 
ATOM     19  C   UNL     1       1.591   3.713  19.305  0.00  0.00    +0.000 A 
ENDBRANCH  11  14
ENDBRANCH   8  11
ENDBRANCH   2   5
BRANCH   3  20
ATOM     20  C   UNL     1       8.303   9.420  17.452  0.00  0.00    +0.000 C 
BRANCH  20  21
ATOM     21  C   UNL     1       8.841  10.438  18.428  0.00  0.00    +0.000 A 
ATOM     22  C   UNL     1       9.163  10.047  19.735  0.00  0.00    +0.000 A 
ATOM     23  C   UNL     1       9.649  10.973  20.661  0.00  0.00    +0.000 A 
ATOM     24  C   UNL     1       9.806  12.308  20.297  0.00  0.00    +0.000 A 
ATOM     25  C   UNL     1       9.496  12.714  18.997  0.00  0.00    +0.000 A 
ATOM     26  C   UNL     1       8.997  11.792  18.071  0.00  0.00    +0.000 A 
ATOM     27  O   UNL     1       9.649  14.008  18.564  0.00  0.00    +0.000 OA
ATOM     28  C   UNL     1      10.487  14.761  19.452  0.00  0.00    +0.000 C 
ATOM     29  C   UNL     1      10.090  14.528  20.901  0.00  0.00    +0.000 C 
ATOM     30  O   UNL     1      10.278  13.156  21.264  0.00  0.00    +0.000 OA
ENDBRANCH  20  21
ENDBRANCH   3  20
TORSDOF 5
ENDMDL
MODEL 2
REMARK VINA RESULT:      -8.6      4.996      5.891
REMARK  Name = 
REMARK  5 active torsions:
REMARK  status: ('A' for Active; 'I' for Inactive)
REMARK    1  A    between atoms: C_2  and  C_15
REMARK    2  A    between atoms: N_3  and  C_4
REMARK    3  A    between atoms: C_4  and  C_5
REMARK    4  A    between atoms: N_18  and  S_19
REMARK    5  A    between atoms: S_19  and  C_22
REMARK                            x       y       z     vdW  Elec       q    Type
REMARK                         _______ _______ _______ _____ _____    ______ ____
ROOT
ATOM      1  O   UNL     1       5.117   7.079  15.507  0.00  0.00    +0.000 OA
ATOM      2  C   UNL     1       5.071   6.623  16.639  0.00  0.00    +0.000 C 
ATOM      3  N   UNL     1       4.064   6.889  17.549  0.00  0.00    +0.000 N 
ATOM      4  H   UNL     1       4.066   6.407  18.437  0.00  0.00    +0.000 HD
ENDROOT
BRANCH   2   5
ATOM      5  C   UNL     1       6.171   5.743  17.239  0.00  0.00    +0.000 C 
ATOM      6  C   UNL     1       6.179   4.371  16.556  0.00  0.00    +0.000 C 
ATOM      7  C   UNL     1       5.140   3.419  17.148  0.00  0.00    +0.000 C 
ATOM      8  N   UNL     1       5.424   3.240  18.598  0.00  0.00    +0.000 NA
ATOM      9  C   UNL     1       5.220   4.535  19.321  0.00  0.00    +0.000 C 
ATOM     10  C   UNL     1       6.130   5.629  18.765  0.00  0.00    +0.000 C 
BRANCH   8  11
ATOM     11  S   UNL     1       4.518   1.964  19.338  0.00  0.00    +0.000 S 
ATOM     12  O   UNL     1       4.240   0.967  18.325  0.00  0.00    +0.000 OA
ATOM     13  O   UNL     1       5.207   1.612  20.563  0.00  0.00    +0.000 OA
BRANCH  11  14
ATOM     14  C   UNL     1       2.952   2.691  19.775  0.00  0.00    +0.000 A 
ATOM     15  C   UNL     1       2.679   2.982  21.115  0.00  0.00    +0.000 A 
ATOM     16  C   UNL     1       1.500   3.658  21.446  0.00  0.00    +0.000 A 
ATOM     17  C   UNL     1       0.608   4.046  20.443  0.00  0.00    +0.000 A 
ATOM     18  C   UNL     1       0.886   3.757  19.106  0.00  0.00    +0.000 A 
ATOM     19  C   UNL     1       2.059   3.077  18.769  0.00  0.00    +0.000 A 
ENDBRANCH  11  14
ENDBRANCH   8  11
ENDBRANCH   2   5
BRANCH   3  20
ATOM     20  C   UNL     1       2.920   7.736  17.284  0.00  0.00    +0.000 C 
BRANCH  20  21
ATOM     21  C   UNL     1       2.241   8.125  18.576  0.00  0.00    +0.000 A 
ATOM     22  C   UNL     1       2.268   7.247  19.668  0.00  0.00    +0.000 A 
ATOM     23  C   UNL     1       1.635   7.577  20.868  0.00  0.00    +0.000 A 
ATOM     24  C   UNL     1       0.952   8.785  20.988  0.00  0.00    +0.000 A 
ATOM     25  C   UNL     1       0.920   9.675  19.912  0.00  0.00    +0.000 A 
ATOM     26  C   UNL     1       1.542   9.341  18.704  0.00  0.00    +0.000 A 
ATOM     27  O   UNL     1       0.286  10.892  19.970  0.00  0.00    +0.000 OA
ATOM     28  C   UNL     1       0.012  11.275  21.324  0.00  0.00    +0.000 C 
ATOM     29  C   UNL     1      -0.583  10.115  22.106  0.00  0.00    +0.000 C 
ATOM     30  O   UNL     1       0.349   9.031  22.194  0.00  0.00    +0.000 OA
ENDBRANCH  20  21
ENDBRANCH   3  20
TORSDOF 5
ENDMDL
MODEL 3
REMARK VINA RESULT:      -8.6      5.522      7.536
REMARK  Name = 
REMARK  5 active torsions:
REMARK  status: ('A' for Active; 'I' for Inactive)
REMARK    1  A    between atoms: C_2  and  C_15
REMARK    2  A    between atoms: N_3  and  C_4
REMARK    3  A    between atoms: C_4  and  C_5
REMARK    4  A    between atoms: N_18  and  S_19
REMARK    5  A    between atoms: S_19  and  C_22
REMARK                            x       y       z     vdW  Elec       q    Type
REMARK                         _______ _______ _______ _____ _____    ______ ____
ROOT
ATOM      1  O   UNL     1       3.009   3.878  21.048  0.00  0.00    +0.000 OA
ATOM      2  C   UNL     1       2.710   4.412  19.991  0.00  0.00    +0.000 C 
ATOM      3  N   UNL     1       2.101   5.650  19.884  0.00  0.00    +0.000 N 
ATOM      4  H   UNL     1       1.961   6.049  18.966  0.00  0.00    +0.000 HD
ENDROOT
BRANCH   2   5
ATOM      5  C   UNL     1       2.902   3.746  18.625  0.00  0.00    +0.000 C 
ATOM      6  C   UNL     1       4.201   2.933  18.615  0.00  0.00    +0.000 C 
ATOM      7  C   UNL     1       5.428   3.797  18.329  0.00  0.00    +0.000 C 
ATOM      8  N   UNL     1       5.256   4.452  17.004  0.00  0.00    +0.000 NA
ATOM      9  C   UNL     1       4.108   5.413  17.054  0.00  0.00    +0.000 C 
ATOM     10  C   UNL     1       2.808   4.703  17.434  0.00  0.00    +0.000 C 
BRANCH   8  11
ATOM     11  S   UNL     1       6.687   5.224  16.410  0.00  0.00    +0.000 S 
ATOM     12  O   UNL     1       6.502   6.656  16.523  0.00  0.00    +0.000 OA
ATOM     13  O   UNL     1       7.814   4.565  17.039  0.00  0.00    +0.000 OA
BRANCH  11  14
ATOM     14  C   UNL     1       6.733   4.855  14.669  0.00  0.00    +0.000 A 
ATOM     15  C   UNL     1       7.687   5.478  13.859  0.00  0.00    +0.000 A 
ATOM     16  C   UNL     1       7.799   5.103  12.516  0.00  0.00    +0.000 A 
ATOM     17  C   UNL     1       6.971   4.108  11.993  0.00  0.00    +0.000 A 
ATOM     18  C   UNL     1       6.022   3.486  12.807  0.00  0.00    +0.000 A 
ATOM     19  C   UNL     1       5.900   3.859  14.147  0.00  0.00    +0.000 A 
ENDBRANCH  11  14
ENDBRANCH   8  11
ENDBRANCH   2   5
BRANCH   3  20
ATOM     20  C   UNL     1       1.744   6.489  21.008  0.00  0.00    +0.000 C 
BRANCH  20  21
ATOM     21  C   UNL     1       1.503   7.908  20.552  0.00  0.00    +0.000 A 
ATOM     22  C   UNL     1       1.721   8.254  19.211  0.00  0.00    +0.000 A 
ATOM     23  C   UNL     1       1.520   9.563  18.768  0.00  0.00    +0.000 A 
ATOM     24  C   UNL     1       1.111  10.549  19.663  0.00  0.00    +0.000 A 
ATOM     25  C   UNL     1       0.883  10.220  21.001  0.00  0.00    +0.000 A 
ATOM     26  C   UNL     1       1.096   8.913  21.451  0.00  0.00    +0.000 A 
ATOM     27  O   UNL     1       0.455  11.136  21.931  0.00  0.00    +0.000 OA
ATOM     28  C   UNL     1      -0.069  12.314  21.303  0.00  0.00    +0.000 C 
ATOM     29  C   UNL     1       0.851  12.791  20.191  0.00  0.00    +0.000 C 
ATOM     30  O   UNL     1       0.945  11.810  19.153  0.00  0.00    +0.000 OA
ENDBRANCH  20  21
ENDBRANCH   3  20
TORSDOF 5
ENDMDL
MODEL 4
REMARK VINA RESULT:      -8.6      5.489      8.194
REMARK  Name = 
REMARK  5 active torsions:
REMARK  status: ('A' for Active; 'I' for Inactive)
REMARK    1  A    between atoms: C_2  and  C_15
REMARK    2  A    between atoms: N_3  and  C_4
REMARK    3  A    between atoms: C_4  and  C_5
REMARK    4  A    between atoms: N_18  and  S_19
REMARK    5  A    between atoms: S_19  and  C_22
REMARK                            x       y       z     vdW  Elec       q    Type
REMARK                         _______ _______ _______ _____ _____    ______ ____
ROOT
ATOM      1  O   UNL     1       3.337   5.784  20.302  0.00  0.00    +0.000 OA
ATOM      2  C   UNL     1       2.654   6.484  19.570  0.00  0.00    +0.000 C 
ATOM      3  N   UNL     1       1.736   7.419  20.014  0.00  0.00    +0.000 N 
ATOM      4  H   UNL     1       1.271   8.007  19.338  0.00  0.00    +0.000 HD
ENDROOT
BRANCH   2   5
ATOM      5  C   UNL     1       2.665   6.369  18.043  0.00  0.00    +0.000 C 
ATOM      6  C   UNL     1       3.041   4.943  17.626  0.00  0.00    +0.000 C 
ATOM      7  C   UNL     1       4.551   4.716  17.621  0.00  0.00    +0.000 C 
ATOM      8  N   UNL     1       5.179   5.680  16.676  0.00  0.00    +0.000 NA
ATOM      9  C   UNL     1       4.998   7.079  17.178  0.00  0.00    +0.000 C 
ATOM     10  C   UNL     1       3.518   7.424  17.334  0.00  0.00    +0.000 C 
BRANCH   8  11
ATOM     11  S   UNL     1       6.845   5.349  16.339  0.00  0.00    +0.000 S 
ATOM     12  O   UNL     1       7.562   6.607  16.354  0.00  0.00    +0.000 OA
ATOM     13  O   UNL     1       7.241   4.254  17.200  0.00  0.00    +0.000 OA
BRANCH  11  14
ATOM     14  C   UNL     1       6.878   4.768  14.656  0.00  0.00    +0.000 A 
ATOM     15  C   UNL     1       5.944   3.817  14.238  0.00  0.00    +0.000 A 
ATOM     16  C   UNL     1       5.895   3.446  12.891  0.00  0.00    +0.000 A 
ATOM     17  C   UNL     1       6.768   4.029  11.970  0.00  0.00    +0.000 A 
ATOM     18  C   UNL     1       7.698   4.981  12.391  0.00  0.00    +0.000 A 
ATOM     19  C   UNL     1       7.756   5.353  13.736  0.00  0.00    +0.000 A 
ENDBRANCH  11  14
ENDBRANCH   8  11
ENDBRANCH   2   5
BRANCH   3  20
ATOM     20  C   UNL     1       1.464   7.706  21.407  0.00  0.00    +0.000 C 
BRANCH  20  21
ATOM     21  C   UNL     1       0.611   8.945  21.534  0.00  0.00    +0.000 A 
ATOM     22  C   UNL     1       0.093   9.309  22.785  0.00  0.00    +0.000 A 
ATOM     23  C   UNL     1      -0.711  10.441  22.925  0.00  0.00    +0.000 A 
ATOM     24  C   UNL     1      -1.023  11.220  21.813  0.00  0.00    +0.000 A 
ATOM     25  C   UNL     1      -0.510  10.876  20.560  0.00  0.00    +0.000 A 
ATOM     26  C   UNL     1       0.285   9.734  20.413  0.00  0.00    +0.000 A 
ATOM     27  O   UNL     1      -0.757  11.612  19.427  0.00  0.00    +0.000 OA
ATOM     28  C   UNL     1      -1.256  12.917  19.748  0.00  0.00    +0.000 C 
ATOM     29  C   UNL     1      -2.345  12.835  20.806  0.00  0.00    +0.000 C 
ATOM     30  O   UNL     1      -1.825  12.309  22.031  0.00  0.00    +0.000 OA
ENDBRANCH  20  21
ENDBRANCH   3  20
TORSDOF 5
ENDMDL
MODEL 5
REMARK VINA RESULT:      -8.6      5.599      7.859
REMARK  Name = 
REMARK  5 active torsions:
REMARK  status: ('A' for Active; 'I' for Inactive)
REMARK    1  A    between atoms: C_2  and  C_15
REMARK    2  A    between atoms: N_3  and  C_4
REMARK    3  A    between atoms: C_4  and  C_5
REMARK    4  A    between atoms: N_18  and  S_19
REMARK    5  A    between atoms: S_19  and  C_22
REMARK                            x       y       z     vdW  Elec       q    Type
REMARK                         _______ _______ _______ _____ _____    ______ ____
ROOT
ATOM      1  O   UNL     1       2.437   4.633  21.442  0.00  0.00    +0.000 OA
ATOM      2  C   UNL     1       2.472   5.087  20.308  0.00  0.00    +0.000 C 
ATOM      3  N   UNL     1       2.227   6.410  19.987  0.00  0.00    +0.000 N 
ATOM      4  H   UNL     1       2.354   6.713  19.032  0.00  0.00    +0.000 HD
ENDROOT
BRANCH   2   5
ATOM      5  C   UNL     1       2.721   4.230  19.064  0.00  0.00    +0.000 C 
ATOM      6  C   UNL     1       4.044   3.470  19.206  0.00  0.00    +0.000 C 
ATOM      7  C   UNL     1       5.250   4.323  18.818  0.00  0.00    +0.000 C 
ATOM      8  N   UNL     1       5.093   4.765  17.405  0.00  0.00    +0.000 NA
ATOM      9  C   UNL     1       3.915   5.681  17.285  0.00  0.00    +0.000 C 
ATOM     10  C   UNL     1       2.629   4.992  17.740  0.00  0.00    +0.000 C 
BRANCH   8  11
ATOM     11  S   UNL     1       6.515   5.487  16.733  0.00  0.00    +0.000 S 
ATOM     12  O   UNL     1       6.280   6.912  16.617  0.00  0.00    +0.000 OA
ATOM     13  O   UNL     1       7.645   4.975  17.482  0.00  0.00    +0.000 OA
BRANCH  11  14
ATOM     14  C   UNL     1       6.623   4.856  15.071  0.00  0.00    +0.000 A 
ATOM     15  C   UNL     1       5.653   3.960  14.612  0.00  0.00    +0.000 A 
ATOM     16  C   UNL     1       5.671   3.554  13.274  0.00  0.00    +0.000 A 
ATOM     17  C   UNL     1       6.645   4.047  12.402  0.00  0.00    +0.000 A 
ATOM     18  C   UNL     1       7.609   4.945  12.865  0.00  0.00    +0.000 A 
ATOM     19  C   UNL     1       7.601   5.351  14.201  0.00  0.00    +0.000 A 
ENDBRANCH  11  14
ENDBRANCH   8  11
ENDBRANCH   2   5
BRANCH   3  20
ATOM     20  C   UNL     1       1.907   7.444  20.949  0.00  0.00    +0.000 C 
BRANCH  20  21
ATOM     21  C   UNL     1       1.253   8.619  20.264  0.00  0.00    +0.000 A 
ATOM     22  C   UNL     1       1.548   8.893  18.920  0.00  0.00    +0.000 A 
ATOM     23  C   UNL     1       0.968   9.983  18.269  0.00  0.00    +0.000 A 
ATOM     24  C   UNL     1       0.096  10.825  18.955  0.00  0.00    +0.000 A 
ATOM     25  C   UNL     1      -0.213  10.564  20.292  0.00  0.00    +0.000 A 
ATOM     26  C   UNL     1       0.376   9.480  20.952  0.00  0.00    +0.000 A 
ATOM     27  O   UNL     1      -1.083  11.338  21.020  0.00  0.00    +0.000 OA
ATOM     28  C   UNL     1      -1.883  12.168  20.169  0.00  0.00    +0.000 C 
ATOM     29  C   UNL     1      -1.027  12.847  19.112  0.00  0.00    +0.000 C 
ATOM     30  O   UNL     1      -0.424  11.878  18.248  0.00  0.00    +0.000 OA
ENDBRANCH  20  21
ENDBRANCH   3  20
TORSDOF 5
ENDMDL
MODEL 6
REMARK VINA RESULT:      -8.4      0.615      1.083
REMARK  Name = 
REMARK  5 active torsions:
REMARK  status: ('A' for Active; 'I' for Inactive)
REMARK    1  A    between atoms: C_2  and  C_15
REMARK    2  A    between atoms: N_3  and  C_4
REMARK    3  A    between atoms: C_4  and  C_5
REMARK    4  A    between atoms: N_18  and  S_19
REMARK    5  A    between atoms: S_19  and  C_22
REMARK                            x       y       z     vdW  Elec       q    Type
REMARK                         _______ _______ _______ _____ _____    ______ ____
ROOT
ATOM      1  O   UNL     1       5.867   7.583  17.000  0.00  0.00    +0.000 OA
ATOM      2  C   UNL     1       6.912   7.354  17.589  0.00  0.00    +0.000 C 
ATOM      3  N   UNL     1       7.920   8.281  17.785  0.00  0.00    +0.000 N 
ATOM      4  H   UNL     1       8.716   8.026  18.351  0.00  0.00    +0.000 HD
ENDROOT
BRANCH   2   5
ATOM      5  C   UNL     1       7.287   5.973  18.134  0.00  0.00    +0.000 C 
ATOM      6  C   UNL     1       7.236   4.933  17.010  0.00  0.00    +0.000 C 
ATOM      7  C   UNL     1       5.821   4.413  16.762  0.00  0.00    +0.000 C 
ATOM      8  N   UNL     1       5.307   3.798  18.016  0.00  0.00    +0.000 NA
ATOM      9  C   UNL     1       5.155   4.847  19.074  0.00  0.00    +0.000 C 
ATOM     10  C   UNL     1       6.487   5.538  19.365  0.00  0.00    +0.000 C 
BRANCH   8  11
ATOM     11  S   UNL     1       3.839   2.904  17.811  0.00  0.00    +0.000 S 
ATOM     12  O   UNL     1       3.080   3.529  16.748  0.00  0.00    +0.000 OA
ATOM     13  O   UNL     1       4.202   1.503  17.745  0.00  0.00    +0.000 OA
BRANCH  11  14
ATOM     14  C   UNL     1       2.916   3.164  19.312  0.00  0.00    +0.000 A 
ATOM     15  C   UNL     1       1.766   3.958  19.283  0.00  0.00    +0.000 A 
ATOM     16  C   UNL     1       0.977   4.068  20.433  0.00  0.00    +0.000 A 
ATOM     17  C   UNL     1       1.334   3.384  21.597  0.00  0.00    +0.000 A 
ATOM     18  C   UNL     1       2.482   2.590  21.621  0.00  0.00    +0.000 A 
ATOM     19  C   UNL     1       3.277   2.479  20.478  0.00  0.00    +0.000 A 
ENDBRANCH  11  14
ENDBRANCH   8  11
ENDBRANCH   2   5
BRANCH   3  20
ATOM     20  C   UNL     1       7.872   9.655  17.329  0.00  0.00    +0.000 C 
BRANCH  20  21
ATOM     21  C   UNL     1       8.715  10.536  18.219  0.00  0.00    +0.000 A 
ATOM     22  C   UNL     1       9.220  10.028  19.424  0.00  0.00    +0.000 A 
ATOM     23  C   UNL     1       9.989  10.827  20.272  0.00  0.00    +0.000 A 
ATOM     24  C   UNL     1      10.254  12.152  19.933  0.00  0.00    +0.000 A 
ATOM     25  C   UNL     1       9.764  12.673  18.733  0.00  0.00    +0.000 A 
ATOM     26  C   UNL     1       8.982  11.879  17.888  0.00  0.00    +0.000 A 
ATOM     27  O   UNL     1      10.007  13.962  18.327  0.00  0.00    +0.000 OA
ATOM     28  C   UNL     1      11.089  14.548  19.063  0.00  0.00    +0.000 C 
ATOM     29  C   UNL     1      10.942  14.278  20.552  0.00  0.00    +0.000 C 
ATOM     30  O   UNL     1      11.008  12.873  20.822  0.00  0.00    +0.000 OA
ENDBRANCH  20  21
ENDBRANCH   3  20
TORSDOF 5
ENDMDL
MODEL 7
REMARK VINA RESULT:      -8.4      5.360      7.511
REMARK  Name = 
REMARK  5 active torsions:
REMARK  status: ('A' for Active; 'I' for Inactive)
REMARK    1  A    between atoms: C_2  and  C_15
REMARK    2  A    between atoms: N_3  and  C_4
REMARK    3  A    between atoms: C_4  and  C_5
REMARK    4  A    between atoms: N_18  and  S_19
REMARK    5  A    between atoms: S_19  and  C_22
REMARK                            x       y       z     vdW  Elec       q    Type
REMARK                         _______ _______ _______ _____ _____    ______ ____
ROOT
ATOM      1  O   UNL     1       1.302   3.053  19.614  0.00  0.00    +0.000 OA
ATOM      2  C   UNL     1       2.456   3.456  19.593  0.00  0.00    +0.000 C 
ATOM      3  N   UNL     1       2.881   4.640  20.169  0.00  0.00    +0.000 N 
ATOM      4  H   UNL     1       3.868   4.856  20.170  0.00  0.00    +0.000 HD
ENDROOT
BRANCH   2   5
ATOM      5  C   UNL     1       3.588   2.735  18.856  0.00  0.00    +0.000 C 
ATOM      6  C   UNL     1       4.945   3.265  19.331  0.00  0.00    +0.000 C 
ATOM      7  C   UNL     1       5.349   4.555  18.619  0.00  0.00    +0.000 C 
ATOM      8  N   UNL     1       5.414   4.297  17.155  0.00  0.00    +0.000 NA
ATOM      9  C   UNL     1       4.048   3.975  16.632  0.00  0.00    +0.000 C 
ATOM     10  C   UNL     1       3.461   2.749  17.331  0.00  0.00    +0.000 C 
BRANCH   8  11
ATOM     11  S   UNL     1       6.142   5.578  16.247  0.00  0.00    +0.000 S 
ATOM     12  O   UNL     1       5.142   6.604  16.040  0.00  0.00    +0.000 OA
ATOM     13  O   UNL     1       7.406   5.884  16.886  0.00  0.00    +0.000 OA
BRANCH  11  14
ATOM     14  C   UNL     1       6.490   4.880  14.645  0.00  0.00    +0.000 A 
ATOM     15  C   UNL     1       5.614   3.936  14.102  0.00  0.00    +0.000 A 
ATOM     16  C   UNL     1       5.823   3.475  12.798  0.00  0.00    +0.000 A 
ATOM     17  C   UNL     1       6.893   3.961  12.043  0.00  0.00    +0.000 A 
ATOM     18  C   UNL     1       7.763   4.907  12.589  0.00  0.00    +0.000 A 
ATOM     19  C   UNL     1       7.564   5.368  13.892  0.00  0.00    +0.000 A 
ENDBRANCH  11  14
ENDBRANCH   8  11
ENDBRANCH   2   5
BRANCH   3  20
ATOM     20  C   UNL     1       2.023   5.561  20.884  0.00  0.00    +0.000 C 
BRANCH  20  21
ATOM     21  C   UNL     1       1.911   6.868  20.136  0.00  0.00    +0.000 A 
ATOM     22  C   UNL     1       2.437   6.976  18.841  0.00  0.00    +0.000 A 
ATOM     23  C   UNL     1       2.360   8.177  18.135  0.00  0.00    +0.000 A 
ATOM     24  C   UNL     1       1.767   9.295  18.719  0.00  0.00    +0.000 A 
ATOM     25  C   UNL     1       1.232   9.203  20.006  0.00  0.00    +0.000 A 
ATOM     26  C   UNL     1       1.319   8.004  20.722  0.00  0.00    +0.000 A 
ATOM     27  O   UNL     1       0.612  10.257  20.632  0.00  0.00    +0.000 OA
ATOM     28  C   UNL     1       0.261  11.287  19.698  0.00  0.00    +0.000 C 
ATOM     29  C   UNL     1       1.419  11.586  18.760  0.00  0.00    +0.000 C 
ATOM     30  O   UNL     1       1.738  10.438  17.965  0.00  0.00    +0.000 OA
ENDBRANCH  20  21
ENDBRANCH   3  20
TORSDOF 5
ENDMDL
MODEL 8
REMARK VINA RESULT:      -8.3      1.859      2.193
REMARK  Name = 
REMARK  5 active torsions:
REMARK  status: ('A' for Active; 'I' for Inactive)
REMARK    1  A    between atoms: C_2  and  C_15
REMARK    2  A    between atoms: N_3  and  C_4
REMARK    3  A    between atoms: C_4  and  C_5
REMARK    4  A    between atoms: N_18  and  S_19
REMARK    5  A    between atoms: S_19  and  C_22
REMARK                            x       y       z     vdW  Elec       q    Type
REMARK                         _______ _______ _______ _____ _____    ______ ____
ROOT
ATOM      1  O   UNL     1       7.859   6.770  16.041  0.00  0.00    +0.000 OA
ATOM      2  C   UNL     1       7.748   6.778  17.258  0.00  0.00    +0.000 C 
ATOM      3  N   UNL     1       7.683   7.924  18.030  0.00  0.00    +0.000 N 
ATOM      4  H   UNL     1       7.513   7.837  19.022  0.00  0.00    +0.000 HD
ENDROOT
BRANCH   2   5
ATOM      5  C   UNL     1       7.741   5.507  18.112  0.00  0.00    +0.000 C 
ATOM      6  C   UNL     1       7.177   4.333  17.304  0.00  0.00    +0.000 C 
ATOM      7  C   UNL     1       5.650   4.304  17.307  0.00  0.00    +0.000 C 
ATOM      8  N   UNL     1       5.173   4.198  18.713  0.00  0.00    +0.000 NA
ATOM      9  C   UNL     1       5.539   5.437  19.471  0.00  0.00    +0.000 C 
ATOM     10  C   UNL     1       7.051   5.661  19.470  0.00  0.00    +0.000 C 
BRANCH   8  11
ATOM     11  S   UNL     1       3.483   3.856  18.858  0.00  0.00    +0.000 S 
ATOM     12  O   UNL     1       3.009   3.389  17.572  0.00  0.00    +0.000 OA
ATOM     13  O   UNL     1       3.314   3.053  20.053  0.00  0.00    +0.000 OA
BRANCH  11  14
ATOM     14  C   UNL     1       2.706   5.434  19.141  0.00  0.00    +0.000 A 
ATOM     15  C   UNL     1       2.131   5.705  20.385  0.00  0.00    +0.000 A 
ATOM     16  C   UNL     1       1.624   6.982  20.646  0.00  0.00    +0.000 A 
ATOM     17  C   UNL     1       1.701   7.980  19.672  0.00  0.00    +0.000 A 
ATOM     18  C   UNL     1       2.280   7.707  18.431  0.00  0.00    +0.000 A 
ATOM     19  C   UNL     1       2.783   6.432  18.162  0.00  0.00    +0.000 A 
ENDBRANCH  11  14
ENDBRANCH   8  11
ENDBRANCH   2   5
BRANCH   3  20
ATOM     20  C   UNL     1       7.726   9.272  17.504  0.00  0.00    +0.000 C 
BRANCH  20  21
ATOM     21  C   UNL     1       8.767  10.090  18.231  0.00  0.00    +0.000 A 
ATOM     22  C   UNL     1       8.989   9.876  19.598  0.00  0.00    +0.000 A 
ATOM     23  C   UNL     1       9.935  10.629  20.296  0.00  0.00    +0.000 A 
ATOM     24  C   UNL     1      10.664  11.618  19.639  0.00  0.00    +0.000 A 
ATOM     25  C   UNL     1      10.460  11.839  18.275  0.00  0.00    +0.000 A 
ATOM     26  C   UNL     1       9.504  11.096  17.576  0.00  0.00    +0.000 A 
ATOM     27  O   UNL     1      11.161  12.780  17.560  0.00  0.00    +0.000 OA
ATOM     28  C   UNL     1      12.333  13.209  18.267  0.00  0.00    +0.000 C 
ATOM     29  C   UNL     1      12.010  13.503  19.723  0.00  0.00    +0.000 C 
ATOM     30  O   UNL     1      11.566  12.320  20.395  0.00  0.00    +0.000 OA
ENDBRANCH  20  21
ENDBRANCH   3  20
TORSDOF 5
ENDMDL
MODEL 9
REMARK VINA RESULT:      -8.3      5.822      8.275
REMARK  Name = 
REMARK  5 active torsions:
REMARK  status: ('A' for Active; 'I' for Inactive)
REMARK    1  A    between atoms: C_2  and  C_15
REMARK    2  A    between atoms: N_3  and  C_4
REMARK    3  A    between atoms: C_4  and  C_5
REMARK    4  A    between atoms: N_18  and  S_19
REMARK    5  A    between atoms: S_19  and  C_22
REMARK                            x       y       z     vdW  Elec       q    Type
REMARK                         _______ _______ _______ _____ _____    ______ ____
ROOT
ATOM      1  O   UNL     1       2.741   5.752  20.456  0.00  0.00    +0.000 OA
ATOM      2  C   UNL     1       2.366   6.618  19.681  0.00  0.00    +0.000 C 
ATOM      3  N   UNL     1       1.830   7.834  20.066  0.00  0.00    +0.000 N 
ATOM      4  H   UNL     1       1.619   8.522  19.357  0.00  0.00    +0.000 HD
ENDROOT
BRANCH   2   5
ATOM      5  C   UNL     1       2.367   6.447  18.160  0.00  0.00    +0.000 C 
ATOM      6  C   UNL     1       2.752   5.009  17.793  0.00  0.00    +0.000 C 
ATOM      7  C   UNL     1       4.264   4.794  17.785  0.00  0.00    +0.000 C 
ATOM      8  N   UNL     1       4.878   5.726  16.800  0.00  0.00    +0.000 NA
ATOM      9  C   UNL     1       4.689   7.142  17.251  0.00  0.00    +0.000 C 
ATOM     10  C   UNL     1       3.207   7.481  17.405  0.00  0.00    +0.000 C 
BRANCH   8  11
ATOM     11  S   UNL     1       6.544   5.397  16.464  0.00  0.00    +0.000 S 
ATOM     12  O   UNL     1       7.274   6.644  16.561  0.00  0.00    +0.000 OA
ATOM     13  O   UNL     1       6.918   4.249  17.265  0.00  0.00    +0.000 OA
BRANCH  11  14
ATOM     14  C   UNL     1       6.591   4.914  14.751  0.00  0.00    +0.000 A 
ATOM     15  C   UNL     1       7.617   5.392  13.930  0.00  0.00    +0.000 A 
ATOM     16  C   UNL     1       7.721   4.923  12.617  0.00  0.00    +0.000 A 
ATOM     17  C   UNL     1       6.812   3.979  12.133  0.00  0.00    +0.000 A 
ATOM     18  C   UNL     1       5.792   3.501  12.958  0.00  0.00    +0.000 A 
ATOM     19  C   UNL     1       5.678   3.969  14.269  0.00  0.00    +0.000 A 
ENDBRANCH  11  14
ENDBRANCH   8  11
ENDBRANCH   2   5
BRANCH   3  20
ATOM     20  C   UNL     1       1.650   8.255  21.440  0.00  0.00    +0.000 C 
BRANCH  20  21
ATOM     21  C   UNL     1       0.845   9.531  21.500  0.00  0.00    +0.000 A 
ATOM     22  C   UNL     1       1.093  10.554  20.575  0.00  0.00    +0.000 A 
ATOM     23  C   UNL     1       0.373  11.749  20.620  0.00  0.00    +0.000 A 
ATOM     24  C   UNL     1      -0.598  11.945  21.600  0.00  0.00    +0.000 A 
ATOM     25  C   UNL     1      -0.862  10.933  22.526  0.00  0.00    +0.000 A 
ATOM     26  C   UNL     1      -0.133   9.739  22.492  0.00  0.00    +0.000 A 
ATOM     27  O   UNL     1      -1.821  11.049  23.502  0.00  0.00    +0.000 OA
ATOM     28  C   UNL     1      -2.728  12.123  23.221  0.00  0.00    +0.000 C 
ATOM     29  C   UNL     1      -1.973  13.374  22.799  0.00  0.00    +0.000 C 
ATOM     30  O   UNL     1      -1.254  13.147  21.582  0.00  0.00    +0.000 OA
ENDBRANCH  20  21
ENDBRANCH   3  20
TORSDOF 5
ENDMDL
