MODEL 1
REMARK VINA RESULT:      -8.4      0.000      0.000
REMARK  Name = 
REMARK  7 active torsions:
REMARK  status: ('A' for Active; 'I' for Inactive)
REMARK    1  A    between atoms: C_1  and  C_2
REMARK    2  A    between atoms: C_5  and  C_6
REMARK    3  A    between atoms: C_9  and  C_10
REMARK    4  A    between atoms: N_12  and  C_13
REMARK    5  A    between atoms: C_13  and  C_14
REMARK    6  A    between atoms: C_14  and  C_15
REMARK    7  A    between atoms: C_18  and  C_19
REMARK                            x       y       z     vdW  Elec       q    Type
REMARK                         _______ _______ _______ _____ _____    ______ ____
ROOT
ATOM      1  C   UNL     1       2.225   6.138  19.735  0.00  0.00    +0.000 C 
ATOM      2  O   UNL     1       1.659   5.179  20.253  0.00  0.00    +0.000 OA
ATOM      3  N   UNL     1       2.047   7.439  20.165  0.00  0.00    +0.000 N 
ATOM      4  H   UNL     1       2.657   8.172  19.823  0.00  0.00    +0.000 HD
ENDROOT
BRANCH   1   8
ATOM      5  C   UNL     1       5.013   5.360  16.531  0.00  0.00    +0.000 A 
ATOM      6  C   UNL     1       4.637   6.679  16.836  0.00  0.00    +0.000 A 
ATOM      7  C   UNL     1       3.731   6.958  17.867  0.00  0.00    +0.000 A 
ATOM      8  C   UNL     1       3.190   5.910  18.620  0.00  0.00    +0.000 A 
ATOM      9  C   UNL     1       3.545   4.589  18.310  0.00  0.00    +0.000 A 
ATOM     10  C   UNL     1       4.450   4.316  17.276  0.00  0.00    +0.000 A 
BRANCH   5  15
ATOM     11  C   UNL     1       6.557   3.623  12.319  0.00  0.00    +0.000 C 
ATOM     12  C   UNL     1       6.643   4.360  13.590  0.00  0.00    +0.000 A 
ATOM     13  N   UNL     1       7.585   5.167  14.026  0.00  0.00    +0.000 NA
ATOM     14  N   UNL     1       7.140   5.659  15.233  0.00  0.00    +0.000 NA
ATOM     15  C   UNL     1       5.955   5.122  15.447  0.00  0.00    +0.000 A 
ATOM     16  O   UNL     1       5.582   4.258  14.450  0.00  0.00    +0.000 OA
ENDBRANCH   5  15
ENDBRANCH   1   8
BRANCH   3  17
ATOM     17  C   UNL     1       1.166   7.719  21.286  0.00  0.00    +0.000 C 
BRANCH  17  18
ATOM     18  C   UNL     1       1.508   9.031  21.993  0.00  0.00    +0.000 C 
BRANCH  18  19
ATOM     19  C   UNL     1       0.363  10.014  21.968  0.00  0.00    +0.000 A 
ATOM     20  C   UNL     1      -0.466  10.160  23.087  0.00  0.00    +0.000 A 
ATOM     21  C   UNL     1      -1.507  11.090  23.081  0.00  0.00    +0.000 A 
ATOM     22  C   UNL     1      -1.752  11.884  21.951  0.00  0.00    +0.000 A 
ATOM     23  C   UNL     1      -0.934  11.720  20.823  0.00  0.00    +0.000 A 
ATOM     24  C   UNL     1       0.111  10.791  20.829  0.00  0.00    +0.000 A 
BRANCH  22  25
ATOM     25  C   UNL     1      -2.868  12.897  21.944  0.00  0.00    +0.000 C 
ATOM     26  F   UNL     1      -4.037  12.423  22.461  0.00  0.00    +0.000 F 
ATOM     27  F   UNL     1      -2.567  14.010  22.670  0.00  0.00    +0.000 F 
ATOM     28  F   UNL     1      -3.169  13.339  20.691  0.00  0.00    +0.000 F 
ENDBRANCH  22  25
ENDBRANCH  18  19
ENDBRANCH  17  18
ENDBRANCH   3  17
TORSDOF 6
ENDMDL
MODEL 2
REMARK VINA RESULT:      -8.3      2.454      3.204
REMARK  Name = 
REMARK  7 active torsions:
REMARK  status: ('A' for Active; 'I' for Inactive)
REMARK    1  A    between atoms: C_1  and  C_2
REMARK    2  A    between atoms: C_5  and  C_6
REMARK    3  A    between atoms: C_9  and  C_10
REMARK    4  A    between atoms: N_12  and  C_13
REMARK    5  A    between atoms: C_13  and  C_14
REMARK    6  A    between atoms: C_14  and  C_15
REMARK    7  A    between atoms: C_18  and  C_19
REMARK                            x       y       z     vdW  Elec       q    Type
REMARK                         _______ _______ _______ _____ _____    ______ ____
ROOT
ATOM      1  C   UNL     1       2.236   6.897  19.611  0.00  0.00    +0.000 C 
ATOM      2  O   UNL     1       1.843   6.100  20.460  0.00  0.00    +0.000 OA
ATOM      3  N   UNL     1       1.883   8.233  19.613  0.00  0.00    +0.000 N 
ATOM      4  H   UNL     1       2.361   8.882  18.999  0.00  0.00    +0.000 HD
ENDROOT
BRANCH   1   8
ATOM      5  C   UNL     1       4.973   5.681  16.501  0.00  0.00    +0.000 A 
ATOM      6  C   UNL     1       4.298   4.715  17.266  0.00  0.00    +0.000 A 
ATOM      7  C   UNL     1       3.409   5.083  18.283  0.00  0.00    +0.000 A 
ATOM      8  C   UNL     1       3.174   6.437  18.546  0.00  0.00    +0.000 A 
ATOM      9  C   UNL     1       3.858   7.408  17.800  0.00  0.00    +0.000 A 
ATOM     10  C   UNL     1       4.748   7.034  16.785  0.00  0.00    +0.000 A 
BRANCH   5  15
ATOM     11  C   UNL     1       6.335   3.460  12.458  0.00  0.00    +0.000 C 
ATOM     12  C   UNL     1       6.499   4.272  13.674  0.00  0.00    +0.000 A 
ATOM     13  N   UNL     1       7.530   4.985  14.071  0.00  0.00    +0.000 NA
ATOM     14  N   UNL     1       7.136   5.616  15.229  0.00  0.00    +0.000 NA
ATOM     15  C   UNL     1       5.890   5.248  15.457  0.00  0.00    +0.000 A 
ATOM     16  O   UNL     1       5.423   4.367  14.516  0.00  0.00    +0.000 OA
ENDBRANCH   5  15
ENDBRANCH   1   8
BRANCH   3  17
ATOM     17  C   UNL     1       1.020   8.754  20.659  0.00  0.00    +0.000 C 
BRANCH  17  18
ATOM     18  C   UNL     1       0.678  10.232  20.461  0.00  0.00    +0.000 C 
BRANCH  18  19
ATOM     19  C   UNL     1      -0.420  10.437  19.446  0.00  0.00    +0.000 A 
ATOM     20  C   UNL     1      -1.445  11.359  19.692  0.00  0.00    +0.000 A 
ATOM     21  C   UNL     1      -2.446  11.576  18.743  0.00  0.00    +0.000 A 
ATOM     22  C   UNL     1      -2.452  10.865  17.534  0.00  0.00    +0.000 A 
ATOM     23  C   UNL     1      -1.437   9.926  17.299  0.00  0.00    +0.000 A 
ATOM     24  C   UNL     1      -0.433   9.710  18.248  0.00  0.00    +0.000 A 
BRANCH  22  25
ATOM     25  C   UNL     1      -3.525  11.104  16.502  0.00  0.00    +0.000 C 
ATOM     26  F   UNL     1      -4.399  12.091  16.844  0.00  0.00    +0.000 F 
ATOM     27  F   UNL     1      -3.013  11.465  15.292  0.00  0.00    +0.000 F 
ATOM     28  F   UNL     1      -4.286   9.998  16.270  0.00  0.00    +0.000 F 
ENDBRANCH  22  25
ENDBRANCH  18  19
ENDBRANCH  17  18
ENDBRANCH   3  17
TORSDOF 6
ENDMDL
MODEL 3
REMARK VINA RESULT:      -8.2      7.143      9.396
REMARK  Name = 
REMARK  7 active torsions:
REMARK  status: ('A' for Active; 'I' for Inactive)
REMARK    1  A    between atoms: C_1  and  C_2
REMARK    2  A    between atoms: C_5  and  C_6
REMARK    3  A    between atoms: C_9  and  C_10
REMARK    4  A    between atoms: N_12  and  C_13
REMARK    5  A    between atoms: C_13  and  C_14
REMARK    6  A    between atoms: C_14  and  C_15
REMARK    7  A    between atoms: C_18  and  C_19
REMARK                            x       y       z     vdW  Elec       q    Type
REMARK                         _______ _______ _______ _____ _____    ______ ____
ROOT
ATOM      1  C   UNL     1       8.087   8.177  18.184  0.00  0.00    +0.000 C 
ATOM      2  O   UNL     1       8.531   7.275  18.890  0.00  0.00    +0.000 OA
ATOM      3  N   UNL     1       7.122   7.972  17.217  0.00  0.00    +0.000 N 
ATOM      4  H   UNL     1       6.668   8.765  16.780  0.00  0.00    +0.000 HD
ENDROOT
BRANCH   1   8
ATOM      5  C   UNL     1       9.400  12.260  18.689  0.00  0.00    +0.000 A 
ATOM      6  C   UNL     1       9.822  11.266  19.587  0.00  0.00    +0.000 A 
ATOM      7  C   UNL     1       9.407   9.936  19.449  0.00  0.00    +0.000 A 
ATOM      8  C   UNL     1       8.562   9.576  18.393  0.00  0.00    +0.000 A 
ATOM      9  C   UNL     1       8.120  10.566  17.502  0.00  0.00    +0.000 A 
ATOM     10  C   UNL     1       8.537  11.895  17.647  0.00  0.00    +0.000 A 
BRANCH   5  15
ATOM     11  C   UNL     1       9.052  17.056  18.814  0.00  0.00    +0.000 C 
ATOM     12  C   UNL     1       9.710  15.745  18.937  0.00  0.00    +0.000 A 
ATOM     13  N   UNL     1      10.892  15.446  19.427  0.00  0.00    +0.000 NA
ATOM     14  N   UNL     1      10.989  14.073  19.387  0.00  0.00    +0.000 NA
ATOM     15  C   UNL     1       9.855  13.629  18.878  0.00  0.00    +0.000 A 
ATOM     16  O   UNL     1       8.997  14.644  18.542  0.00  0.00    +0.000 OA
ENDBRANCH   5  15
ENDBRANCH   1   8
BRANCH   3  17
ATOM     17  C   UNL     1       6.577   6.641  17.008  0.00  0.00    +0.000 C 
BRANCH  17  18
ATOM     18  C   UNL     1       5.185   6.667  16.375  0.00  0.00    +0.000 C 
BRANCH  18  19
ATOM     19  C   UNL     1       4.189   5.829  17.139  0.00  0.00    +0.000 A 
ATOM     20  C   UNL     1       4.152   4.441  16.962  0.00  0.00    +0.000 A 
ATOM     21  C   UNL     1       3.253   3.657  17.689  0.00  0.00    +0.000 A 
ATOM     22  C   UNL     1       2.362   4.246  18.597  0.00  0.00    +0.000 A 
ATOM     23  C   UNL     1       2.385   5.640  18.757  0.00  0.00    +0.000 A 
ATOM     24  C   UNL     1       3.286   6.425  18.031  0.00  0.00    +0.000 A 
BRANCH  22  25
ATOM     25  C   UNL     1       1.398   3.403  19.393  0.00  0.00    +0.000 C 
ATOM     26  F   UNL     1       2.011   2.513  20.223  0.00  0.00    +0.000 F 
ATOM     27  F   UNL     1       0.584   4.151  20.188  0.00  0.00    +0.000 F 
ATOM     28  F   UNL     1       0.571   2.663  18.602  0.00  0.00    +0.000 F 
ENDBRANCH  22  25
ENDBRANCH  18  19
ENDBRANCH  17  18
ENDBRANCH   3  17
TORSDOF 6
ENDMDL
MODEL 4
REMARK VINA RESULT:      -8.2      6.065     10.587
REMARK  Name = 
REMARK  7 active torsions:
REMARK  status: ('A' for Active; 'I' for Inactive)
REMARK    1  A    between atoms: C_1  and  C_2
REMARK    2  A    between atoms: C_5  and  C_6
REMARK    3  A    between atoms: C_9  and  C_10
REMARK    4  A    between atoms: N_12  and  C_13
REMARK    5  A    between atoms: C_13  and  C_14
REMARK    6  A    between atoms: C_14  and  C_15
REMARK    7  A    between atoms: C_18  and  C_19
REMARK                            x       y       z     vdW  Elec       q    Type
REMARK                         _______ _______ _______ _____ _____    ______ ____
ROOT
ATOM      1  C   UNL     1       3.197   6.084  19.410  0.00  0.00    +0.000 C 
ATOM      2  O   UNL     1       2.804   5.184  20.148  0.00  0.00    +0.000 OA
ATOM      3  N   UNL     1       4.351   5.989  18.655  0.00  0.00    +0.000 N 
ATOM      4  H   UNL     1       4.545   6.678  17.939  0.00  0.00    +0.000 HD
ENDROOT
BRANCH   1   8
ATOM      5  C   UNL     1       0.878   9.687  18.878  0.00  0.00    +0.000 A 
ATOM      6  C   UNL     1       0.965   9.082  20.143  0.00  0.00    +0.000 A 
ATOM      7  C   UNL     1       1.706   7.911  20.341  0.00  0.00    +0.000 A 
ATOM      8  C   UNL     1       2.386   7.327  19.266  0.00  0.00    +0.000 A 
ATOM      9  C   UNL     1       2.289   7.914  17.996  0.00  0.00    +0.000 A 
ATOM     10  C   UNL     1       1.544   9.084  17.803  0.00  0.00    +0.000 A 
BRANCH   5  15
ATOM     11  C   UNL     1      -0.072  14.397  19.113  0.00  0.00    +0.000 C 
ATOM     12  C   UNL     1      -0.335  12.978  18.822  0.00  0.00    +0.000 A 
ATOM     13  N   UNL     1      -1.335  12.430  18.168  0.00  0.00    +0.000 NA
ATOM     14  N   UNL     1      -1.060  11.082  18.106  0.00  0.00    +0.000 NA
ATOM     15  C   UNL     1       0.092  10.902  18.723  0.00  0.00    +0.000 A 
ATOM     16  O   UNL     1       0.603  12.068  19.231  0.00  0.00    +0.000 OA
ENDBRANCH   5  15
ENDBRANCH   1   8
BRANCH   3  17
ATOM     17  C   UNL     1       5.153   4.777  18.706  0.00  0.00    +0.000 C 
BRANCH  17  18
ATOM     18  C   UNL     1       6.497   4.930  17.993  0.00  0.00    +0.000 C 
BRANCH  18  19
ATOM     19  C   UNL     1       6.406   4.617  16.519  0.00  0.00    +0.000 A 
ATOM     20  C   UNL     1       7.410   5.047  15.643  0.00  0.00    +0.000 A 
ATOM     21  C   UNL     1       7.347   4.734  14.284  0.00  0.00    +0.000 A 
ATOM     22  C   UNL     1       6.271   3.998  13.769  0.00  0.00    +0.000 A 
ATOM     23  C   UNL     1       5.254   3.587  14.644  0.00  0.00    +0.000 A 
ATOM     24  C   UNL     1       5.318   3.898  16.006  0.00  0.00    +0.000 A 
BRANCH  22  25
ATOM     25  C   UNL     1       6.204   3.648  12.304  0.00  0.00    +0.000 C 
ATOM     26  F   UNL     1       4.952   3.755  11.775  0.00  0.00    +0.000 F 
ATOM     27  F   UNL     1       6.998   4.447  11.540  0.00  0.00    +0.000 F 
ATOM     28  F   UNL     1       6.604   2.370  12.050  0.00  0.00    +0.000 F 
ENDBRANCH  22  25
ENDBRANCH  18  19
ENDBRANCH  17  18
ENDBRANCH   3  17
TORSDOF 6
ENDMDL
MODEL 5
REMARK VINA RESULT:      -8.2      5.869     10.654
REMARK  Name = 
REMARK  7 active torsions:
REMARK  status: ('A' for Active; 'I' for Inactive)
REMARK    1  A    between atoms: C_1  and  C_2
REMARK    2  A    between atoms: C_5  and  C_6
REMARK    3  A    between atoms: C_9  and  C_10
REMARK    4  A    between atoms: N_12  and  C_13
REMARK    5  A    between atoms: C_13  and  C_14
REMARK    6  A    between atoms: C_14  and  C_15
REMARK    7  A    between atoms: C_18  and  C_19
REMARK                            x       y       z     vdW  Elec       q    Type
REMARK                         _______ _______ _______ _____ _____    ______ ____
ROOT
ATOM      1  C   UNL     1       3.408   5.612  18.872  0.00  0.00    +0.000 C 
ATOM      2  O   UNL     1       2.882   4.685  18.259  0.00  0.00    +0.000 OA
ATOM      3  N   UNL     1       4.748   5.628  19.207  0.00  0.00    +0.000 N 
ATOM      4  H   UNL     1       5.170   6.480  19.559  0.00  0.00    +0.000 HD
ENDROOT
BRANCH   1   8
ATOM      5  C   UNL     1       1.072   9.115  19.829  0.00  0.00    +0.000 A 
ATOM      6  C   UNL     1       1.258   8.105  20.788  0.00  0.00    +0.000 A 
ATOM      7  C   UNL     1       2.006   6.957  20.501  0.00  0.00    +0.000 A 
ATOM      8  C   UNL     1       2.594   6.806  19.240  0.00  0.00    +0.000 A 
ATOM      9  C   UNL     1       2.398   7.800  18.270  0.00  0.00    +0.000 A 
ATOM     10  C   UNL     1       1.646   8.945  18.562  0.00  0.00    +0.000 A 
BRANCH   5  15
ATOM     11  C   UNL     1      -2.580  12.230  19.520  0.00  0.00    +0.000 C 
ATOM     12  C   UNL     1      -1.327  11.665  20.045  0.00  0.00    +0.000 A 
ATOM     13  N   UNL     1      -0.645  11.999  21.118  0.00  0.00    +0.000 NA
ATOM     14  N   UNL     1       0.401  11.107  21.201  0.00  0.00    +0.000 NA
ATOM     15  C   UNL     1       0.282  10.287  20.174  0.00  0.00    +0.000 A 
ATOM     16  O   UNL     1      -0.787  10.599  19.374  0.00  0.00    +0.000 OA
ENDBRANCH   5  15
ENDBRANCH   1   8
BRANCH   3  17
ATOM     17  C   UNL     1       5.606   4.520  18.822  0.00  0.00    +0.000 C 
BRANCH  17  18
ATOM     18  C   UNL     1       6.771   4.958  17.933  0.00  0.00    +0.000 C 
BRANCH  18  19
ATOM     19  C   UNL     1       6.551   4.605  16.482  0.00  0.00    +0.000 A 
ATOM     20  C   UNL     1       7.415   5.099  15.497  0.00  0.00    +0.000 A 
ATOM     21  C   UNL     1       7.235   4.750  14.157  0.00  0.00    +0.000 A 
ATOM     22  C   UNL     1       6.179   3.912  13.771  0.00  0.00    +0.000 A 
ATOM     23  C   UNL     1       5.301   3.436  14.756  0.00  0.00    +0.000 A 
ATOM     24  C   UNL     1       5.483   3.783  16.099  0.00  0.00    +0.000 A 
BRANCH  22  25
ATOM     25  C   UNL     1       5.987   3.524  12.326  0.00  0.00    +0.000 C 
ATOM     26  F   UNL     1       6.136   2.189  12.097  0.00  0.00    +0.000 F 
ATOM     27  F   UNL     1       4.749   3.844  11.860  0.00  0.00    +0.000 F 
ATOM     28  F   UNL     1       6.871   4.143  11.494  0.00  0.00    +0.000 F 
ENDBRANCH  22  25
ENDBRANCH  18  19
ENDBRANCH  17  18
ENDBRANCH   3  17
TORSDOF 6
ENDMDL
MODEL 6
REMARK VINA RESULT:      -8.2      5.907     10.608
REMARK  Name = 
REMARK  7 active torsions:
REMARK  status: ('A' for Active; 'I' for Inactive)
REMARK    1  A    between atoms: C_1  and  C_2
REMARK    2  A    between atoms: C_5  and  C_6
REMARK    3  A    between atoms: C_9  and  C_10
REMARK    4  A    between atoms: N_12  and  C_13
REMARK    5  A    between atoms: C_13  and  C_14
REMARK    6  A    between atoms: C_14  and  C_15
REMARK    7  A    between atoms: C_18  and  C_19
REMARK                            x       y       z     vdW  Elec       q    Type
REMARK                         _______ _______ _______ _____ _____    ______ ____
ROOT
ATOM      1  C   UNL     1       3.289   5.914  18.537  0.00  0.00    +0.000 C 
ATOM      2  O   UNL     1       2.840   5.081  17.753  0.00  0.00    +0.000 OA
ATOM      3  N   UNL     1       4.504   5.765  19.180  0.00  0.00    +0.000 N 
ATOM      4  H   UNL     1       4.908   6.547  19.681  0.00  0.00    +0.000 HD
ENDROOT
BRANCH   1   8
ATOM      5  C   UNL     1       1.112   9.592  19.150  0.00  0.00    +0.000 A 
ATOM      6  C   UNL     1       1.284   8.687  20.211  0.00  0.00    +0.000 A 
ATOM      7  C   UNL     1       1.982   7.486  20.037  0.00  0.00    +0.000 A 
ATOM      8  C   UNL     1       2.530   7.173  18.788  0.00  0.00    +0.000 A 
ATOM      9  C   UNL     1       2.347   8.061  17.719  0.00  0.00    +0.000 A 
ATOM     10  C   UNL     1       1.646   9.261  17.897  0.00  0.00    +0.000 A 
BRANCH   5  15
ATOM     11  C   UNL     1      -2.217  12.449  21.123  0.00  0.00    +0.000 C 
ATOM     12  C   UNL     1      -1.089  12.093  20.246  0.00  0.00    +0.000 A 
ATOM     13  N   UNL     1      -0.314  12.871  19.525  0.00  0.00    +0.000 NA
ATOM     14  N   UNL     1       0.636  12.049  18.960  0.00  0.00    +0.000 NA
ATOM     15  C   UNL     1       0.375  10.826  19.379  0.00  0.00    +0.000 A 
ATOM     16  O   UNL     1      -0.731  10.772  20.187  0.00  0.00    +0.000 OA
ENDBRANCH   5  15
ENDBRANCH   1   8
BRANCH   3  17
ATOM     17  C   UNL     1       5.317   4.587  18.930  0.00  0.00    +0.000 C 
BRANCH  17  18
ATOM     18  C   UNL     1       6.576   4.902  18.119  0.00  0.00    +0.000 C 
BRANCH  18  19
ATOM     19  C   UNL     1       6.414   4.575  16.654  0.00  0.00    +0.000 A 
ATOM     20  C   UNL     1       7.224   5.199  15.698  0.00  0.00    +0.000 A 
ATOM     21  C   UNL     1       7.099   4.878  14.345  0.00  0.00    +0.000 A 
ATOM     22  C   UNL     1       6.152   3.937  13.917  0.00  0.00    +0.000 A 
ATOM     23  C   UNL     1       5.326   3.329  14.874  0.00  0.00    +0.000 A 
ATOM     24  C   UNL     1       5.452   3.648  16.230  0.00  0.00    +0.000 A 
BRANCH  22  25
ATOM     25  C   UNL     1       6.022   3.579  12.458  0.00  0.00    +0.000 C 
ATOM     26  F   UNL     1       4.833   3.956  11.909  0.00  0.00    +0.000 F 
ATOM     27  F   UNL     1       6.985   4.161  11.690  0.00  0.00    +0.000 F 
ATOM     28  F   UNL     1       6.125   2.239  12.235  0.00  0.00    +0.000 F 
ENDBRANCH  22  25
ENDBRANCH  18  19
ENDBRANCH  17  18
ENDBRANCH   3  17
TORSDOF 6
ENDMDL
MODEL 7
REMARK VINA RESULT:      -8.2      7.167      9.218
REMARK  Name = 
REMARK  7 active torsions:
REMARK  status: ('A' for Active; 'I' for Inactive)
REMARK    1  A    between atoms: C_1  and  C_2
REMARK    2  A    between atoms: C_5  and  C_6
REMARK    3  A    between atoms: C_9  and  C_10
REMARK    4  A    between atoms: N_12  and  C_13
REMARK    5  A    between atoms: C_13  and  C_14
REMARK    6  A    between atoms: C_14  and  C_15
REMARK    7  A    between atoms: C_18  and  C_19
REMARK                            x       y       z     vdW  Elec       q    Type
REMARK                         _______ _______ _______ _____ _____    ______ ____
ROOT
ATOM      1  C   UNL     1       8.085   8.284  18.139  0.00  0.00    +0.000 C 
ATOM      2  O   UNL     1       8.522   7.406  18.880  0.00  0.00    +0.000 OA
ATOM      3  N   UNL     1       7.135   8.043  17.165  0.00  0.00    +0.000 N 
ATOM      4  H   UNL     1       6.684   8.820  16.697  0.00  0.00    +0.000 HD
ENDROOT
BRANCH   1   8
ATOM      5  C   UNL     1       9.502  12.321  18.726  0.00  0.00    +0.000 A 
ATOM      6  C   UNL     1       8.583  12.036  17.702  0.00  0.00    +0.000 A 
ATOM      7  C   UNL     1       8.112  10.734  17.487  0.00  0.00    +0.000 A 
ATOM      8  C   UNL     1       8.551   9.691  18.309  0.00  0.00    +0.000 A 
ATOM      9  C   UNL     1       9.483   9.963  19.322  0.00  0.00    +0.000 A 
ATOM     10  C   UNL     1       9.952  11.266  19.530  0.00  0.00    +0.000 A 
BRANCH   5  15
ATOM     11  C   UNL     1      11.044  16.676  17.387  0.00  0.00    +0.000 C 
ATOM     12  C   UNL     1      10.644  15.613  18.324  0.00  0.00    +0.000 A 
ATOM     13  N   UNL     1      10.438  15.674  19.620  0.00  0.00    +0.000 NA
ATOM     14  N   UNL     1      10.000  14.425  19.999  0.00  0.00    +0.000 NA
ATOM     15  C   UNL     1       9.964  13.689  18.906  0.00  0.00    +0.000 A 
ATOM     16  O   UNL     1      10.388  14.374  17.797  0.00  0.00    +0.000 OA
ENDBRANCH   5  15
ENDBRANCH   1   8
BRANCH   3  17
ATOM     17  C   UNL     1       6.598   6.704  16.992  0.00  0.00    +0.000 C 
BRANCH  17  18
ATOM     18  C   UNL     1       5.121   6.708  16.591  0.00  0.00    +0.000 C 
BRANCH  18  19
ATOM     19  C   UNL     1       4.252   5.983  17.588  0.00  0.00    +0.000 A 
ATOM     20  C   UNL     1       4.430   4.613  17.815  0.00  0.00    +0.000 A 
ATOM     21  C   UNL     1       3.649   3.943  18.759  0.00  0.00    +0.000 A 
ATOM     22  C   UNL     1       2.663   4.624  19.486  0.00  0.00    +0.000 A 
ATOM     23  C   UNL     1       2.471   5.993  19.242  0.00  0.00    +0.000 A 
ATOM     24  C   UNL     1       3.254   6.665  18.298  0.00  0.00    +0.000 A 
BRANCH  22  25
ATOM     25  C   UNL     1       1.825   3.907  20.514  0.00  0.00    +0.000 C 
ATOM     26  F   UNL     1       1.872   2.550  20.403  0.00  0.00    +0.000 F 
ATOM     27  F   UNL     1       2.211   4.189  21.789  0.00  0.00    +0.000 F 
ATOM     28  F   UNL     1       0.506   4.240  20.441  0.00  0.00    +0.000 F 
ENDBRANCH  22  25
ENDBRANCH  18  19
ENDBRANCH  17  18
ENDBRANCH   3  17
TORSDOF 6
ENDMDL
MODEL 8
REMARK VINA RESULT:      -8.1      2.056      2.747
REMARK  Name = 
REMARK  7 active torsions:
REMARK  status: ('A' for Active; 'I' for Inactive)
REMARK    1  A    between atoms: C_1  and  C_2
REMARK    2  A    between atoms: C_5  and  C_6
REMARK    3  A    between atoms: C_9  and  C_10
REMARK    4  A    between atoms: N_12  and  C_13
REMARK    5  A    between atoms: C_13  and  C_14
REMARK    6  A    between atoms: C_14  and  C_15
REMARK    7  A    between atoms: C_18  and  C_19
REMARK                            x       y       z     vdW  Elec       q    Type
REMARK                         _______ _______ _______ _____ _____    ______ ____
ROOT
ATOM      1  C   UNL     1       2.243   6.290  19.989  0.00  0.00    +0.000 C 
ATOM      2  O   UNL     1       1.698   5.379  20.608  0.00  0.00    +0.000 OA
ATOM      3  N   UNL     1       2.059   7.625  20.296  0.00  0.00    +0.000 N 
ATOM      4  H   UNL     1       2.654   8.326  19.873  0.00  0.00    +0.000 HD
ENDROOT
BRANCH   1   8
ATOM      5  C   UNL     1       4.973   5.465  16.747  0.00  0.00    +0.000 A 
ATOM      6  C   UNL     1       4.592   4.439  17.628  0.00  0.00    +0.000 A 
ATOM      7  C   UNL     1       3.712   4.682  18.690  0.00  0.00    +0.000 A 
ATOM      8  C   UNL     1       3.189   5.965  18.882  0.00  0.00    +0.000 A 
ATOM      9  C   UNL     1       3.579   6.999  18.019  0.00  0.00    +0.000 A 
ATOM     10  C   UNL     1       4.462   6.752  16.960  0.00  0.00    +0.000 A 
BRANCH   5  15
ATOM     11  C   UNL     1       6.387   3.619  12.537  0.00  0.00    +0.000 C 
ATOM     12  C   UNL     1       6.526   4.353  13.804  0.00  0.00    +0.000 A 
ATOM     13  N   UNL     1       7.518   5.100  14.233  0.00  0.00    +0.000 NA
ATOM     14  N   UNL     1       7.110   5.624  15.440  0.00  0.00    +0.000 NA
ATOM     15  C   UNL     1       5.894   5.164  15.661  0.00  0.00    +0.000 A 
ATOM     16  O   UNL     1       5.463   4.322  14.669  0.00  0.00    +0.000 OA
ENDBRANCH   5  15
ENDBRANCH   1   8
BRANCH   3  17
ATOM     17  C   UNL     1       1.196   8.001  21.403  0.00  0.00    +0.000 C 
BRANCH  17  18
ATOM     18  C   UNL     1      -0.106   8.657  20.939  0.00  0.00    +0.000 C 
BRANCH  18  19
ATOM     19  C   UNL     1       0.106  10.062  20.432  0.00  0.00    +0.000 A 
ATOM     20  C   UNL     1      -0.303  10.416  19.141  0.00  0.00    +0.000 A 
ATOM     21  C   UNL     1      -0.138  11.723  18.677  0.00  0.00    +0.000 A 
ATOM     22  C   UNL     1       0.453  12.700  19.489  0.00  0.00    +0.000 A 
ATOM     23  C   UNL     1       0.883  12.339  20.775  0.00  0.00    +0.000 A 
ATOM     24  C   UNL     1       0.716  11.031  21.241  0.00  0.00    +0.000 A 
BRANCH  22  25
ATOM     25  C   UNL     1       0.624  14.116  18.997  0.00  0.00    +0.000 C 
ATOM     26  F   UNL     1       1.699  14.281  18.177  0.00  0.00    +0.000 F 
ATOM     27  F   UNL     1      -0.454  14.555  18.289  0.00  0.00    +0.000 F 
ATOM     28  F   UNL     1       0.792  15.008  20.013  0.00  0.00    +0.000 F 
ENDBRANCH  22  25
ENDBRANCH  18  19
ENDBRANCH  17  18
ENDBRANCH   3  17
TORSDOF 6
ENDMDL
MODEL 9
REMARK VINA RESULT:      -8.1      1.629      2.348
REMARK  Name = 
REMARK  7 active torsions:
REMARK  status: ('A' for Active; 'I' for Inactive)
REMARK    1  A    between atoms: C_1  and  C_2
REMARK    2  A    between atoms: C_5  and  C_6
REMARK    3  A    between atoms: C_9  and  C_10
REMARK    4  A    between atoms: N_12  and  C_13
REMARK    5  A    between atoms: C_13  and  C_14
REMARK    6  A    between atoms: C_14  and  C_15
REMARK    7  A    between atoms: C_18  and  C_19
REMARK                            x       y       z     vdW  Elec       q    Type
REMARK                         _______ _______ _______ _____ _____    ______ ____
ROOT
ATOM      1  C   UNL     1       2.342   5.705  19.324  0.00  0.00    +0.000 C 
ATOM      2  O   UNL     1       1.522   4.821  19.562  0.00  0.00    +0.000 OA
ATOM      3  N   UNL     1       2.413   6.881  20.047  0.00  0.00    +0.000 N 
ATOM      4  H   UNL     1       3.205   7.500  19.926  0.00  0.00    +0.000 HD
ENDROOT
BRANCH   1   8
ATOM      5  C   UNL     1       5.253   5.247  16.168  0.00  0.00    +0.000 A 
ATOM      6  C   UNL     1       4.732   4.116  16.819  0.00  0.00    +0.000 A 
ATOM      7  C   UNL     1       3.791   4.238  17.849  0.00  0.00    +0.000 A 
ATOM      8  C   UNL     1       3.346   5.505  18.239  0.00  0.00    +0.000 A 
ATOM      9  C   UNL     1       3.875   6.641  17.608  0.00  0.00    +0.000 A 
ATOM     10  C   UNL     1       4.818   6.513  16.580  0.00  0.00    +0.000 A 
BRANCH   5  15
ATOM     11  C   UNL     1       6.941   3.758  11.917  0.00  0.00    +0.000 C 
ATOM     12  C   UNL     1       6.985   4.416  13.233  0.00  0.00    +0.000 A 
ATOM     13  N   UNL     1       7.913   5.189  13.751  0.00  0.00    +0.000 NA
ATOM     14  N   UNL     1       7.428   5.610  14.968  0.00  0.00    +0.000 NA
ATOM     15  C   UNL     1       6.233   5.068  15.107  0.00  0.00    +0.000 A 
ATOM     16  O   UNL     1       5.892   4.270  14.046  0.00  0.00    +0.000 OA
ENDBRANCH   5  15
ENDBRANCH   1   8
BRANCH   3  17
ATOM     17  C   UNL     1       1.500   7.107  21.155  0.00  0.00    +0.000 C 
BRANCH  17  18
ATOM     18  C   UNL     1       1.462   8.570  21.598  0.00  0.00    +0.000 C 
BRANCH  18  19
ATOM     19  C   UNL     1       0.639   9.431  20.670  0.00  0.00    +0.000 A 
ATOM     20  C   UNL     1      -0.324  10.306  21.187  0.00  0.00    +0.000 A 
ATOM     21  C   UNL     1      -1.066  11.127  20.336  0.00  0.00    +0.000 A 
ATOM     22  C   UNL     1      -0.871  11.081  18.948  0.00  0.00    +0.000 A 
ATOM     23  C   UNL     1       0.079  10.188  18.430  0.00  0.00    +0.000 A 
ATOM     24  C   UNL     1       0.824   9.367  19.282  0.00  0.00    +0.000 A 
BRANCH  22  25
ATOM     25  C   UNL     1      -1.662  11.974  18.026  0.00  0.00    +0.000 C 
ATOM     26  F   UNL     1      -2.858  12.370  18.545  0.00  0.00    +0.000 F 
ATOM     27  F   UNL     1      -0.996  13.120  17.712  0.00  0.00    +0.000 F 
ATOM     28  F   UNL     1      -1.955  11.374  16.838  0.00  0.00    +0.000 F 
ENDBRANCH  22  25
ENDBRANCH  18  19
ENDBRANCH  17  18
ENDBRANCH   3  17
TORSDOF 6
ENDMDL
