MODEL 1
REMARK VINA RESULT:      -8.3      0.000      0.000
REMARK  Name = 
REMARK  7 active torsions:
REMARK  status: ('A' for Active; 'I' for Inactive)
REMARK    1  A    between atoms: C_1  and  O_2
REMARK    2  A    between atoms: O_2  and  C_3
REMARK    3  A    between atoms: C_6  and  O_7
REMARK    4  A    between atoms: O_7  and  C_8
REMARK    5  A    between atoms: C_9  and  N_10
REMARK    6  A    between atoms: C_11  and  C_13
REMARK    7  A    between atoms: N_15  and  C_16
REMARK                            x       y       z     vdW  Elec       q    Type
REMARK                         _______ _______ _______ _____ _____    ______ ____
ROOT
ATOM      1  C   UNL     1       2.493   6.813  18.381  0.00  0.00    +0.000 A 
ATOM      2  N   UNL     1       3.119   6.836  17.230  0.00  0.00    +0.000 NA
ATOM      3  N   UNL     1       4.093   5.822  17.117  0.00  0.00    +0.000 N 
ATOM      4  C   UNL     1       3.604   4.508  17.297  0.00  0.00    +0.000 A 
ATOM      5  O   UNL     1       4.023   3.508  16.721  0.00  0.00    +0.000 OA
ATOM      6  C   UNL     1       2.633   4.391  18.428  0.00  0.00    +0.000 A 
ATOM      7  C   UNL     1       2.238   3.140  18.905  0.00  0.00    +0.000 A 
ATOM      8  C   UNL     1       1.706   3.043  20.190  0.00  0.00    +0.000 A 
ATOM      9  C   UNL     1       1.637   4.179  21.001  0.00  0.00    +0.000 A 
ATOM     10  C   UNL     1       1.940   5.440  20.480  0.00  0.00    +0.000 A 
ATOM     11  C   UNL     1       2.352   5.553  19.154  0.00  0.00    +0.000 A 
ENDROOT
BRANCH   3  12
ATOM     12  C   UNL     1       5.213   6.266  17.978  0.00  0.00    +0.000 A 
ATOM     13  C   UNL     1       6.142   7.218  17.542  0.00  0.00    +0.000 A 
ATOM     14  C   UNL     1       7.482   7.096  17.937  0.00  0.00    +0.000 A 
ATOM     15  C   UNL     1       7.878   6.074  18.801  0.00  0.00    +0.000 A 
ATOM     16  C   UNL     1       6.922   5.256  19.390  0.00  0.00    +0.000 A 
ATOM     17  C   UNL     1       5.584   5.401  19.033  0.00  0.00    +0.000 A 
ENDBRANCH   3  12
BRANCH   1  19
ATOM     18  N   UNL     1       1.710   9.069  17.917  0.00  0.00    +0.000 N 
ATOM     19  C   UNL     1       2.020   8.164  18.903  0.00  0.00    +0.000 C 
ATOM     20  O   UNL     1       2.002   8.374  20.103  0.00  0.00    +0.000 OA
ATOM     21  H   UNL     1       1.457   8.695  17.008  0.00  0.00    +0.000 HD
BRANCH  18  26
ATOM     22  C   UNL     1       2.145  12.738  18.408  0.00  0.00    +0.000 A 
ATOM     23  C   UNL     1       0.832  13.094  18.708  0.00  0.00    +0.000 A 
ATOM     24  C   UNL     1      -0.186  12.130  18.704  0.00  0.00    +0.000 A 
ATOM     25  C   UNL     1       0.097  10.798  18.399  0.00  0.00    +0.000 A 
ATOM     26  C   UNL     1       1.427  10.425  18.166  0.00  0.00    +0.000 A 
ATOM     27  C   UNL     1       2.440  11.395  18.159  0.00  0.00    +0.000 A 
BRANCH  22  29
ATOM     28  C   UNL     1       2.906  14.984  18.219  0.00  0.00    +0.000 C 
ATOM     29  O   UNL     1       3.206  13.596  18.316  0.00  0.00    +0.000 OA
ENDBRANCH  22  29
BRANCH  25  30
ATOM     30  O   UNL     1      -0.824   9.783  18.341  0.00  0.00    +0.000 OA
ATOM     31  C   UNL     1      -1.896   9.951  17.424  0.00  0.00    +0.000 C 
ENDBRANCH  25  30
ENDBRANCH  18  26
ENDBRANCH   1  19
TORSDOF 5
ENDMDL
MODEL 2
REMARK VINA RESULT:      -8.3      1.721      2.424
REMARK  Name = 
REMARK  7 active torsions:
REMARK  status: ('A' for Active; 'I' for Inactive)
REMARK    1  A    between atoms: C_1  and  O_2
REMARK    2  A    between atoms: O_2  and  C_3
REMARK    3  A    between atoms: C_6  and  O_7
REMARK    4  A    between atoms: O_7  and  C_8
REMARK    5  A    between atoms: C_9  and  N_10
REMARK    6  A    between atoms: C_11  and  C_13
REMARK    7  A    between atoms: N_15  and  C_16
REMARK                            x       y       z     vdW  Elec       q    Type
REMARK                         _______ _______ _______ _____ _____    ______ ____
ROOT
ATOM      1  C   UNL     1       2.710   7.003  17.962  0.00  0.00    +0.000 A 
ATOM      2  N   UNL     1       3.422   6.823  16.877  0.00  0.00    +0.000 NA
ATOM      3  N   UNL     1       4.361   5.778  17.006  0.00  0.00    +0.000 N 
ATOM      4  C   UNL     1       3.808   4.524  17.353  0.00  0.00    +0.000 A 
ATOM      5  O   UNL     1       4.230   3.433  16.979  0.00  0.00    +0.000 OA
ATOM      6  C   UNL     1       2.751   4.617  18.405  0.00  0.00    +0.000 A 
ATOM      7  C   UNL     1       2.271   3.471  19.041  0.00  0.00    +0.000 A 
ATOM      8  C   UNL     1       1.640   3.597  20.278  0.00  0.00    +0.000 A 
ATOM      9  C   UNL     1       1.554   4.851  20.890  0.00  0.00    +0.000 A 
ATOM     10  C   UNL     1       1.945   6.002  20.201  0.00  0.00    +0.000 A 
ATOM     11  C   UNL     1       2.461   5.889  18.911  0.00  0.00    +0.000 A 
ENDROOT
BRANCH   3  12
ATOM     12  C   UNL     1       5.429   6.325  17.873  0.00  0.00    +0.000 A 
ATOM     13  C   UNL     1       6.298   7.328  17.425  0.00  0.00    +0.000 A 
ATOM     14  C   UNL     1       7.635   7.312  17.848  0.00  0.00    +0.000 A 
ATOM     15  C   UNL     1       8.084   6.346  18.751  0.00  0.00    +0.000 A 
ATOM     16  C   UNL     1       7.175   5.480  19.347  0.00  0.00    +0.000 A 
ATOM     17  C   UNL     1       5.838   5.520  18.962  0.00  0.00    +0.000 A 
ENDBRANCH   3  12
BRANCH   1  19
ATOM     18  N   UNL     1       1.181   8.533  19.077  0.00  0.00    +0.000 N 
ATOM     19  C   UNL     1       2.253   8.432  18.223  0.00  0.00    +0.000 C 
ATOM     20  O   UNL     1       2.798   9.355  17.643  0.00  0.00    +0.000 OA
ATOM     21  H   UNL     1       1.032   7.765  19.724  0.00  0.00    +0.000 HD
BRANCH  18  26
ATOM     22  C   UNL     1      -1.024  11.497  18.588  0.00  0.00    +0.000 A 
ATOM     23  C   UNL     1      -0.841  12.133  19.814  0.00  0.00    +0.000 A 
ATOM     24  C   UNL     1      -0.029  11.557  20.800  0.00  0.00    +0.000 A 
ATOM     25  C   UNL     1       0.612  10.338  20.572  0.00  0.00    +0.000 A 
ATOM     26  C   UNL     1       0.485   9.732  19.316  0.00  0.00    +0.000 A 
ATOM     27  C   UNL     1      -0.339  10.305  18.337  0.00  0.00    +0.000 A 
BRANCH  22  29
ATOM     28  C   UNL     1      -2.352  10.931  16.697  0.00  0.00    +0.000 C 
ATOM     29  O   UNL     1      -1.841  11.925  17.578  0.00  0.00    +0.000 OA
ENDBRANCH  22  29
BRANCH  25  30
ATOM     30  O   UNL     1       1.405   9.676  21.476  0.00  0.00    +0.000 OA
ATOM     31  C   UNL     1       0.776   9.237  22.671  0.00  0.00    +0.000 C 
ENDBRANCH  25  30
ENDBRANCH  18  26
ENDBRANCH   1  19
TORSDOF 5
ENDMDL
MODEL 3
REMARK VINA RESULT:      -8.3      2.362      4.551
REMARK  Name = 
REMARK  7 active torsions:
REMARK  status: ('A' for Active; 'I' for Inactive)
REMARK    1  A    between atoms: C_1  and  O_2
REMARK    2  A    between atoms: O_2  and  C_3
REMARK    3  A    between atoms: C_6  and  O_7
REMARK    4  A    between atoms: O_7  and  C_8
REMARK    5  A    between atoms: C_9  and  N_10
REMARK    6  A    between atoms: C_11  and  C_13
REMARK    7  A    between atoms: N_15  and  C_16
REMARK                            x       y       z     vdW  Elec       q    Type
REMARK                         _______ _______ _______ _____ _____    ______ ____
ROOT
ATOM      1  C   UNL     1       3.540   6.920  18.525  0.00  0.00    +0.000 A 
ATOM      2  N   UNL     1       3.447   6.368  19.710  0.00  0.00    +0.000 NA
ATOM      3  N   UNL     1       3.756   4.991  19.698  0.00  0.00    +0.000 N 
ATOM      4  C   UNL     1       5.040   4.677  19.194  0.00  0.00    +0.000 A 
ATOM      5  O   UNL     1       5.749   3.753  19.581  0.00  0.00    +0.000 OA
ATOM      6  C   UNL     1       5.402   5.463  17.975  0.00  0.00    +0.000 A 
ATOM      7  C   UNL     1       6.514   5.118  17.205  0.00  0.00    +0.000 A 
ATOM      8  C   UNL     1       6.584   5.556  15.884  0.00  0.00    +0.000 A 
ATOM      9  C   UNL     1       5.520   6.274  15.332  0.00  0.00    +0.000 A 
ATOM     10  C   UNL     1       4.461   6.700  16.138  0.00  0.00    +0.000 A 
ATOM     11  C   UNL     1       4.452   6.369  17.491  0.00  0.00    +0.000 A 
ENDROOT
BRANCH   3  12
ATOM     12  C   UNL     1       2.587   4.340  19.066  0.00  0.00    +0.000 A 
ATOM     13  C   UNL     1       1.335   4.309  19.691  0.00  0.00    +0.000 A 
ATOM     14  C   UNL     1       0.522   3.177  19.538  0.00  0.00    +0.000 A 
ATOM     15  C   UNL     1       0.926   2.116  18.725  0.00  0.00    +0.000 A 
ATOM     16  C   UNL     1       2.072   2.237  17.949  0.00  0.00    +0.000 A 
ATOM     17  C   UNL     1       2.861   3.378  18.065  0.00  0.00    +0.000 A 
ENDBRANCH   3  12
BRANCH   1  19
ATOM     18  N   UNL     1       1.783   8.400  19.326  0.00  0.00    +0.000 N 
ATOM     19  C   UNL     1       2.591   8.081  18.261  0.00  0.00    +0.000 C 
ATOM     20  O   UNL     1       2.561   8.597  17.157  0.00  0.00    +0.000 OA
ATOM     21  H   UNL     1       2.112   8.137  20.251  0.00  0.00    +0.000 HD
BRANCH  18  26
ATOM     22  C   UNL     1      -1.113  10.348  18.020  0.00  0.00    +0.000 A 
ATOM     23  C   UNL     1      -1.364  11.165  19.120  0.00  0.00    +0.000 A 
ATOM     24  C   UNL     1      -0.605  11.035  20.291  0.00  0.00    +0.000 A 
ATOM     25  C   UNL     1       0.416  10.087  20.377  0.00  0.00    +0.000 A 
ATOM     26  C   UNL     1       0.715   9.312  19.249  0.00  0.00    +0.000 A 
ATOM     27  C   UNL     1      -0.055   9.437  18.084  0.00  0.00    +0.000 A 
BRANCH  22  29
ATOM     28  C   UNL     1      -2.946  11.209  16.773  0.00  0.00    +0.000 C 
ATOM     29  O   UNL     1      -1.826  10.335  16.853  0.00  0.00    +0.000 OA
ENDBRANCH  22  29
BRANCH  25  30
ATOM     30  O   UNL     1       1.199   9.859  21.480  0.00  0.00    +0.000 OA
ATOM     31  C   UNL     1       0.531   9.411  22.652  0.00  0.00    +0.000 C 
ENDBRANCH  25  30
ENDBRANCH  18  26
ENDBRANCH   1  19
TORSDOF 5
ENDMDL
MODEL 4
REMARK VINA RESULT:      -8.2      2.502      7.806
REMARK  Name = 
REMARK  7 active torsions:
REMARK  status: ('A' for Active; 'I' for Inactive)
REMARK    1  A    between atoms: C_1  and  O_2
REMARK    2  A    between atoms: O_2  and  C_3
REMARK    3  A    between atoms: C_6  and  O_7
REMARK    4  A    between atoms: O_7  and  C_8
REMARK    5  A    between atoms: C_9  and  N_10
REMARK    6  A    between atoms: C_11  and  C_13
REMARK    7  A    between atoms: N_15  and  C_16
REMARK                            x       y       z     vdW  Elec       q    Type
REMARK                         _______ _______ _______ _____ _____    ______ ____
ROOT
ATOM      1  C   UNL     1       0.654  10.191  19.160  0.00  0.00    +0.000 A 
ATOM      2  N   UNL     1       0.461  11.298  18.485  0.00  0.00    +0.000 NA
ATOM      3  N   UNL     1      -0.735  11.956  18.843  0.00  0.00    +0.000 N 
ATOM      4  C   UNL     1      -0.844  12.282  20.215  0.00  0.00    +0.000 A 
ATOM      5  O   UNL     1      -1.406  13.275  20.668  0.00  0.00    +0.000 OA
ATOM      6  C   UNL     1      -0.377  11.186  21.119  0.00  0.00    +0.000 A 
ATOM      7  C   UNL     1      -0.635  11.231  22.490  0.00  0.00    +0.000 A 
ATOM      8  C   UNL     1      -0.593  10.048  23.225  0.00  0.00    +0.000 A 
ATOM      9  C   UNL     1      -0.359   8.833  22.576  0.00  0.00    +0.000 A 
ATOM     10  C   UNL     1      -0.003   8.811  21.224  0.00  0.00    +0.000 A 
ATOM     11  C   UNL     1       0.079  10.009  20.517  0.00  0.00    +0.000 A 
ENDROOT
BRANCH   3  12
ATOM     12  C   UNL     1      -1.816  11.146  18.238  0.00  0.00    +0.000 A 
ATOM     13  C   UNL     1      -1.609  10.396  17.074  0.00  0.00    +0.000 A 
ATOM     14  C   UNL     1      -2.651  10.279  16.143  0.00  0.00    +0.000 A 
ATOM     15  C   UNL     1      -3.899  10.849  16.396  0.00  0.00    +0.000 A 
ATOM     16  C   UNL     1      -4.161  11.418  17.637  0.00  0.00    +0.000 A 
ATOM     17  C   UNL     1      -3.142  11.499  18.581  0.00  0.00    +0.000 A 
ENDBRANCH   3  12
BRANCH   1  19
ATOM     18  N   UNL     1       1.847   8.073  19.233  0.00  0.00    +0.000 N 
ATOM     19  C   UNL     1       1.408   9.092  18.423  0.00  0.00    +0.000 C 
ATOM     20  O   UNL     1       1.620   9.202  17.228  0.00  0.00    +0.000 OA
ATOM     21  H   UNL     1       1.349   7.930  20.107  0.00  0.00    +0.000 HD
BRANCH  18  26
ATOM     22  C   UNL     1       4.513   6.253  17.371  0.00  0.00    +0.000 A 
ATOM     23  C   UNL     1       4.379   4.989  17.941  0.00  0.00    +0.000 A 
ATOM     24  C   UNL     1       3.443   4.762  18.959  0.00  0.00    +0.000 A 
ATOM     25  C   UNL     1       2.628   5.798  19.420  0.00  0.00    +0.000 A 
ATOM     26  C   UNL     1       2.713   7.052  18.801  0.00  0.00    +0.000 A 
ATOM     27  C   UNL     1       3.659   7.277  17.791  0.00  0.00    +0.000 A 
BRANCH  22  29
ATOM     28  C   UNL     1       6.758   6.125  16.595  0.00  0.00    +0.000 C 
ATOM     29  O   UNL     1       5.431   6.610  16.423  0.00  0.00    +0.000 OA
ENDBRANCH  22  29
BRANCH  25  30
ATOM     30  O   UNL     1       1.701   5.692  20.426  0.00  0.00    +0.000 OA
ATOM     31  C   UNL     1       1.088   4.422  20.594  0.00  0.00    +0.000 C 
ENDBRANCH  25  30
ENDBRANCH  18  26
ENDBRANCH   1  19
TORSDOF 5
ENDMDL
MODEL 5
REMARK VINA RESULT:      -8.1      1.503      1.523
REMARK  Name = 
REMARK  7 active torsions:
REMARK  status: ('A' for Active; 'I' for Inactive)
REMARK    1  A    between atoms: C_1  and  O_2
REMARK    2  A    between atoms: O_2  and  C_3
REMARK    3  A    between atoms: C_6  and  O_7
REMARK    4  A    between atoms: O_7  and  C_8
REMARK    5  A    between atoms: C_9  and  N_10
REMARK    6  A    between atoms: C_11  and  C_13
REMARK    7  A    between atoms: N_15  and  C_16
REMARK                            x       y       z     vdW  Elec       q    Type
REMARK                         _______ _______ _______ _____ _____    ______ ____
ROOT
ATOM      1  C   UNL     1       2.704   7.281  17.957  0.00  0.00    +0.000 A 
ATOM      2  N   UNL     1       3.398   7.076  16.864  0.00  0.00    +0.000 NA
ATOM      3  N   UNL     1       4.283   5.983  16.975  0.00  0.00    +0.000 N 
ATOM      4  C   UNL     1       3.669   4.755  17.313  0.00  0.00    +0.000 A 
ATOM      5  O   UNL     1       4.031   3.648  16.925  0.00  0.00    +0.000 OA
ATOM      6  C   UNL     1       2.625   4.891  18.375  0.00  0.00    +0.000 A 
ATOM      7  C   UNL     1       2.092   3.765  19.003  0.00  0.00    +0.000 A 
ATOM      8  C   UNL     1       1.478   3.910  20.246  0.00  0.00    +0.000 A 
ATOM      9  C   UNL     1       1.461   5.160  20.871  0.00  0.00    +0.000 A 
ATOM     10  C   UNL     1       1.906   6.297  20.191  0.00  0.00    +0.000 A 
ATOM     11  C   UNL     1       2.405   6.171  18.897  0.00  0.00    +0.000 A 
ENDROOT
BRANCH   3  12
ATOM     12  C   UNL     1       5.384   6.465  17.840  0.00  0.00    +0.000 A 
ATOM     13  C   UNL     1       6.298   7.429  17.396  0.00  0.00    +0.000 A 
ATOM     14  C   UNL     1       7.636   7.342  17.807  0.00  0.00    +0.000 A 
ATOM     15  C   UNL     1       8.044   6.344  18.693  0.00  0.00    +0.000 A 
ATOM     16  C   UNL     1       7.099   5.516  19.286  0.00  0.00    +0.000 A 
ATOM     17  C   UNL     1       5.762   5.627  18.914  0.00  0.00    +0.000 A 
ENDBRANCH   3  12
BRANCH   1  19
ATOM     18  N   UNL     1       1.277   8.875  19.114  0.00  0.00    +0.000 N 
ATOM     19  C   UNL     1       2.323   8.729  18.236  0.00  0.00    +0.000 C 
ATOM     20  O   UNL     1       2.900   9.628  17.649  0.00  0.00    +0.000 OA
ATOM     21  H   UNL     1       1.105   8.111  19.760  0.00  0.00    +0.000 HD
BRANCH  18  26
ATOM     22  C   UNL     1       0.441  12.160  20.662  0.00  0.00    +0.000 A 
ATOM     23  C   UNL     1      -0.663  12.513  19.888  0.00  0.00    +0.000 A 
ATOM     24  C   UNL     1      -1.091  11.686  18.841  0.00  0.00    +0.000 A 
ATOM     25  C   UNL     1      -0.421  10.495  18.554  0.00  0.00    +0.000 A 
ATOM     26  C   UNL     1       0.645  10.105  19.375  0.00  0.00    +0.000 A 
ATOM     27  C   UNL     1       1.078  10.942  20.414  0.00  0.00    +0.000 A 
BRANCH  22  29
ATOM     28  C   UNL     1       1.324  14.261  21.346  0.00  0.00    +0.000 C 
ATOM     29  O   UNL     1       0.990  12.914  21.662  0.00  0.00    +0.000 OA
ENDBRANCH  22  29
BRANCH  25  30
ATOM     30  O   UNL     1      -0.739   9.629  17.539  0.00  0.00    +0.000 OA
ATOM     31  C   UNL     1      -1.983   9.844  16.886  0.00  0.00    +0.000 C 
ENDBRANCH  25  30
ENDBRANCH  18  26
ENDBRANCH   1  19
TORSDOF 5
ENDMDL
MODEL 6
REMARK VINA RESULT:      -7.8      1.475      1.682
REMARK  Name = 
REMARK  7 active torsions:
REMARK  status: ('A' for Active; 'I' for Inactive)
REMARK    1  A    between atoms: C_1  and  O_2
REMARK    2  A    between atoms: O_2  and  C_3
REMARK    3  A    between atoms: C_6  and  O_7
REMARK    4  A    between atoms: O_7  and  C_8
REMARK    5  A    between atoms: C_9  and  N_10
REMARK    6  A    between atoms: C_11  and  C_13
REMARK    7  A    between atoms: N_15  and  C_16
REMARK                            x       y       z     vdW  Elec       q    Type
REMARK                         _______ _______ _______ _____ _____    ______ ____
ROOT
ATOM      1  C   UNL     1       2.765   6.948  17.934  0.00  0.00    +0.000 A 
ATOM      2  N   UNL     1       3.490   6.683  16.876  0.00  0.00    +0.000 NA
ATOM      3  N   UNL     1       4.409   5.634  17.091  0.00  0.00    +0.000 N 
ATOM      4  C   UNL     1       3.829   4.415  17.512  0.00  0.00    +0.000 A 
ATOM      5  O   UNL     1       4.236   3.295  17.220  0.00  0.00    +0.000 OA
ATOM      6  C   UNL     1       2.757   4.598  18.538  0.00  0.00    +0.000 A 
ATOM      7  C   UNL     1       2.247   3.506  19.243  0.00  0.00    +0.000 A 
ATOM      8  C   UNL     1       1.600   3.726  20.457  0.00  0.00    +0.000 A 
ATOM      9  C   UNL     1       1.527   5.019  20.981  0.00  0.00    +0.000 A 
ATOM     10  C   UNL     1       1.949   6.115  20.223  0.00  0.00    +0.000 A 
ATOM     11  C   UNL     1       2.482   5.905  18.953  0.00  0.00    +0.000 A 
ENDROOT
BRANCH   3  12
ATOM     12  C   UNL     1       5.473   6.221  17.936  0.00  0.00    +0.000 A 
ATOM     13  C   UNL     1       6.329   7.218  17.454  0.00  0.00    +0.000 A 
ATOM     14  C   UNL     1       7.667   7.231  17.873  0.00  0.00    +0.000 A 
ATOM     15  C   UNL     1       8.130   6.300  18.805  0.00  0.00    +0.000 A 
ATOM     16  C   UNL     1       7.233   5.443  19.431  0.00  0.00    +0.000 A 
ATOM     17  C   UNL     1       5.894   5.456  19.049  0.00  0.00    +0.000 A 
ENDBRANCH   3  12
BRANCH   1  19
ATOM     18  N   UNL     1       1.653   8.661  19.257  0.00  0.00    +0.000 N 
ATOM     19  C   UNL     1       2.330   8.399  18.090  0.00  0.00    +0.000 C 
ATOM     20  O   UNL     1       2.544   9.193  17.190  0.00  0.00    +0.000 OA
ATOM     21  H   UNL     1       1.819   8.033  20.038  0.00  0.00    +0.000 HD
BRANCH  18  26
ATOM     22  C   UNL     1       0.646  12.244  19.067  0.00  0.00    +0.000 A 
ATOM     23  C   UNL     1      -0.263  12.290  20.122  0.00  0.00    +0.000 A 
ATOM     24  C   UNL     1      -0.565  11.133  20.853  0.00  0.00    +0.000 A 
ATOM     25  C   UNL     1       0.040   9.915  20.540  0.00  0.00    +0.000 A 
ATOM     26  C   UNL     1       1.007   9.881  19.526  0.00  0.00    +0.000 A 
ATOM     27  C   UNL     1       1.296  11.038  18.789  0.00  0.00    +0.000 A 
BRANCH  22  29
ATOM     28  C   UNL     1       2.337  13.679  18.207  0.00  0.00    +0.000 C 
ATOM     29  O   UNL     1       0.970  13.286  18.243  0.00  0.00    +0.000 OA
ENDBRANCH  22  29
BRANCH  25  30
ATOM     30  O   UNL     1      -0.202   8.721  21.172  0.00  0.00    +0.000 OA
ATOM     31  C   UNL     1      -0.447   8.781  22.570  0.00  0.00    +0.000 C 
ENDBRANCH  25  30
ENDBRANCH  18  26
ENDBRANCH   1  19
TORSDOF 5
ENDMDL
MODEL 7
REMARK VINA RESULT:      -7.7      1.367      1.471
REMARK  Name = 
REMARK  7 active torsions:
REMARK  status: ('A' for Active; 'I' for Inactive)
REMARK    1  A    between atoms: C_1  and  O_2
REMARK    2  A    between atoms: O_2  and  C_3
REMARK    3  A    between atoms: C_6  and  O_7
REMARK    4  A    between atoms: O_7  and  C_8
REMARK    5  A    between atoms: C_9  and  N_10
REMARK    6  A    between atoms: C_11  and  C_13
REMARK    7  A    between atoms: N_15  and  C_16
REMARK                            x       y       z     vdW  Elec       q    Type
REMARK                         _______ _______ _______ _____ _____    ______ ____
ROOT
ATOM      1  C   UNL     1       2.235   6.327  18.989  0.00  0.00    +0.000 A 
ATOM      2  N   UNL     1       2.538   6.375  17.715  0.00  0.00    +0.000 NA
ATOM      3  N   UNL     1       3.403   5.332  17.319  0.00  0.00    +0.000 N 
ATOM      4  C   UNL     1       2.920   4.030  17.582  0.00  0.00    +0.000 A 
ATOM      5  O   UNL     1       3.129   3.040  16.886  0.00  0.00    +0.000 OA
ATOM      6  C   UNL     1       2.275   3.901  18.924  0.00  0.00    +0.000 A 
ATOM      7  C   UNL     1       1.963   2.647  19.451  0.00  0.00    +0.000 A 
ATOM      8  C   UNL     1       1.782   2.516  20.827  0.00  0.00    +0.000 A 
ATOM      9  C   UNL     1       1.977   3.620  21.662  0.00  0.00    +0.000 A 
ATOM     10  C   UNL     1       2.189   4.890  21.117  0.00  0.00    +0.000 A 
ATOM     11  C   UNL     1       2.244   5.042  19.733  0.00  0.00    +0.000 A 
ENDROOT
BRANCH   3  12
ATOM     12  C   UNL     1       4.727   5.702  17.868  0.00  0.00    +0.000 A 
ATOM     13  C   UNL     1       5.356   6.905  17.525  0.00  0.00    +0.000 A 
ATOM     14  C   UNL     1       6.751   6.933  17.392  0.00  0.00    +0.000 A 
ATOM     15  C   UNL     1       7.514   5.794  17.655  0.00  0.00    +0.000 A 
ATOM     16  C   UNL     1       6.908   4.663  18.188  0.00  0.00    +0.000 A 
ATOM     17  C   UNL     1       5.527   4.645  18.362  0.00  0.00    +0.000 A 
ENDBRANCH   3  12
BRANCH   1  19
ATOM     18  N   UNL     1       1.282   8.563  18.874  0.00  0.00    +0.000 N 
ATOM     19  C   UNL     1       1.976   7.671  19.657  0.00  0.00    +0.000 C 
ATOM     20  O   UNL     1       2.427   7.889  20.768  0.00  0.00    +0.000 OA
ATOM     21  H   UNL     1       0.700   8.176  18.137  0.00  0.00    +0.000 HD
BRANCH  18  26
ATOM     22  C   UNL     1       1.561  12.279  18.889  0.00  0.00    +0.000 A 
ATOM     23  C   UNL     1       0.716  12.575  19.956  0.00  0.00    +0.000 A 
ATOM     24  C   UNL     1       0.034  11.553  20.629  0.00  0.00    +0.000 A 
ATOM     25  C   UNL     1       0.188  10.220  20.243  0.00  0.00    +0.000 A 
ATOM     26  C   UNL     1       1.090   9.914  19.216  0.00  0.00    +0.000 A 
ATOM     27  C   UNL     1       1.762  10.941  18.538  0.00  0.00    +0.000 A 
BRANCH  22  29
ATOM     28  C   UNL     1       2.510  14.453  18.710  0.00  0.00    +0.000 C 
ATOM     29  O   UNL     1       2.226  13.191  18.116  0.00  0.00    +0.000 OA
ENDBRANCH  22  29
BRANCH  25  30
ATOM     30  O   UNL     1      -0.451   9.149  20.814  0.00  0.00    +0.000 OA
ATOM     31  C   UNL     1      -0.462   9.098  22.234  0.00  0.00    +0.000 C 
ENDBRANCH  25  30
ENDBRANCH  18  26
ENDBRANCH   1  19
TORSDOF 5
ENDMDL
MODEL 8
REMARK VINA RESULT:      -7.7      2.077      7.680
REMARK  Name = 
REMARK  7 active torsions:
REMARK  status: ('A' for Active; 'I' for Inactive)
REMARK    1  A    between atoms: C_1  and  O_2
REMARK    2  A    between atoms: O_2  and  C_3
REMARK    3  A    between atoms: C_6  and  O_7
REMARK    4  A    between atoms: O_7  and  C_8
REMARK    5  A    between atoms: C_9  and  N_10
REMARK    6  A    between atoms: C_11  and  C_13
REMARK    7  A    between atoms: N_15  and  C_16
REMARK                            x       y       z     vdW  Elec       q    Type
REMARK                         _______ _______ _______ _____ _____    ______ ____
ROOT
ATOM      1  C   UNL     1       0.527  10.170  18.941  0.00  0.00    +0.000 A 
ATOM      2  N   UNL     1       0.937  10.799  20.015  0.00  0.00    +0.000 NA
ATOM      3  N   UNL     1       0.322  12.059  20.179  0.00  0.00    +0.000 N 
ATOM      4  C   UNL     1      -1.091  12.027  20.231  0.00  0.00    +0.000 A 
ATOM      5  O   UNL     1      -1.795  12.777  20.901  0.00  0.00    +0.000 OA
ATOM      6  C   UNL     1      -1.696  11.105  19.222  0.00  0.00    +0.000 A 
ATOM      7  C   UNL     1      -3.067  11.128  18.963  0.00  0.00    +0.000 A 
ATOM      8  C   UNL     1      -3.538  10.607  17.759  0.00  0.00    +0.000 A 
ATOM      9  C   UNL     1      -2.632  10.131  16.806  0.00  0.00    +0.000 A 
ATOM     10  C   UNL     1      -1.274  10.020  17.116  0.00  0.00    +0.000 A 
ATOM     11  C   UNL     1      -0.820  10.424  18.369  0.00  0.00    +0.000 A 
ENDROOT
BRANCH   3  12
ATOM     12  C   UNL     1       0.956  12.931  19.166  0.00  0.00    +0.000 A 
ATOM     13  C   UNL     1       2.328  12.864  18.893  0.00  0.00    +0.000 A 
ATOM     14  C   UNL     1       3.021  14.043  18.579  0.00  0.00    +0.000 A 
ATOM     15  C   UNL     1       2.345  15.260  18.480  0.00  0.00    +0.000 A 
ATOM     16  C   UNL     1       0.957  15.289  18.552  0.00  0.00    +0.000 A 
ATOM     17  C   UNL     1       0.261  14.114  18.821  0.00  0.00    +0.000 A 
ENDBRANCH   3  12
BRANCH   1  19
ATOM     18  N   UNL     1       1.699   8.039  18.902  0.00  0.00    +0.000 N 
ATOM     19  C   UNL     1       1.549   9.255  18.281  0.00  0.00    +0.000 C 
ATOM     20  O   UNL     1       2.188   9.656  17.323  0.00  0.00    +0.000 OA
ATOM     21  H   UNL     1       0.917   7.705  19.458  0.00  0.00    +0.000 HD
BRANCH  18  26
ATOM     22  C   UNL     1       4.548   6.389  17.156  0.00  0.00    +0.000 A 
ATOM     23  C   UNL     1       4.666   5.237  17.931  0.00  0.00    +0.000 A 
ATOM     24  C   UNL     1       3.835   5.039  19.042  0.00  0.00    +0.000 A 
ATOM     25  C   UNL     1       2.875   5.991  19.392  0.00  0.00    +0.000 A 
ATOM     26  C   UNL     1       2.708   7.115  18.574  0.00  0.00    +0.000 A 
ATOM     27  C   UNL     1       3.550   7.315  17.470  0.00  0.00    +0.000 A 
BRANCH  22  29
ATOM     28  C   UNL     1       5.690   5.676  15.195  0.00  0.00    +0.000 C 
ATOM     29  O   UNL     1       5.341   6.723  16.093  0.00  0.00    +0.000 OA
ENDBRANCH  22  29
BRANCH  25  30
ATOM     30  O   UNL     1       2.032   5.909  20.471  0.00  0.00    +0.000 OA
ATOM     31  C   UNL     1       1.493   4.627  20.761  0.00  0.00    +0.000 C 
ENDBRANCH  25  30
ENDBRANCH  18  26
ENDBRANCH   1  19
TORSDOF 5
ENDMDL
MODEL 9
REMARK VINA RESULT:      -7.7      2.328      7.975
REMARK  Name = 
REMARK  7 active torsions:
REMARK  status: ('A' for Active; 'I' for Inactive)
REMARK    1  A    between atoms: C_1  and  O_2
REMARK    2  A    between atoms: O_2  and  C_3
REMARK    3  A    between atoms: C_6  and  O_7
REMARK    4  A    between atoms: O_7  and  C_8
REMARK    5  A    between atoms: C_9  and  N_10
REMARK    6  A    between atoms: C_11  and  C_13
REMARK    7  A    between atoms: N_15  and  C_16
REMARK                            x       y       z     vdW  Elec       q    Type
REMARK                         _______ _______ _______ _____ _____    ______ ____
ROOT
ATOM      1  C   UNL     1       1.007   9.482  19.784  0.00  0.00    +0.000 A 
ATOM      2  N   UNL     1       1.148  10.237  18.722  0.00  0.00    +0.000 NA
ATOM      3  N   UNL     1       0.077  11.138  18.544  0.00  0.00    +0.000 N 
ATOM      4  C   UNL     1      -0.159  12.002  19.638  0.00  0.00    +0.000 A 
ATOM      5  O   UNL     1      -0.560  13.159  19.557  0.00  0.00    +0.000 OA
ATOM      6  C   UNL     1      -0.065  11.314  20.962  0.00  0.00    +0.000 A 
ATOM      7  C   UNL     1      -0.503  11.944  22.128  0.00  0.00    +0.000 A 
ATOM      8  C   UNL     1      -0.815  11.165  23.242  0.00  0.00    +0.000 A 
ATOM      9  C   UNL     1      -0.749   9.772  23.157  0.00  0.00    +0.000 A 
ATOM     10  C   UNL     1      -0.214   9.158  22.021  0.00  0.00    +0.000 A 
ATOM     11  C   UNL     1       0.217   9.944  20.954  0.00  0.00    +0.000 A 
ENDROOT
BRANCH   3  12
ATOM     12  C   UNL     1      -1.051  10.306  18.067  0.00  0.00    +0.000 A 
ATOM     13  C   UNL     1      -0.967   9.565  16.881  0.00  0.00    +0.000 A 
ATOM     14  C   UNL     1      -2.110   9.428  16.080  0.00  0.00    +0.000 A 
ATOM     15  C   UNL     1      -3.331   9.969  16.484  0.00  0.00    +0.000 A 
ATOM     16  C   UNL     1      -3.456  10.525  17.751  0.00  0.00    +0.000 A 
ATOM     17  C   UNL     1      -2.333  10.626  18.568  0.00  0.00    +0.000 A 
ENDBRANCH   3  12
BRANCH   1  19
ATOM     18  N   UNL     1       2.061   7.755  18.435  0.00  0.00    +0.000 N 
ATOM     19  C   UNL     1       1.613   8.089  19.690  0.00  0.00    +0.000 C 
ATOM     20  O   UNL     1       1.614   7.364  20.670  0.00  0.00    +0.000 OA
ATOM     21  H   UNL     1       2.301   8.520  17.811  0.00  0.00    +0.000 HD
BRANCH  18  26
ATOM     22  C   UNL     1       2.064   4.085  17.786  0.00  0.00    +0.000 A 
ATOM     23  C   UNL     1       3.393   3.913  17.408  0.00  0.00    +0.000 A 
ATOM     24  C   UNL     1       4.260   5.011  17.331  0.00  0.00    +0.000 A 
ATOM     25  C   UNL     1       3.808   6.297  17.632  0.00  0.00    +0.000 A 
ATOM     26  C   UNL     1       2.490   6.463  18.079  0.00  0.00    +0.000 A 
ATOM     27  C   UNL     1       1.624   5.363  18.142  0.00  0.00    +0.000 A 
BRANCH  22  29
ATOM     28  C   UNL     1       1.207   2.163  18.896  0.00  0.00    +0.000 C 
ATOM     29  O   UNL     1       1.111   3.105  17.833  0.00  0.00    +0.000 OA
ENDBRANCH  22  29
BRANCH  25  30
ATOM     30  O   UNL     1       4.562   7.441  17.563  0.00  0.00    +0.000 OA
ATOM     31  C   UNL     1       5.923   7.283  17.189  0.00  0.00    +0.000 C 
ENDBRANCH  25  30
ENDBRANCH  18  26
ENDBRANCH   1  19
TORSDOF 5
ENDMDL
