MODEL 1
REMARK VINA RESULT:      -8.4      0.000      0.000
REMARK  Name = 
REMARK  3 active torsions:
REMARK  status: ('A' for Active; 'I' for Inactive)
REMARK    1  A    between atoms: C_2  and  C_3
REMARK    2  A    between atoms: C_3  and  C_4
REMARK    3  A    between atoms: N_19  and  C_20
REMARK                            x       y       z     vdW  Elec       q    Type
REMARK                         _______ _______ _______ _____ _____    ______ ____
ROOT
ATOM      1  C   UNL     1       3.177   5.674  17.778  0.00  0.00    +0.000 C 
ATOM      2  C   UNL     1       2.902   4.452  18.660  0.00  0.00    +0.000 C 
ATOM      3  O   UNL     1       2.850   3.303  18.230  0.00  0.00    +0.000 OA
ATOM      4  N   UNL     1       2.869   4.692  20.011  0.00  0.00    +0.000 N 
ATOM      5  N   UNL     1       2.427   5.860  20.536  0.00  0.00    +0.000 NA
ATOM      6  C   UNL     1       2.253   6.857  19.723  0.00  0.00    +0.000 C 
ATOM      7  C   UNL     1       1.572   8.069  20.249  0.00  0.00    +0.000 A 
ATOM      8  C   UNL     1       0.983   8.052  21.520  0.00  0.00    +0.000 A 
ATOM      9  C   UNL     1       0.262   9.156  21.956  0.00  0.00    +0.000 A 
ATOM     10  C   UNL     1       0.157  10.280  21.134  0.00  0.00    +0.000 A 
ATOM     11  C   UNL     1       0.748  10.287  19.863  0.00  0.00    +0.000 A 
ATOM     12  C   UNL     1       1.442   9.166  19.393  0.00  0.00    +0.000 A 
ATOM     13  N   UNL     1       1.923   9.161  18.057  0.00  0.00    +0.000 NA
ATOM     14  C   UNL     1       2.431   8.044  17.638  0.00  0.00    +0.000 C 
ATOM     15  N   UNL     1       2.598   6.894  18.380  0.00  0.00    +0.000 N 
ATOM     16  H   UNL     1       2.747   3.881  20.612  0.00  0.00    +0.000 HD
ENDROOT
BRANCH   1  17
ATOM     17  C   UNL     1       4.697   5.813  17.639  0.00  0.00    +0.000 C 
BRANCH  17  19
ATOM     18  O   UNL     1       5.099   6.895  15.565  0.00  0.00    +0.000 OA
ATOM     19  C   UNL     1       5.094   5.830  16.175  0.00  0.00    +0.000 C 
ATOM     20  N   UNL     1       5.427   4.588  15.661  0.00  0.00    +0.000 N 
ATOM     21  H   UNL     1       5.179   3.757  16.190  0.00  0.00    +0.000 HD
BRANCH  20  22
ATOM     22  C   UNL     1       5.847   4.335  14.332  0.00  0.00    +0.000 A 
ATOM     23  C   UNL     1       5.078   3.635  13.402  0.00  0.00    +0.000 A 
ATOM     24  C   UNL     1       5.591   3.332  12.136  0.00  0.00    +0.000 A 
ATOM     25  C   UNL     1       6.873   3.744  11.777  0.00  0.00    +0.000 A 
ATOM     26  C   UNL     1       7.629   4.502  12.670  0.00  0.00    +0.000 A 
ATOM     27  C   UNL     1       7.107   4.800  13.929  0.00  0.00    +0.000 A 
ATOM     28  F   UNL     1       7.853   5.520  14.783  0.00  0.00    +0.000 F 
ENDBRANCH  20  22
ENDBRANCH  17  19
ENDBRANCH   1  17
TORSDOF 3
ENDMDL
MODEL 2
REMARK VINA RESULT:      -8.4      4.612      6.786
REMARK  Name = 
REMARK  3 active torsions:
REMARK  status: ('A' for Active; 'I' for Inactive)
REMARK    1  A    between atoms: C_2  and  C_3
REMARK    2  A    between atoms: C_3  and  C_4
REMARK    3  A    between atoms: N_19  and  C_20
REMARK                            x       y       z     vdW  Elec       q    Type
REMARK                         _______ _______ _______ _____ _____    ______ ____
ROOT
ATOM      1  C   UNL     1       6.378   6.495  17.013  0.00  0.00    +0.000 C 
ATOM      2  C   UNL     1       7.041   5.476  16.082  0.00  0.00    +0.000 C 
ATOM      3  O   UNL     1       7.753   5.787  15.131  0.00  0.00    +0.000 OA
ATOM      4  N   UNL     1       6.923   4.162  16.463  0.00  0.00    +0.000 N 
ATOM      5  N   UNL     1       5.838   3.685  17.119  0.00  0.00    +0.000 NA
ATOM      6  C   UNL     1       4.998   4.550  17.601  0.00  0.00    +0.000 C 
ATOM      7  C   UNL     1       3.708   4.040  18.132  0.00  0.00    +0.000 A 
ATOM      8  C   UNL     1       3.348   2.699  17.945  0.00  0.00    +0.000 A 
ATOM      9  C   UNL     1       2.095   2.262  18.355  0.00  0.00    +0.000 A 
ATOM     10  C   UNL     1       1.221   3.157  18.975  0.00  0.00    +0.000 A 
ATOM     11  C   UNL     1       1.588   4.497  19.155  0.00  0.00    +0.000 A 
ATOM     12  C   UNL     1       2.830   4.962  18.709  0.00  0.00    +0.000 A 
ATOM     13  N   UNL     1       3.122   6.349  18.797  0.00  0.00    +0.000 NA
ATOM     14  C   UNL     1       4.227   6.737  18.240  0.00  0.00    +0.000 C 
ATOM     15  N   UNL     1       5.161   5.927  17.630  0.00  0.00    +0.000 N 
ATOM     16  H   UNL     1       7.409   3.478  15.888  0.00  0.00    +0.000 HD
ENDROOT
BRANCH   1  17
ATOM     17  C   UNL     1       7.401   6.872  18.091  0.00  0.00    +0.000 C 
BRANCH  17  19
ATOM     18  O   UNL     1       7.288   9.013  17.070  0.00  0.00    +0.000 OA
ATOM     19  C   UNL     1       7.810   8.326  17.944  0.00  0.00    +0.000 C 
ATOM     20  N   UNL     1       8.768   8.743  18.854  0.00  0.00    +0.000 N 
ATOM     21  H   UNL     1       9.280   8.041  19.380  0.00  0.00    +0.000 HD
BRANCH  20  22
ATOM     22  C   UNL     1       9.305  10.051  18.939  0.00  0.00    +0.000 A 
ATOM     23  C   UNL     1       9.746  10.776  17.832  0.00  0.00    +0.000 A 
ATOM     24  C   UNL     1      10.359  12.023  17.995  0.00  0.00    +0.000 A 
ATOM     25  C   UNL     1      10.519  12.570  19.266  0.00  0.00    +0.000 A 
ATOM     26  C   UNL     1      10.023  11.889  20.378  0.00  0.00    +0.000 A 
ATOM     27  C   UNL     1       9.413  10.647  20.205  0.00  0.00    +0.000 A 
ATOM     28  F   UNL     1       8.952   9.997  21.286  0.00  0.00    +0.000 F 
ENDBRANCH  20  22
ENDBRANCH  17  19
ENDBRANCH   1  17
TORSDOF 3
ENDMDL
MODEL 3
REMARK VINA RESULT:      -8.3      2.920      6.179
REMARK  Name = 
REMARK  3 active torsions:
REMARK  status: ('A' for Active; 'I' for Inactive)
REMARK    1  A    between atoms: C_2  and  C_3
REMARK    2  A    between atoms: C_3  and  C_4
REMARK    3  A    between atoms: N_19  and  C_20
REMARK                            x       y       z     vdW  Elec       q    Type
REMARK                         _______ _______ _______ _____ _____    ______ ____
ROOT
ATOM      1  C   UNL     1       5.352   4.540  16.502  0.00  0.00    +0.000 C 
ATOM      2  C   UNL     1       6.677   4.468  17.267  0.00  0.00    +0.000 C 
ATOM      3  O   UNL     1       7.768   4.322  16.722  0.00  0.00    +0.000 OA
ATOM      4  N   UNL     1       6.600   4.733  18.612  0.00  0.00    +0.000 N 
ATOM      5  N   UNL     1       5.514   4.417  19.359  0.00  0.00    +0.000 NA
ATOM      6  C   UNL     1       4.433   4.068  18.730  0.00  0.00    +0.000 C 
ATOM      7  C   UNL     1       3.311   3.519  19.536  0.00  0.00    +0.000 A 
ATOM      8  C   UNL     1       3.494   3.224  20.893  0.00  0.00    +0.000 A 
ATOM      9  C   UNL     1       2.470   2.617  21.607  0.00  0.00    +0.000 A 
ATOM     10  C   UNL     1       1.260   2.333  20.971  0.00  0.00    +0.000 A 
ATOM     11  C   UNL     1       1.087   2.628  19.612  0.00  0.00    +0.000 A 
ATOM     12  C   UNL     1       2.124   3.202  18.869  0.00  0.00    +0.000 A 
ATOM     13  N   UNL     1       1.958   3.377  17.470  0.00  0.00    +0.000 NA
ATOM     14  C   UNL     1       3.003   3.781  16.817  0.00  0.00    +0.000 C 
ATOM     15  N   UNL     1       4.228   4.108  17.359  0.00  0.00    +0.000 N 
ATOM     16  H   UNL     1       7.479   4.747  19.122  0.00  0.00    +0.000 HD
ENDROOT
BRANCH   1  17
ATOM     17  C   UNL     1       5.156   5.993  16.052  0.00  0.00    +0.000 C 
BRANCH  17  19
ATOM     18  O   UNL     1       5.490   7.513  17.844  0.00  0.00    +0.000 OA
ATOM     19  C   UNL     1       4.677   6.845  17.212  0.00  0.00    +0.000 C 
ATOM     20  N   UNL     1       3.313   6.779  17.441  0.00  0.00    +0.000 N 
ATOM     21  H   UNL     1       2.778   6.036  17.002  0.00  0.00    +0.000 HD
BRANCH  20  22
ATOM     22  C   UNL     1       2.614   7.489  18.448  0.00  0.00    +0.000 A 
ATOM     23  C   UNL     1       2.404   6.993  19.735  0.00  0.00    +0.000 A 
ATOM     24  C   UNL     1       1.619   7.700  20.653  0.00  0.00    +0.000 A 
ATOM     25  C   UNL     1       1.053   8.924  20.301  0.00  0.00    +0.000 A 
ATOM     26  C   UNL     1       1.308   9.466  19.042  0.00  0.00    +0.000 A 
ATOM     27  C   UNL     1       2.092   8.754  18.135  0.00  0.00    +0.000 A 
ATOM     28  F   UNL     1       2.319   9.283  16.921  0.00  0.00    +0.000 F 
ENDBRANCH  20  22
ENDBRANCH  17  19
ENDBRANCH   1  17
TORSDOF 3
ENDMDL
MODEL 4
REMARK VINA RESULT:      -8.3      3.072      6.992
REMARK  Name = 
REMARK  3 active torsions:
REMARK  status: ('A' for Active; 'I' for Inactive)
REMARK    1  A    between atoms: C_2  and  C_3
REMARK    2  A    between atoms: C_3  and  C_4
REMARK    3  A    between atoms: N_19  and  C_20
REMARK                            x       y       z     vdW  Elec       q    Type
REMARK                         _______ _______ _______ _____ _____    ______ ____
ROOT
ATOM      1  C   UNL     1       3.161   2.898  20.098  0.00  0.00    +0.000 C 
ATOM      2  C   UNL     1       1.968   2.430  19.258  0.00  0.00    +0.000 C 
ATOM      3  O   UNL     1       1.231   1.503  19.582  0.00  0.00    +0.000 OA
ATOM      4  N   UNL     1       1.664   3.216  18.173  0.00  0.00    +0.000 N 
ATOM      5  N   UNL     1       2.606   3.887  17.468  0.00  0.00    +0.000 NA
ATOM      6  C   UNL     1       3.796   3.968  17.980  0.00  0.00    +0.000 C 
ATOM      7  C   UNL     1       4.882   4.512  17.124  0.00  0.00    +0.000 A 
ATOM      8  C   UNL     1       4.656   4.752  15.763  0.00  0.00    +0.000 A 
ATOM      9  C   UNL     1       5.707   5.162  14.954  0.00  0.00    +0.000 A 
ATOM     10  C   UNL     1       6.971   5.359  15.514  0.00  0.00    +0.000 A 
ATOM     11  C   UNL     1       7.190   5.114  16.876  0.00  0.00    +0.000 A 
ATOM     12  C   UNL     1       6.150   4.660  17.695  0.00  0.00    +0.000 A 
ATOM     13  N   UNL     1       6.433   4.307  19.040  0.00  0.00    +0.000 NA
ATOM     14  C   UNL     1       5.462   3.761  19.704  0.00  0.00    +0.000 C 
ATOM     15  N   UNL     1       4.178   3.549  19.246  0.00  0.00    +0.000 N 
ATOM     16  H   UNL     1       0.839   2.952  17.641  0.00  0.00    +0.000 HD
ENDROOT
BRANCH   1  17
ATOM     17  C   UNL     1       2.631   3.880  21.148  0.00  0.00    +0.000 C 
BRANCH  17  19
ATOM     18  O   UNL     1       0.671   4.880  20.257  0.00  0.00    +0.000 OA
ATOM     19  C   UNL     1       1.872   5.010  20.478  0.00  0.00    +0.000 C 
ATOM     20  N   UNL     1       2.646   6.118  20.179  0.00  0.00    +0.000 N 
ATOM     21  H   UNL     1       3.658   6.029  20.208  0.00  0.00    +0.000 HD
BRANCH  20  22
ATOM     22  C   UNL     1       2.178   7.308  19.571  0.00  0.00    +0.000 A 
ATOM     23  C   UNL     1       2.351   7.601  18.218  0.00  0.00    +0.000 A 
ATOM     24  C   UNL     1       1.953   8.838  17.699  0.00  0.00    +0.000 A 
ATOM     25  C   UNL     1       1.357   9.790  18.524  0.00  0.00    +0.000 A 
ATOM     26  C   UNL     1       1.115   9.488  19.863  0.00  0.00    +0.000 A 
ATOM     27  C   UNL     1       1.514   8.251  20.370  0.00  0.00    +0.000 A 
ATOM     28  F   UNL     1       1.287   7.980  21.666  0.00  0.00    +0.000 F 
ENDBRANCH  20  22
ENDBRANCH  17  19
ENDBRANCH   1  17
TORSDOF 3
ENDMDL
MODEL 5
REMARK VINA RESULT:      -8.0      2.848      4.184
REMARK  Name = 
REMARK  3 active torsions:
REMARK  status: ('A' for Active; 'I' for Inactive)
REMARK    1  A    between atoms: C_2  and  C_3
REMARK    2  A    between atoms: C_3  and  C_4
REMARK    3  A    between atoms: N_19  and  C_20
REMARK                            x       y       z     vdW  Elec       q    Type
REMARK                         _______ _______ _______ _____ _____    ______ ____
ROOT
ATOM      1  C   UNL     1       5.525   5.496  16.704  0.00  0.00    +0.000 C 
ATOM      2  C   UNL     1       5.573   6.924  17.258  0.00  0.00    +0.000 C 
ATOM      3  O   UNL     1       6.568   7.641  17.201  0.00  0.00    +0.000 OA
ATOM      4  N   UNL     1       4.374   7.429  17.696  0.00  0.00    +0.000 N 
ATOM      5  N   UNL     1       3.411   6.654  18.252  0.00  0.00    +0.000 NA
ATOM      6  C   UNL     1       3.543   5.366  18.150  0.00  0.00    +0.000 C 
ATOM      7  C   UNL     1       2.614   4.512  18.933  0.00  0.00    +0.000 A 
ATOM      8  C   UNL     1       1.757   5.084  19.881  0.00  0.00    +0.000 A 
ATOM      9  C   UNL     1       0.969   4.264  20.678  0.00  0.00    +0.000 A 
ATOM     10  C   UNL     1       1.020   2.880  20.505  0.00  0.00    +0.000 A 
ATOM     11  C   UNL     1       1.883   2.315  19.556  0.00  0.00    +0.000 A 
ATOM     12  C   UNL     1       2.714   3.126  18.775  0.00  0.00    +0.000 A 
ATOM     13  N   UNL     1       3.661   2.517  17.911  0.00  0.00    +0.000 NA
ATOM     14  C   UNL     1       4.495   3.317  17.323  0.00  0.00    +0.000 C 
ATOM     15  N   UNL     1       4.506   4.694  17.412  0.00  0.00    +0.000 N 
ATOM     16  H   UNL     1       4.378   8.396  18.011  0.00  0.00    +0.000 HD
ENDROOT
BRANCH   1  17
ATOM     17  C   UNL     1       5.191   5.591  15.210  0.00  0.00    +0.000 C 
BRANCH  17  19
ATOM     18  O   UNL     1       6.935   4.004  14.933  0.00  0.00    +0.000 OA
ATOM     19  C   UNL     1       5.942   4.526  14.434  0.00  0.00    +0.000 C 
ATOM     20  N   UNL     1       5.401   4.239  13.191  0.00  0.00    +0.000 N 
ATOM     21  H   UNL     1       4.719   4.879  12.796  0.00  0.00    +0.000 HD
BRANCH  20  22
ATOM     22  C   UNL     1       5.901   3.276  12.281  0.00  0.00    +0.000 A 
ATOM     23  C   UNL     1       5.204   2.122  11.920  0.00  0.00    +0.000 A 
ATOM     24  C   UNL     1       5.795   1.161  11.093  0.00  0.00    +0.000 A 
ATOM     25  C   UNL     1       7.084   1.352  10.599  0.00  0.00    +0.000 A 
ATOM     26  C   UNL     1       7.769   2.530  10.894  0.00  0.00    +0.000 A 
ATOM     27  C   UNL     1       7.170   3.483  11.719  0.00  0.00    +0.000 A 
ATOM     28  F   UNL     1       7.847   4.607  12.005  0.00  0.00    +0.000 F 
ENDBRANCH  20  22
ENDBRANCH  17  19
ENDBRANCH   1  17
TORSDOF 3
ENDMDL
MODEL 6
REMARK VINA RESULT:      -8.0      2.604      6.919
REMARK  Name = 
REMARK  3 active torsions:
REMARK  status: ('A' for Active; 'I' for Inactive)
REMARK    1  A    between atoms: C_2  and  C_3
REMARK    2  A    between atoms: C_3  and  C_4
REMARK    3  A    between atoms: N_19  and  C_20
REMARK                            x       y       z     vdW  Elec       q    Type
REMARK                         _______ _______ _______ _____ _____    ______ ____
ROOT
ATOM      1  C   UNL     1       2.886   3.217  20.018  0.00  0.00    +0.000 C 
ATOM      2  C   UNL     1       1.612   3.012  19.193  0.00  0.00    +0.000 C 
ATOM      3  O   UNL     1       0.722   2.224  19.502  0.00  0.00    +0.000 OA
ATOM      4  N   UNL     1       1.436   3.884  18.147  0.00  0.00    +0.000 N 
ATOM      5  N   UNL     1       2.473   4.399  17.442  0.00  0.00    +0.000 NA
ATOM      6  C   UNL     1       3.667   4.239  17.925  0.00  0.00    +0.000 C 
ATOM      7  C   UNL     1       4.818   4.609  17.061  0.00  0.00    +0.000 A 
ATOM      8  C   UNL     1       4.613   4.942  15.716  0.00  0.00    +0.000 A 
ATOM      9  C   UNL     1       5.706   5.185  14.895  0.00  0.00    +0.000 A 
ATOM     10  C   UNL     1       6.996   5.123  15.427  0.00  0.00    +0.000 A 
ATOM     11  C   UNL     1       7.191   4.786  16.774  0.00  0.00    +0.000 A 
ATOM     12  C   UNL     1       6.102   4.497  17.602  0.00  0.00    +0.000 A 
ATOM     13  N   UNL     1       6.341   4.043  18.926  0.00  0.00    +0.000 NA
ATOM     14  C   UNL     1       5.299   3.658  19.595  0.00  0.00    +0.000 C 
ATOM     15  N   UNL     1       3.989   3.705  19.164  0.00  0.00    +0.000 N 
ATOM     16  H   UNL     1       0.567   3.799  17.628  0.00  0.00    +0.000 HD
ENDROOT
BRANCH   1  17
ATOM     17  C   UNL     1       2.567   4.236  21.118  0.00  0.00    +0.000 C 
BRANCH  17  19
ATOM     18  O   UNL     1       0.556   5.283  20.411  0.00  0.00    +0.000 OA
ATOM     19  C   UNL     1       1.772   5.395  20.548  0.00  0.00    +0.000 C 
ATOM     20  N   UNL     1       2.533   6.509  20.234  0.00  0.00    +0.000 N 
ATOM     21  H   UNL     1       3.543   6.413  20.184  0.00  0.00    +0.000 HD
BRANCH  20  22
ATOM     22  C   UNL     1       2.032   7.724  19.706  0.00  0.00    +0.000 A 
ATOM     23  C   UNL     1       1.179   8.576  20.409  0.00  0.00    +0.000 A 
ATOM     24  C   UNL     1       0.640   9.711  19.795  0.00  0.00    +0.000 A 
ATOM     25  C   UNL     1       0.963  10.020  18.475  0.00  0.00    +0.000 A 
ATOM     26  C   UNL     1       1.866   9.217  17.780  0.00  0.00    +0.000 A 
ATOM     27  C   UNL     1       2.399   8.088  18.402  0.00  0.00    +0.000 A 
ATOM     28  F   UNL     1       3.257   7.316  17.714  0.00  0.00    +0.000 F 
ENDBRANCH  20  22
ENDBRANCH  17  19
ENDBRANCH   1  17
TORSDOF 3
ENDMDL
MODEL 7
REMARK VINA RESULT:      -7.9      1.389      1.685
REMARK  Name = 
REMARK  3 active torsions:
REMARK  status: ('A' for Active; 'I' for Inactive)
REMARK    1  A    between atoms: C_2  and  C_3
REMARK    2  A    between atoms: C_3  and  C_4
REMARK    3  A    between atoms: N_19  and  C_20
REMARK                            x       y       z     vdW  Elec       q    Type
REMARK                         _______ _______ _______ _____ _____    ______ ____
ROOT
ATOM      1  C   UNL     1       4.236   5.270  17.934  0.00  0.00    +0.000 C 
ATOM      2  C   UNL     1       3.863   4.022  18.740  0.00  0.00    +0.000 C 
ATOM      3  O   UNL     1       4.001   2.876  18.320  0.00  0.00    +0.000 OA
ATOM      4  N   UNL     1       3.500   4.247  20.045  0.00  0.00    +0.000 N 
ATOM      5  N   UNL     1       2.859   5.372  20.443  0.00  0.00    +0.000 NA
ATOM      6  C   UNL     1       2.800   6.360  19.602  0.00  0.00    +0.000 C 
ATOM      7  C   UNL     1       1.923   7.509  19.946  0.00  0.00    +0.000 A 
ATOM      8  C   UNL     1       1.061   7.436  21.047  0.00  0.00    +0.000 A 
ATOM      9  C   UNL     1       0.174   8.475  21.295  0.00  0.00    +0.000 A 
ATOM     10  C   UNL     1       0.174   9.595  20.460  0.00  0.00    +0.000 A 
ATOM     11  C   UNL     1       1.039   9.659  19.359  0.00  0.00    +0.000 A 
ATOM     12  C   UNL     1       1.908   8.601  19.072  0.00  0.00    +0.000 A 
ATOM     13  N   UNL     1       2.683   8.645  17.884  0.00  0.00    +0.000 NA
ATOM     14  C   UNL     1       3.360   7.576  17.603  0.00  0.00    +0.000 C 
ATOM     15  N   UNL     1       3.441   6.435  18.375  0.00  0.00    +0.000 N 
ATOM     16  H   UNL     1       3.307   3.423  20.609  0.00  0.00    +0.000 HD
ENDROOT
BRANCH   1  17
ATOM     17  C   UNL     1       5.732   5.528  18.148  0.00  0.00    +0.000 C 
BRANCH  17  19
ATOM     18  O   UNL     1       7.606   4.486  17.129  0.00  0.00    +0.000 OA
ATOM     19  C   UNL     1       6.528   5.044  16.950  0.00  0.00    +0.000 C 
ATOM     20  N   UNL     1       5.923   5.289  15.728  0.00  0.00    +0.000 N 
ATOM     21  H   UNL     1       5.147   5.943  15.689  0.00  0.00    +0.000 HD
BRANCH  20  22
ATOM     22  C   UNL     1       6.447   4.923  14.464  0.00  0.00    +0.000 A 
ATOM     23  C   UNL     1       7.584   5.506  13.904  0.00  0.00    +0.000 A 
ATOM     24  C   UNL     1       7.993   5.171  12.609  0.00  0.00    +0.000 A 
ATOM     25  C   UNL     1       7.281   4.232  11.865  0.00  0.00    +0.000 A 
ATOM     26  C   UNL     1       6.182   3.590  12.435  0.00  0.00    +0.000 A 
ATOM     27  C   UNL     1       5.784   3.931  13.727  0.00  0.00    +0.000 A 
ATOM     28  F   UNL     1       4.715   3.314  14.258  0.00  0.00    +0.000 F 
ENDBRANCH  20  22
ENDBRANCH  17  19
ENDBRANCH   1  17
TORSDOF 3
ENDMDL
MODEL 8
REMARK VINA RESULT:      -7.9      2.915      6.151
REMARK  Name = 
REMARK  3 active torsions:
REMARK  status: ('A' for Active; 'I' for Inactive)
REMARK    1  A    between atoms: C_2  and  C_3
REMARK    2  A    between atoms: C_3  and  C_4
REMARK    3  A    between atoms: N_19  and  C_20
REMARK                            x       y       z     vdW  Elec       q    Type
REMARK                         _______ _______ _______ _____ _____    ______ ____
ROOT
ATOM      1  C   UNL     1       5.429   4.554  16.486  0.00  0.00    +0.000 C 
ATOM      2  C   UNL     1       6.746   4.456  17.263  0.00  0.00    +0.000 C 
ATOM      3  O   UNL     1       7.840   4.300  16.728  0.00  0.00    +0.000 OA
ATOM      4  N   UNL     1       6.659   4.709  18.610  0.00  0.00    +0.000 N 
ATOM      5  N   UNL     1       5.562   4.402  19.343  0.00  0.00    +0.000 NA
ATOM      6  C   UNL     1       4.482   4.074  18.701  0.00  0.00    +0.000 C 
ATOM      7  C   UNL     1       3.345   3.533  19.491  0.00  0.00    +0.000 A 
ATOM      8  C   UNL     1       3.511   3.223  20.846  0.00  0.00    +0.000 A 
ATOM      9  C   UNL     1       2.471   2.623  21.545  0.00  0.00    +0.000 A 
ATOM     10  C   UNL     1       1.264   2.362  20.895  0.00  0.00    +0.000 A 
ATOM     11  C   UNL     1       1.108   2.674  19.537  0.00  0.00    +0.000 A 
ATOM     12  C   UNL     1       2.160   3.239  18.809  0.00  0.00    +0.000 A 
ATOM     13  N   UNL     1       2.010   3.430  17.411  0.00  0.00    +0.000 NA
ATOM     14  C   UNL     1       3.067   3.825  16.771  0.00  0.00    +0.000 C 
ATOM     15  N   UNL     1       4.291   4.130  17.329  0.00  0.00    +0.000 N 
ATOM     16  H   UNL     1       7.534   4.706  19.128  0.00  0.00    +0.000 HD
ENDROOT
BRANCH   1  17
ATOM     17  C   UNL     1       5.259   6.014  16.048  0.00  0.00    +0.000 C 
BRANCH  17  19
ATOM     18  O   UNL     1       5.429   7.227  18.082  0.00  0.00    +0.000 OA
ATOM     19  C   UNL     1       4.686   6.842  17.183  0.00  0.00    +0.000 C 
ATOM     20  N   UNL     1       3.328   7.090  17.078  0.00  0.00    +0.000 N 
ATOM     21  H   UNL     1       2.781   6.545  16.418  0.00  0.00    +0.000 HD
BRANCH  20  22
ATOM     22  C   UNL     1       2.558   7.849  17.993  0.00  0.00    +0.000 A 
ATOM     23  C   UNL     1       1.972   9.075  17.676  0.00  0.00    +0.000 A 
ATOM     24  C   UNL     1       1.308   9.823  18.654  0.00  0.00    +0.000 A 
ATOM     25  C   UNL     1       1.205   9.344  19.959  0.00  0.00    +0.000 A 
ATOM     26  C   UNL     1       1.727   8.091  20.277  0.00  0.00    +0.000 A 
ATOM     27  C   UNL     1       2.385   7.353  19.294  0.00  0.00    +0.000 A 
ATOM     28  F   UNL     1       2.895   6.153  19.619  0.00  0.00    +0.000 F 
ENDBRANCH  20  22
ENDBRANCH  17  19
ENDBRANCH   1  17
TORSDOF 3
ENDMDL
MODEL 9
REMARK VINA RESULT:      -7.9      1.001      1.002
REMARK  Name = 
REMARK  3 active torsions:
REMARK  status: ('A' for Active; 'I' for Inactive)
REMARK    1  A    between atoms: C_2  and  C_3
REMARK    2  A    between atoms: C_3  and  C_4
REMARK    3  A    between atoms: N_19  and  C_20
REMARK                            x       y       z     vdW  Elec       q    Type
REMARK                         _______ _______ _______ _____ _____    ______ ____
ROOT
ATOM      1  C   UNL     1       3.901   5.177  17.842  0.00  0.00    +0.000 C 
ATOM      2  C   UNL     1       3.533   3.970  18.710  0.00  0.00    +0.000 C 
ATOM      3  O   UNL     1       3.582   2.808  18.315  0.00  0.00    +0.000 OA
ATOM      4  N   UNL     1       3.285   4.245  20.032  0.00  0.00    +0.000 N 
ATOM      5  N   UNL     1       2.732   5.411  20.446  0.00  0.00    +0.000 NA
ATOM      6  C   UNL     1       2.654   6.379  19.584  0.00  0.00    +0.000 C 
ATOM      7  C   UNL     1       1.863   7.579  19.961  0.00  0.00    +0.000 A 
ATOM      8  C   UNL     1       1.087   7.576  21.126  0.00  0.00    +0.000 A 
ATOM      9  C   UNL     1       0.274   8.665  21.412  0.00  0.00    +0.000 A 
ATOM     10  C   UNL     1       0.261   9.761  20.548  0.00  0.00    +0.000 A 
ATOM     11  C   UNL     1       1.039   9.755  19.382  0.00  0.00    +0.000 A 
ATOM     12  C   UNL     1       1.831   8.647  19.060  0.00  0.00    +0.000 A 
ATOM     13  N   UNL     1       2.511   8.623  17.814  0.00  0.00    +0.000 NA
ATOM     14  C   UNL     1       3.112   7.514  17.513  0.00  0.00    +0.000 C 
ATOM     15  N   UNL     1       3.199   6.391  18.309  0.00  0.00    +0.000 N 
ATOM     16  H   UNL     1       3.098   3.447  20.634  0.00  0.00    +0.000 HD
ENDROOT
BRANCH   1  17
ATOM     17  C   UNL     1       5.420   5.366  17.932  0.00  0.00    +0.000 C 
BRANCH  17  19
ATOM     18  O   UNL     1       7.118   4.096  16.864  0.00  0.00    +0.000 OA
ATOM     19  C   UNL     1       6.099   4.764  16.715  0.00  0.00    +0.000 C 
ATOM     20  N   UNL     1       5.465   5.039  15.515  0.00  0.00    +0.000 N 
ATOM     21  H   UNL     1       4.763   5.773  15.490  0.00  0.00    +0.000 HD
BRANCH  20  22
ATOM     22  C   UNL     1       5.884   4.583  14.241  0.00  0.00    +0.000 A 
ATOM     23  C   UNL     1       5.151   3.685  13.465  0.00  0.00    +0.000 A 
ATOM     24  C   UNL     1       5.668   3.196  12.261  0.00  0.00    +0.000 A 
ATOM     25  C   UNL     1       6.917   3.615  11.807  0.00  0.00    +0.000 A 
ATOM     26  C   UNL     1       7.633   4.563  12.537  0.00  0.00    +0.000 A 
ATOM     27  C   UNL     1       7.108   5.046  13.735  0.00  0.00    +0.000 A 
ATOM     28  F   UNL     1       7.816   5.948  14.434  0.00  0.00    +0.000 F 
ENDBRANCH  20  22
ENDBRANCH  17  19
ENDBRANCH   1  17
TORSDOF 3
ENDMDL
