MODEL 1
REMARK VINA RESULT:      -9.3      0.000      0.000
REMARK  Name = 
REMARK  3 active torsions:
REMARK  status: ('A' for Active; 'I' for Inactive)
REMARK    1  A    between atoms: C_2  and  C_16
REMARK    2  A    between atoms: N_3  and  C_4
REMARK    3  A    between atoms: C_4  and  C_5
REMARK                            x       y       z     vdW  Elec       q    Type
REMARK                         _______ _______ _______ _____ _____    ______ ____
ROOT
ATOM      1  O   UNL     1       3.571   7.714  16.681  0.00  0.00    +0.000 OA
ATOM      2  C   UNL     1       3.395   7.095  17.724  0.00  0.00    +0.000 C 
ATOM      3  N   UNL     1       2.494   7.518  18.682  0.00  0.00    +0.000 N 
ATOM      4  H   UNL     1       2.401   7.037  19.562  0.00  0.00    +0.000 HD
ENDROOT
BRANCH   2   5
ATOM      5  C   UNL     1       4.149   5.827  18.029  0.00  0.00    +0.000 A 
ATOM      6  C   UNL     1       5.482   5.916  18.209  0.00  0.00    +0.000 A 
ATOM      7  C   UNL     1       6.316   4.762  18.587  0.00  0.00    +0.000 A 
ATOM      8  O   UNL     1       7.533   4.882  18.662  0.00  0.00    +0.000 OA
ATOM      9  N   UNL     1       5.668   3.599  18.861  0.00  0.00    +0.000 N 
ATOM     10  C   UNL     1       4.284   3.443  18.748  0.00  0.00    +0.000 A 
ATOM     11  C   UNL     1       3.721   2.207  19.088  0.00  0.00    +0.000 A 
ATOM     12  C   UNL     1       2.345   2.028  18.980  0.00  0.00    +0.000 A 
ATOM     13  C   UNL     1       1.564   3.059  18.477  0.00  0.00    +0.000 A 
ATOM     14  F   UNL     1       0.243   2.876  18.348  0.00  0.00    +0.000 F 
ATOM     15  C   UNL     1       2.125   4.282  18.108  0.00  0.00    +0.000 A 
ATOM     16  C   UNL     1       3.493   4.516  18.287  0.00  0.00    +0.000 A 
ATOM     17  H   UNL     1       6.256   2.825  19.140  0.00  0.00    +0.000 HD
ENDBRANCH   2   5
BRANCH   3  18
ATOM     18  C   UNL     1       1.699   8.710  18.503  0.00  0.00    +0.000 C 
BRANCH  18  19
ATOM     19  C   UNL     1       1.129   9.148  19.827  0.00  0.00    +0.000 A 
ATOM     20  C   UNL     1       1.507   8.530  20.959  0.00  0.00    +0.000 A 
ATOM     21  N   UNL     1       1.050   8.902  22.192  0.00  0.00    +0.000 N 
ATOM     22  C   UNL     1       0.156   9.919  22.414  0.00  0.00    +0.000 A 
ATOM     23  O   UNL     1      -0.221  10.214  23.548  0.00  0.00    +0.000 OA
ATOM     24  C   UNL     1      -0.316  10.647  21.212  0.00  0.00    +0.000 A 
ATOM     25  C   UNL     1      -1.240  11.690  21.366  0.00  0.00    +0.000 A 
ATOM     26  C   UNL     1      -1.690  12.390  20.248  0.00  0.00    +0.000 A 
ATOM     27  C   UNL     1      -1.187  12.072  18.991  0.00  0.00    +0.000 A 
ATOM     28  C   UNL     1      -0.250  11.041  18.841  0.00  0.00    +0.000 A 
ATOM     29  C   UNL     1       0.184  10.288  19.943  0.00  0.00    +0.000 A 
ATOM     30  H   UNL     1       1.375   8.412  23.019  0.00  0.00    +0.000 HD
ENDBRANCH  18  19
ENDBRANCH   3  18
TORSDOF 3
ENDMDL
MODEL 2
REMARK VINA RESULT:      -9.1      2.831      7.952
REMARK  Name = 
REMARK  3 active torsions:
REMARK  status: ('A' for Active; 'I' for Inactive)
REMARK    1  A    between atoms: C_2  and  C_16
REMARK    2  A    between atoms: N_3  and  C_4
REMARK    3  A    between atoms: C_4  and  C_5
REMARK                            x       y       z     vdW  Elec       q    Type
REMARK                         _______ _______ _______ _____ _____    ______ ____
ROOT
ATOM      1  O   UNL     1       2.062   9.497  17.355  0.00  0.00    +0.000 OA
ATOM      2  C   UNL     1       1.509   9.231  18.415  0.00  0.00    +0.000 C 
ATOM      3  N   UNL     1       1.777   8.066  19.107  0.00  0.00    +0.000 N 
ATOM      4  H   UNL     1       1.272   7.827  19.946  0.00  0.00    +0.000 HD
ENDROOT
BRANCH   2   5
ATOM      5  C   UNL     1       0.500  10.161  19.037  0.00  0.00    +0.000 A 
ATOM      6  C   UNL     1       0.888  10.884  20.106  0.00  0.00    +0.000 A 
ATOM      7  C   UNL     1       0.019  11.883  20.753  0.00  0.00    +0.000 A 
ATOM      8  O   UNL     1       0.394  12.457  21.770  0.00  0.00    +0.000 OA
ATOM      9  N   UNL     1      -1.175  12.136  20.158  0.00  0.00    +0.000 N 
ATOM     10  C   UNL     1      -1.626  11.465  19.017  0.00  0.00    +0.000 A 
ATOM     11  C   UNL     1      -2.861  11.832  18.470  0.00  0.00    +0.000 A 
ATOM     12  C   UNL     1      -3.330  11.176  17.337  0.00  0.00    +0.000 A 
ATOM     13  C   UNL     1      -2.594  10.126  16.806  0.00  0.00    +0.000 A 
ATOM     14  F   UNL     1      -3.059   9.477  15.731  0.00  0.00    +0.000 F 
ATOM     15  C   UNL     1      -1.376   9.737  17.367  0.00  0.00    +0.000 A 
ATOM     16  C   UNL     1      -0.842  10.436  18.454  0.00  0.00    +0.000 A 
ATOM     17  H   UNL     1      -1.747  12.840  20.605  0.00  0.00    +0.000 HD
ENDBRANCH   2   5
BRANCH   3  18
ATOM     18  C   UNL     1       2.734   7.099  18.624  0.00  0.00    +0.000 C 
BRANCH  18  19
ATOM     19  C   UNL     1       2.650   5.840  19.447  0.00  0.00    +0.000 A 
ATOM     20  C   UNL     1       2.277   5.905  20.738  0.00  0.00    +0.000 A 
ATOM     21  N   UNL     1       2.150   4.797  21.527  0.00  0.00    +0.000 N 
ATOM     22  C   UNL     1       2.402   3.514  21.108  0.00  0.00    +0.000 A 
ATOM     23  O   UNL     1       2.271   2.550  21.862  0.00  0.00    +0.000 OA
ATOM     24  C   UNL     1       2.827   3.359  19.697  0.00  0.00    +0.000 A 
ATOM     25  C   UNL     1       3.112   2.076  19.208  0.00  0.00    +0.000 A 
ATOM     26  C   UNL     1       3.507   1.910  17.882  0.00  0.00    +0.000 A 
ATOM     27  C   UNL     1       3.577   3.018  17.043  0.00  0.00    +0.000 A 
ATOM     28  C   UNL     1       3.274   4.297  17.528  0.00  0.00    +0.000 A 
ATOM     29  C   UNL     1       2.921   4.498  18.871  0.00  0.00    +0.000 A 
ATOM     30  H   UNL     1       1.853   4.896  22.492  0.00  0.00    +0.000 HD
ENDBRANCH  18  19
ENDBRANCH   3  18
TORSDOF 3
ENDMDL
MODEL 3
REMARK VINA RESULT:      -9.0      3.499      8.722
REMARK  Name = 
REMARK  3 active torsions:
REMARK  status: ('A' for Active; 'I' for Inactive)
REMARK    1  A    between atoms: C_2  and  C_16
REMARK    2  A    between atoms: N_3  and  C_4
REMARK    3  A    between atoms: C_4  and  C_5
REMARK                            x       y       z     vdW  Elec       q    Type
REMARK                         _______ _______ _______ _____ _____    ______ ____
ROOT
ATOM      1  O   UNL     1      -0.264   9.243  21.113  0.00  0.00    +0.000 OA
ATOM      2  C   UNL     1       0.279   9.490  20.042  0.00  0.00    +0.000 C 
ATOM      3  N   UNL     1       1.340   8.740  19.571  0.00  0.00    +0.000 N 
ATOM      4  H   UNL     1       1.818   8.988  18.719  0.00  0.00    +0.000 HD
ENDROOT
BRANCH   2   5
ATOM      5  C   UNL     1      -0.179  10.626  19.166  0.00  0.00    +0.000 A 
ATOM      6  C   UNL     1      -1.194  10.390  18.311  0.00  0.00    +0.000 A 
ATOM      7  C   UNL     1      -1.781  11.439  17.459  0.00  0.00    +0.000 A 
ATOM      8  O   UNL     1      -2.650  11.154  16.643  0.00  0.00    +0.000 OA
ATOM      9  N   UNL     1      -1.327  12.706  17.644  0.00  0.00    +0.000 N 
ATOM     10  C   UNL     1      -0.314  13.039  18.548  0.00  0.00    +0.000 A 
ATOM     11  C   UNL     1       0.049  14.384  18.680  0.00  0.00    +0.000 A 
ATOM     12  C   UNL     1       1.057  14.737  19.572  0.00  0.00    +0.000 A 
ATOM     13  C   UNL     1       1.726  13.741  20.269  0.00  0.00    +0.000 A 
ATOM     14  F   UNL     1       2.715  14.079  21.107  0.00  0.00    +0.000 F 
ATOM     15  C   UNL     1       1.387  12.395  20.118  0.00  0.00    +0.000 A 
ATOM     16  C   UNL     1       0.321  12.022  19.292  0.00  0.00    +0.000 A 
ATOM     17  H   UNL     1      -1.758  13.415  17.065  0.00  0.00    +0.000 HD
ENDBRANCH   2   5
BRANCH   3  18
ATOM     18  C   UNL     1       1.862   7.616  20.310  0.00  0.00    +0.000 C 
BRANCH  18  19
ATOM     19  C   UNL     1       2.420   6.591  19.356  0.00  0.00    +0.000 A 
ATOM     20  C   UNL     1       3.240   6.975  18.362  0.00  0.00    +0.000 A 
ATOM     21  N   UNL     1       3.802   6.090  17.485  0.00  0.00    +0.000 N 
ATOM     22  C   UNL     1       3.586   4.735  17.505  0.00  0.00    +0.000 A 
ATOM     23  O   UNL     1       4.121   3.983  16.691  0.00  0.00    +0.000 OA
ATOM     24  C   UNL     1       2.686   4.233  18.570  0.00  0.00    +0.000 A 
ATOM     25  C   UNL     1       2.412   2.859  18.640  0.00  0.00    +0.000 A 
ATOM     26  C   UNL     1       1.573   2.368  19.637  0.00  0.00    +0.000 A 
ATOM     27  C   UNL     1       1.043   3.243  20.581  0.00  0.00    +0.000 A 
ATOM     28  C   UNL     1       1.332   4.613  20.521  0.00  0.00    +0.000 A 
ATOM     29  C   UNL     1       2.135   5.141  19.498  0.00  0.00    +0.000 A 
ATOM     30  H   UNL     1       4.425   6.427  16.759  0.00  0.00    +0.000 HD
ENDBRANCH  18  19
ENDBRANCH   3  18
TORSDOF 3
ENDMDL
MODEL 4
REMARK VINA RESULT:      -8.9      2.370      3.091
REMARK  Name = 
REMARK  3 active torsions:
REMARK  status: ('A' for Active; 'I' for Inactive)
REMARK    1  A    between atoms: C_2  and  C_16
REMARK    2  A    between atoms: N_3  and  C_4
REMARK    3  A    between atoms: C_4  and  C_5
REMARK                            x       y       z     vdW  Elec       q    Type
REMARK                         _______ _______ _______ _____ _____    ______ ____
ROOT
ATOM      1  O   UNL     1       2.011   7.271  20.366  0.00  0.00    +0.000 OA
ATOM      2  C   UNL     1       2.194   7.566  19.191  0.00  0.00    +0.000 C 
ATOM      3  N   UNL     1       1.773   8.773  18.666  0.00  0.00    +0.000 N 
ATOM      4  H   UNL     1       1.874   8.980  17.685  0.00  0.00    +0.000 HD
ENDROOT
BRANCH   2   5
ATOM      5  C   UNL     1       2.897   6.632  18.241  0.00  0.00    +0.000 A 
ATOM      6  C   UNL     1       3.949   7.113  17.549  0.00  0.00    +0.000 A 
ATOM      7  C   UNL     1       4.763   6.278  16.650  0.00  0.00    +0.000 A 
ATOM      8  O   UNL     1       5.661   6.784  15.986  0.00  0.00    +0.000 OA
ATOM      9  N   UNL     1       4.480   4.950  16.620  0.00  0.00    +0.000 N 
ATOM     10  C   UNL     1       3.439   4.367  17.349  0.00  0.00    +0.000 A 
ATOM     11  C   UNL     1       3.260   2.981  17.267  0.00  0.00    +0.000 A 
ATOM     12  C   UNL     1       2.228   2.380  17.981  0.00  0.00    +0.000 A 
ATOM     13  C   UNL     1       1.356   3.174  18.712  0.00  0.00    +0.000 A 
ATOM     14  F   UNL     1       0.346   2.598  19.377  0.00  0.00    +0.000 F 
ATOM     15  C   UNL     1       1.512   4.560  18.772  0.00  0.00    +0.000 A 
ATOM     16  C   UNL     1       2.592   5.179  18.132  0.00  0.00    +0.000 A 
ATOM     17  H   UNL     1       5.064   4.390  16.013  0.00  0.00    +0.000 HD
ENDBRANCH   2   5
BRANCH   3  18
ATOM     18  C   UNL     1       1.101   9.760  19.476  0.00  0.00    +0.000 C 
BRANCH  18  19
ATOM     19  C   UNL     1      -0.176  10.192  18.802  0.00  0.00    +0.000 A 
ATOM     20  C   UNL     1      -0.456   9.766  17.558  0.00  0.00    +0.000 A 
ATOM     21  N   UNL     1      -1.610  10.097  16.906  0.00  0.00    +0.000 N 
ATOM     22  C   UNL     1      -2.592  10.901  17.428  0.00  0.00    +0.000 A 
ATOM     23  O   UNL     1      -3.615  11.166  16.797  0.00  0.00    +0.000 OA
ATOM     24  C   UNL     1      -2.355  11.419  18.797  0.00  0.00    +0.000 A 
ATOM     25  C   UNL     1      -3.312  12.256  19.385  0.00  0.00    +0.000 A 
ATOM     26  C   UNL     1      -3.109  12.747  20.672  0.00  0.00    +0.000 A 
ATOM     27  C   UNL     1      -1.972  12.369  21.379  0.00  0.00    +0.000 A 
ATOM     28  C   UNL     1      -1.024  11.517  20.797  0.00  0.00    +0.000 A 
ATOM     29  C   UNL     1      -1.180  11.047  19.484  0.00  0.00    +0.000 A 
ATOM     30  H   UNL     1      -1.782   9.740  15.972  0.00  0.00    +0.000 HD
ENDBRANCH  18  19
ENDBRANCH   3  18
TORSDOF 3
ENDMDL
MODEL 5
REMARK VINA RESULT:      -8.9      2.177      7.823
REMARK  Name = 
REMARK  3 active torsions:
REMARK  status: ('A' for Active; 'I' for Inactive)
REMARK    1  A    between atoms: C_2  and  C_16
REMARK    2  A    between atoms: N_3  and  C_4
REMARK    3  A    between atoms: C_4  and  C_5
REMARK                            x       y       z     vdW  Elec       q    Type
REMARK                         _______ _______ _______ _____ _____    ______ ____
ROOT
ATOM      1  O   UNL     1       1.978   9.188  17.361  0.00  0.00    +0.000 OA
ATOM      2  C   UNL     1       1.870   8.696  18.478  0.00  0.00    +0.000 C 
ATOM      3  N   UNL     1       2.537   7.539  18.835  0.00  0.00    +0.000 N 
ATOM      4  H   UNL     1       2.395   7.110  19.735  0.00  0.00    +0.000 HD
ENDROOT
BRANCH   2   5
ATOM      5  C   UNL     1       1.006   9.324  19.540  0.00  0.00    +0.000 A 
ATOM      6  C   UNL     1       1.410   9.220  20.822  0.00  0.00    +0.000 A 
ATOM      7  C   UNL     1       0.692   9.857  21.940  0.00  0.00    +0.000 A 
ATOM      8  O   UNL     1       1.059   9.666  23.094  0.00  0.00    +0.000 OA
ATOM      9  N   UNL     1      -0.354  10.661  21.619  0.00  0.00    +0.000 N 
ATOM     10  C   UNL     1      -0.801  10.861  20.310  0.00  0.00    +0.000 A 
ATOM     11  C   UNL     1      -1.869  11.739  20.095  0.00  0.00    +0.000 A 
ATOM     12  C   UNL     1      -2.332  11.951  18.800  0.00  0.00    +0.000 A 
ATOM     13  C   UNL     1      -1.766  11.238  17.752  0.00  0.00    +0.000 A 
ATOM     14  F   UNL     1      -2.231  11.422  16.509  0.00  0.00    +0.000 F 
ATOM     15  C   UNL     1      -0.721  10.339  17.966  0.00  0.00    +0.000 A 
ATOM     16  C   UNL     1      -0.181  10.172  19.246  0.00  0.00    +0.000 A 
ATOM     17  H   UNL     1      -0.820  11.106  22.399  0.00  0.00    +0.000 HD
ENDBRANCH   2   5
BRANCH   3  18
ATOM     18  C   UNL     1       3.408   6.850  17.912  0.00  0.00    +0.000 C 
BRANCH  18  19
ATOM     19  C   UNL     1       3.817   5.521  18.491  0.00  0.00    +0.000 A 
ATOM     20  C   UNL     1       5.068   5.345  18.954  0.00  0.00    +0.000 A 
ATOM     21  N   UNL     1       5.489   4.174  19.519  0.00  0.00    +0.000 N 
ATOM     22  C   UNL     1       4.705   3.057  19.662  0.00  0.00    +0.000 A 
ATOM     23  O   UNL     1       5.136   2.027  20.182  0.00  0.00    +0.000 OA
ATOM     24  C   UNL     1       3.311   3.168  19.170  0.00  0.00    +0.000 A 
ATOM     25  C   UNL     1       2.461   2.059  19.275  0.00  0.00    +0.000 A 
ATOM     26  C   UNL     1       1.146   2.146  18.822  0.00  0.00    +0.000 A 
ATOM     27  C   UNL     1       0.677   3.349  18.305  0.00  0.00    +0.000 A 
ATOM     28  C   UNL     1       1.523   4.463  18.217  0.00  0.00    +0.000 A 
ATOM     29  C   UNL     1       2.865   4.388  18.620  0.00  0.00    +0.000 A 
ATOM     30  H   UNL     1       6.439   4.095  19.864  0.00  0.00    +0.000 HD
ENDBRANCH  18  19
ENDBRANCH   3  18
TORSDOF 3
ENDMDL
MODEL 6
REMARK VINA RESULT:      -8.7      1.337      1.350
REMARK  Name = 
REMARK  3 active torsions:
REMARK  status: ('A' for Active; 'I' for Inactive)
REMARK    1  A    between atoms: C_2  and  C_16
REMARK    2  A    between atoms: N_3  and  C_4
REMARK    3  A    between atoms: C_4  and  C_5
REMARK                            x       y       z     vdW  Elec       q    Type
REMARK                         _______ _______ _______ _____ _____    ______ ____
ROOT
ATOM      1  O   UNL     1       4.447   7.833  17.741  0.00  0.00    +0.000 OA
ATOM      2  C   UNL     1       3.534   7.018  17.679  0.00  0.00    +0.000 C 
ATOM      3  N   UNL     1       2.210   7.393  17.803  0.00  0.00    +0.000 N 
ATOM      4  H   UNL     1       1.471   6.708  17.812  0.00  0.00    +0.000 HD
ENDROOT
BRANCH   2   5
ATOM      5  C   UNL     1       3.796   5.551  17.459  0.00  0.00    +0.000 A 
ATOM      6  C   UNL     1       4.801   5.210  16.628  0.00  0.00    +0.000 A 
ATOM      7  C   UNL     1       5.204   3.812  16.393  0.00  0.00    +0.000 A 
ATOM      8  O   UNL     1       6.073   3.554  15.568  0.00  0.00    +0.000 OA
ATOM      9  N   UNL     1       4.586   2.861  17.140  0.00  0.00    +0.000 N 
ATOM     10  C   UNL     1       3.571   3.141  18.060  0.00  0.00    +0.000 A 
ATOM     11  C   UNL     1       3.029   2.083  18.799  0.00  0.00    +0.000 A 
ATOM     12  C   UNL     1       2.016   2.338  19.718  0.00  0.00    +0.000 A 
ATOM     13  C   UNL     1       1.519   3.629  19.840  0.00  0.00    +0.000 A 
ATOM     14  F   UNL     1       0.525   3.869  20.705  0.00  0.00    +0.000 F 
ATOM     15  C   UNL     1       2.036   4.681  19.082  0.00  0.00    +0.000 A 
ATOM     16  C   UNL     1       3.112   4.466  18.214  0.00  0.00    +0.000 A 
ATOM     17  H   UNL     1       4.892   1.910  16.979  0.00  0.00    +0.000 HD
ENDBRANCH   2   5
BRANCH   3  18
ATOM     18  C   UNL     1       1.826   8.770  18.002  0.00  0.00    +0.000 C 
BRANCH  18  19
ATOM     19  C   UNL     1       1.352   8.969  19.419  0.00  0.00    +0.000 A 
ATOM     20  C   UNL     1       1.773   8.141  20.391  0.00  0.00    +0.000 A 
ATOM     21  N   UNL     1       1.405   8.289  21.698  0.00  0.00    +0.000 N 
ATOM     22  C   UNL     1       0.563   9.269  22.161  0.00  0.00    +0.000 A 
ATOM     23  O   UNL     1       0.265   9.358  23.352  0.00  0.00    +0.000 OA
ATOM     24  C   UNL     1       0.048  10.220  21.147  0.00  0.00    +0.000 A 
ATOM     25  C   UNL     1      -0.826  11.239  21.549  0.00  0.00    +0.000 A 
ATOM     26  C   UNL     1      -1.316  12.145  20.611  0.00  0.00    +0.000 A 
ATOM     27  C   UNL     1      -0.900  12.054  19.287  0.00  0.00    +0.000 A 
ATOM     28  C   UNL     1      -0.012  11.046  18.889  0.00  0.00    +0.000 A 
ATOM     29  C   UNL     1       0.458  10.091  19.803  0.00  0.00    +0.000 A 
ATOM     30  H   UNL     1       1.759   7.646  22.398  0.00  0.00    +0.000 HD
ENDBRANCH  18  19
ENDBRANCH   3  18
TORSDOF 3
ENDMDL
MODEL 7
REMARK VINA RESULT:      -8.7      2.634      3.218
REMARK  Name = 
REMARK  3 active torsions:
REMARK  status: ('A' for Active; 'I' for Inactive)
REMARK    1  A    between atoms: C_2  and  C_16
REMARK    2  A    between atoms: N_3  and  C_4
REMARK    3  A    between atoms: C_4  and  C_5
REMARK                            x       y       z     vdW  Elec       q    Type
REMARK                         _______ _______ _______ _____ _____    ______ ____
ROOT
ATOM      1  O   UNL     1       2.145   7.336  20.286  0.00  0.00    +0.000 OA
ATOM      2  C   UNL     1       2.212   7.526  19.078  0.00  0.00    +0.000 C 
ATOM      3  N   UNL     1       1.596   8.606  18.473  0.00  0.00    +0.000 N 
ATOM      4  H   UNL     1       1.606   8.721  17.472  0.00  0.00    +0.000 HD
ENDROOT
BRANCH   2   5
ATOM      5  C   UNL     1       2.975   6.597  18.171  0.00  0.00    +0.000 A 
ATOM      6  C   UNL     1       4.058   7.088  17.536  0.00  0.00    +0.000 A 
ATOM      7  C   UNL     1       4.930   6.259  16.686  0.00  0.00    +0.000 A 
ATOM      8  O   UNL     1       5.857   6.773  16.071  0.00  0.00    +0.000 OA
ATOM      9  N   UNL     1       4.662   4.928  16.645  0.00  0.00    +0.000 N 
ATOM     10  C   UNL     1       3.588   4.336  17.316  0.00  0.00    +0.000 A 
ATOM     11  C   UNL     1       3.429   2.948  17.229  0.00  0.00    +0.000 A 
ATOM     12  C   UNL     1       2.366   2.338  17.888  0.00  0.00    +0.000 A 
ATOM     13  C   UNL     1       1.446   3.125  18.567  0.00  0.00    +0.000 A 
ATOM     14  F   UNL     1       0.408   2.540  19.177  0.00  0.00    +0.000 F 
ATOM     15  C   UNL     1       1.585   4.513  18.631  0.00  0.00    +0.000 A 
ATOM     16  C   UNL     1       2.692   5.141  18.050  0.00  0.00    +0.000 A 
ATOM     17  H   UNL     1       5.285   4.373  16.072  0.00  0.00    +0.000 HD
ENDBRANCH   2   5
BRANCH   3  18
ATOM     18  C   UNL     1       0.847   9.577  19.235  0.00  0.00    +0.000 C 
BRANCH  18  19
ATOM     19  C   UNL     1       1.393  10.958  18.979  0.00  0.00    +0.000 A 
ATOM     20  C   UNL     1       2.183  11.182  17.914  0.00  0.00    +0.000 A 
ATOM     21  N   UNL     1       2.681  12.418  17.611  0.00  0.00    +0.000 N 
ATOM     22  C   UNL     1       2.453  13.549  18.354  0.00  0.00    +0.000 A 
ATOM     23  O   UNL     1       2.927  14.640  18.034  0.00  0.00    +0.000 OA
ATOM     24  C   UNL     1       1.595  13.384  19.551  0.00  0.00    +0.000 A 
ATOM     25  C   UNL     1       1.332  14.498  20.360  0.00  0.00    +0.000 A 
ATOM     26  C   UNL     1       0.523  14.362  21.486  0.00  0.00    +0.000 A 
ATOM     27  C   UNL     1      -0.049  13.128  21.776  0.00  0.00    +0.000 A 
ATOM     28  C   UNL     1       0.199  12.019  20.955  0.00  0.00    +0.000 A 
ATOM     29  C   UNL     1       1.049  12.117  19.843  0.00  0.00    +0.000 A 
ATOM     30  H   UNL     1       3.263  12.539  16.789  0.00  0.00    +0.000 HD
ENDBRANCH  18  19
ENDBRANCH   3  18
TORSDOF 3
ENDMDL
MODEL 8
REMARK VINA RESULT:      -8.7      2.587      3.495
REMARK  Name = 
REMARK  3 active torsions:
REMARK  status: ('A' for Active; 'I' for Inactive)
REMARK    1  A    between atoms: C_2  and  C_16
REMARK    2  A    between atoms: N_3  and  C_4
REMARK    3  A    between atoms: C_4  and  C_5
REMARK                            x       y       z     vdW  Elec       q    Type
REMARK                         _______ _______ _______ _____ _____    ______ ____
ROOT
ATOM      1  O   UNL     1       0.850   4.684  20.588  0.00  0.00    +0.000 OA
ATOM      2  C   UNL     1       1.910   5.282  20.445  0.00  0.00    +0.000 C 
ATOM      3  N   UNL     1       2.044   6.620  20.764  0.00  0.00    +0.000 N 
ATOM      4  H   UNL     1       2.902   7.117  20.585  0.00  0.00    +0.000 HD
ENDROOT
BRANCH   2   5
ATOM      5  C   UNL     1       3.141   4.594  19.916  0.00  0.00    +0.000 A 
ATOM      6  C   UNL     1       3.493   3.418  20.472  0.00  0.00    +0.000 A 
ATOM      7  C   UNL     1       4.629   2.614  19.990  0.00  0.00    +0.000 A 
ATOM      8  O   UNL     1       4.952   1.590  20.581  0.00  0.00    +0.000 OA
ATOM      9  N   UNL     1       5.262   3.054  18.872  0.00  0.00    +0.000 N 
ATOM     10  C   UNL     1       4.923   4.236  18.208  0.00  0.00    +0.000 A 
ATOM     11  C   UNL     1       5.624   4.574  17.044  0.00  0.00    +0.000 A 
ATOM     12  C   UNL     1       5.305   5.748  16.369  0.00  0.00    +0.000 A 
ATOM     13  C   UNL     1       4.340   6.594  16.897  0.00  0.00    +0.000 A 
ATOM     14  F   UNL     1       4.053   7.738  16.261  0.00  0.00    +0.000 F 
ATOM     15  C   UNL     1       3.661   6.276  18.074  0.00  0.00    +0.000 A 
ATOM     16  C   UNL     1       3.903   5.061  18.725  0.00  0.00    +0.000 A 
ATOM     17  H   UNL     1       6.026   2.476  18.545  0.00  0.00    +0.000 HD
ENDBRANCH   2   5
BRANCH   3  18
ATOM     18  C   UNL     1       0.942   7.387  21.294  0.00  0.00    +0.000 C 
BRANCH  18  19
ATOM     19  C   UNL     1       0.902   8.744  20.639  0.00  0.00    +0.000 A 
ATOM     20  C   UNL     1       1.460   8.922  19.428  0.00  0.00    +0.000 A 
ATOM     21  N   UNL     1       1.428  10.119  18.769  0.00  0.00    +0.000 N 
ATOM     22  C   UNL     1       0.850  11.261  19.264  0.00  0.00    +0.000 A 
ATOM     23  O   UNL     1       0.849  12.314  18.626  0.00  0.00    +0.000 OA
ATOM     24  C   UNL     1       0.218  11.148  20.599  0.00  0.00    +0.000 A 
ATOM     25  C   UNL     1      -0.381  12.281  21.168  0.00  0.00    +0.000 A 
ATOM     26  C   UNL     1      -0.985  12.193  22.420  0.00  0.00    +0.000 A 
ATOM     27  C   UNL     1      -1.023  10.968  23.079  0.00  0.00    +0.000 A 
ATOM     28  C   UNL     1      -0.440   9.832  22.501  0.00  0.00    +0.000 A 
ATOM     29  C   UNL     1       0.217   9.904  21.264  0.00  0.00    +0.000 A 
ATOM     30  H   UNL     1       1.853  10.200  17.852  0.00  0.00    +0.000 HD
ENDBRANCH  18  19
ENDBRANCH   3  18
TORSDOF 3
ENDMDL
MODEL 9
REMARK VINA RESULT:      -8.6      2.570      8.059
REMARK  Name = 
REMARK  3 active torsions:
REMARK  status: ('A' for Active; 'I' for Inactive)
REMARK    1  A    between atoms: C_2  and  C_16
REMARK    2  A    between atoms: N_3  and  C_4
REMARK    3  A    between atoms: C_4  and  C_5
REMARK                            x       y       z     vdW  Elec       q    Type
REMARK                         _______ _______ _______ _____ _____    ______ ____
ROOT
ATOM      1  O   UNL     1       2.395  10.758  17.469  0.00  0.00    +0.000 OA
ATOM      2  C   UNL     1       1.676   9.996  18.105  0.00  0.00    +0.000 C 
ATOM      3  N   UNL     1       1.882   8.630  18.110  0.00  0.00    +0.000 N 
ATOM      4  H   UNL     1       1.250   8.007  18.586  0.00  0.00    +0.000 HD
ENDROOT
BRANCH   2   5
ATOM      5  C   UNL     1       0.522  10.501  18.930  0.00  0.00    +0.000 A 
ATOM      6  C   UNL     1       0.801  11.077  20.116  0.00  0.00    +0.000 A 
ATOM      7  C   UNL     1      -0.234  11.678  20.976  0.00  0.00    +0.000 A 
ATOM      8  O   UNL     1       0.065  12.120  22.079  0.00  0.00    +0.000 OA
ATOM      9  N   UNL     1      -1.495  11.730  20.475  0.00  0.00    +0.000 N 
ATOM     10  C   UNL     1      -1.853  11.201  19.231  0.00  0.00    +0.000 A 
ATOM     11  C   UNL     1      -3.178  11.342  18.801  0.00  0.00    +0.000 A 
ATOM     12  C   UNL     1      -3.557  10.821  17.568  0.00  0.00    +0.000 A 
ATOM     13  C   UNL     1      -2.629  10.116  16.815  0.00  0.00    +0.000 A 
ATOM     14  F   UNL     1      -3.002   9.591  15.640  0.00  0.00    +0.000 F 
ATOM     15  C   UNL     1      -1.315   9.947  17.253  0.00  0.00    +0.000 A 
ATOM     16  C   UNL     1      -0.887  10.535  18.449  0.00  0.00    +0.000 A 
ATOM     17  H   UNL     1      -2.186  12.166  21.071  0.00  0.00    +0.000 HD
ENDBRANCH   2   5
BRANCH   3  18
ATOM     18  C   UNL     1       2.964   8.023  17.371  0.00  0.00    +0.000 C 
BRANCH  18  19
ATOM     19  C   UNL     1       3.383   6.739  18.041  0.00  0.00    +0.000 A 
ATOM     20  C   UNL     1       2.486   6.023  18.741  0.00  0.00    +0.000 A 
ATOM     21  N   UNL     1       2.797   4.836  19.343  0.00  0.00    +0.000 N 
ATOM     22  C   UNL     1       4.041   4.257  19.320  0.00  0.00    +0.000 A 
ATOM     23  O   UNL     1       4.265   3.184  19.879  0.00  0.00    +0.000 OA
ATOM     24  C   UNL     1       5.090   4.991  18.573  0.00  0.00    +0.000 A 
ATOM     25  C   UNL     1       6.387   4.462  18.521  0.00  0.00    +0.000 A 
ATOM     26  C   UNL     1       7.384   5.135  17.819  0.00  0.00    +0.000 A 
ATOM     27  C   UNL     1       7.073   6.310  17.142  0.00  0.00    +0.000 A 
ATOM     28  C   UNL     1       5.772   6.829  17.181  0.00  0.00    +0.000 A 
ATOM     29  C   UNL     1       4.761   6.197  17.920  0.00  0.00    +0.000 A 
ATOM     30  H   UNL     1       2.081   4.325  19.849  0.00  0.00    +0.000 HD
ENDBRANCH  18  19
ENDBRANCH   3  18
TORSDOF 3
ENDMDL
