MODEL 1
REMARK VINA RESULT:     -10.0      0.000      0.000
REMARK  Name = 
REMARK  4 active torsions:
REMARK  status: ('A' for Active; 'I' for Inactive)
REMARK    1  A    between atoms: C_7  and  C_8
REMARK    2  A    between atoms: N_10  and  C_11
REMARK    3  A    between atoms: C_15  and  S_16
REMARK    4  A    between atoms: S_16  and  N_19
REMARK                            x       y       z     vdW  Elec       q    Type
REMARK                         _______ _______ _______ _____ _____    ______ ____
ROOT
ATOM      1  C   UNL     1       2.322   8.155  18.184  0.00  0.00    +0.000 C 
ATOM      2  O   UNL     1       2.588   8.517  17.042  0.00  0.00    +0.000 OA
ATOM      3  N   UNL     1       2.610   6.919  18.736  0.00  0.00    +0.000 N 
ATOM      4  H   UNL     1       2.177   6.687  19.622  0.00  0.00    +0.000 HD
ENDROOT
BRANCH   1  11
ATOM      5  O   UNL     1      -1.955  11.994  23.354  0.00  0.00    +0.000 OA
ATOM      6  C   UNL     1      -1.208  11.259  22.710  0.00  0.00    +0.000 C 
ATOM      7  C   UNL     1      -0.529  10.059  23.326  0.00  0.00    +0.000 C 
ATOM      8  C   UNL     1      -0.353   8.939  22.314  0.00  0.00    +0.000 C 
ATOM      9  C   UNL     1       0.263   9.465  21.049  0.00  0.00    +0.000 A 
ATOM     10  C   UNL     1       1.048   8.644  20.237  0.00  0.00    +0.000 A 
ATOM     11  C   UNL     1       1.546   9.115  19.011  0.00  0.00    +0.000 A 
ATOM     12  C   UNL     1       1.222  10.405  18.578  0.00  0.00    +0.000 A 
ATOM     13  C   UNL     1       0.414  11.223  19.382  0.00  0.00    +0.000 A 
ATOM     14  C   UNL     1      -0.049  10.755  20.616  0.00  0.00    +0.000 A 
ATOM     15  N   UNL     1      -0.855  11.568  21.420  0.00  0.00    +0.000 N 
ATOM     16  H   UNL     1      -1.216  12.443  21.066  0.00  0.00    +0.000 HD
ENDBRANCH   1  11
BRANCH   3  17
ATOM     17  C   UNL     1       3.296   5.872  18.065  0.00  0.00    +0.000 A 
ATOM     18  C   UNL     1       2.726   4.609  17.860  0.00  0.00    +0.000 A 
ATOM     19  C   UNL     1       3.437   3.584  17.235  0.00  0.00    +0.000 A 
ATOM     20  C   UNL     1       4.732   3.810  16.787  0.00  0.00    +0.000 A 
ATOM     21  C   UNL     1       5.314   5.067  16.975  0.00  0.00    +0.000 A 
ATOM     22  C   UNL     1       4.589   6.109  17.586  0.00  0.00    +0.000 A 
BRANCH  21  23
ATOM     23  S   UNL     1       6.932   5.386  16.281  0.00  0.00    +0.000 S 
ATOM     24  O   UNL     1       7.196   6.797  16.439  0.00  0.00    +0.000 OA
ATOM     25  O   UNL     1       7.826   4.389  16.839  0.00  0.00    +0.000 OA
BRANCH  23  26
ATOM     26  N   UNL     1       6.757   5.057  14.604  0.00  0.00    +0.000 NA
ATOM     27  C   UNL     1       7.911   5.455  13.762  0.00  0.00    +0.000 C 
ATOM     28  C   UNL     1       7.608   5.304  12.276  0.00  0.00    +0.000 C 
ATOM     29  C   UNL     1       7.107   3.903  11.958  0.00  0.00    +0.000 C 
ATOM     30  C   UNL     1       5.857   3.622  12.778  0.00  0.00    +0.000 C 
ATOM     31  C   UNL     1       6.141   3.747  14.273  0.00  0.00    +0.000 C 
ENDBRANCH  23  26
ENDBRANCH  21  23
ENDBRANCH   3  17
TORSDOF 4
ENDMDL
MODEL 2
REMARK VINA RESULT:      -9.5      1.056      1.126
REMARK  Name = 
REMARK  4 active torsions:
REMARK  status: ('A' for Active; 'I' for Inactive)
REMARK    1  A    between atoms: C_7  and  C_8
REMARK    2  A    between atoms: N_10  and  C_11
REMARK    3  A    between atoms: C_15  and  S_16
REMARK    4  A    between atoms: S_16  and  N_19
REMARK                            x       y       z     vdW  Elec       q    Type
REMARK                         _______ _______ _______ _____ _____    ______ ____
ROOT
ATOM      1  C   UNL     1       2.115   7.531  19.371  0.00  0.00    +0.000 C 
ATOM      2  O   UNL     1       2.360   6.898  20.393  0.00  0.00    +0.000 OA
ATOM      3  N   UNL     1       2.540   7.213  18.093  0.00  0.00    +0.000 N 
ATOM      4  H   UNL     1       2.422   7.912  17.370  0.00  0.00    +0.000 HD
ENDROOT
BRANCH   1  11
ATOM      5  O   UNL     1      -2.154  13.571  21.616  0.00  0.00    +0.000 OA
ATOM      6  C   UNL     1      -1.422  12.592  21.479  0.00  0.00    +0.000 C 
ATOM      7  C   UNL     1      -0.830  11.856  22.658  0.00  0.00    +0.000 C 
ATOM      8  C   UNL     1      -0.674  10.373  22.366  0.00  0.00    +0.000 C 
ATOM      9  C   UNL     1       0.017  10.166  21.048  0.00  0.00    +0.000 A 
ATOM     10  C   UNL     1       0.790   9.027  20.812  0.00  0.00    +0.000 A 
ATOM     11  C   UNL     1       1.359   8.797  19.549  0.00  0.00    +0.000 A 
ATOM     12  C   UNL     1       1.119   9.694  18.504  0.00  0.00    +0.000 A 
ATOM     13  C   UNL     1       0.323  10.827  18.733  0.00  0.00    +0.000 A 
ATOM     14  C   UNL     1      -0.211  11.065  20.003  0.00  0.00    +0.000 A 
ATOM     15  N   UNL     1      -1.004  12.193  20.234  0.00  0.00    +0.000 N 
ATOM     16  H   UNL     1      -1.305  12.775  19.464  0.00  0.00    +0.000 HD
ENDBRANCH   1  11
BRANCH   3  17
ATOM     17  C   UNL     1       3.316   6.070  17.757  0.00  0.00    +0.000 A 
ATOM     18  C   UNL     1       2.835   4.763  17.908  0.00  0.00    +0.000 A 
ATOM     19  C   UNL     1       3.633   3.658  17.611  0.00  0.00    +0.000 A 
ATOM     20  C   UNL     1       4.927   3.841  17.142  0.00  0.00    +0.000 A 
ATOM     21  C   UNL     1       5.420   5.138  16.977  0.00  0.00    +0.000 A 
ATOM     22  C   UNL     1       4.608   6.256  17.255  0.00  0.00    +0.000 A 
BRANCH  21  23
ATOM     23  S   UNL     1       7.040   5.364  16.251  0.00  0.00    +0.000 S 
ATOM     24  O   UNL     1       7.387   6.757  16.402  0.00  0.00    +0.000 OA
ATOM     25  O   UNL     1       7.887   4.318  16.792  0.00  0.00    +0.000 OA
BRANCH  23  26
ATOM     26  N   UNL     1       6.813   5.046  14.578  0.00  0.00    +0.000 NA
ATOM     27  C   UNL     1       7.956   5.418  13.708  0.00  0.00    +0.000 C 
ATOM     28  C   UNL     1       7.611   5.280  12.229  0.00  0.00    +0.000 C 
ATOM     29  C   UNL     1       7.066   3.894  11.921  0.00  0.00    +0.000 C 
ATOM     30  C   UNL     1       5.830   3.642  12.771  0.00  0.00    +0.000 C 
ATOM     31  C   UNL     1       6.155   3.754  14.259  0.00  0.00    +0.000 C 
ENDBRANCH  23  26
ENDBRANCH  21  23
ENDBRANCH   3  17
TORSDOF 4
ENDMDL
MODEL 3
REMARK VINA RESULT:      -9.3      6.323      8.291
REMARK  Name = 
REMARK  4 active torsions:
REMARK  status: ('A' for Active; 'I' for Inactive)
REMARK    1  A    between atoms: C_7  and  C_8
REMARK    2  A    between atoms: N_10  and  C_11
REMARK    3  A    between atoms: C_15  and  S_16
REMARK    4  A    between atoms: S_16  and  N_19
REMARK                            x       y       z     vdW  Elec       q    Type
REMARK                         _______ _______ _______ _____ _____    ______ ____
ROOT
ATOM      1  C   UNL     1       9.061  10.235  18.729  0.00  0.00    +0.000 C 
ATOM      2  O   UNL     1       9.144   9.976  19.926  0.00  0.00    +0.000 OA
ATOM      3  N   UNL     1       8.591   9.386  17.742  0.00  0.00    +0.000 N 
ATOM      4  H   UNL     1       8.745   9.656  16.777  0.00  0.00    +0.000 HD
ENDROOT
BRANCH   1  11
ATOM      5  O   UNL     1      10.486  17.596  16.851  0.00  0.00    +0.000 OA
ATOM      6  C   UNL     1      10.118  16.514  17.304  0.00  0.00    +0.000 C 
ATOM      7  C   UNL     1       9.013  16.401  18.329  0.00  0.00    +0.000 C 
ATOM      8  C   UNL     1       8.225  15.114  18.158  0.00  0.00    +0.000 C 
ATOM      9  C   UNL     1       9.154  13.937  18.061  0.00  0.00    +0.000 A 
ATOM     10  C   UNL     1       8.753  12.667  18.483  0.00  0.00    +0.000 A 
ATOM     11  C   UNL     1       9.592  11.556  18.307  0.00  0.00    +0.000 A 
ATOM     12  C   UNL     1      10.827  11.711  17.668  0.00  0.00    +0.000 A 
ATOM     13  C   UNL     1      11.222  12.981  17.223  0.00  0.00    +0.000 A 
ATOM     14  C   UNL     1      10.393  14.087  17.433  0.00  0.00    +0.000 A 
ATOM     15  N   UNL     1      10.783  15.355  16.991  0.00  0.00    +0.000 N 
ATOM     16  H   UNL     1      11.600  15.465  16.405  0.00  0.00    +0.000 HD
ENDBRANCH   1  11
BRANCH   3  17
ATOM     17  C   UNL     1       8.099   8.073  17.968  0.00  0.00    +0.000 A 
ATOM     18  C   UNL     1       8.482   7.306  19.076  0.00  0.00    +0.000 A 
ATOM     19  C   UNL     1       8.017   6.002  19.252  0.00  0.00    +0.000 A 
ATOM     20  C   UNL     1       7.143   5.446  18.326  0.00  0.00    +0.000 A 
ATOM     21  C   UNL     1       6.742   6.200  17.220  0.00  0.00    +0.000 A 
ATOM     22  C   UNL     1       7.194   7.524  17.053  0.00  0.00    +0.000 A 
BRANCH  21  23
ATOM     23  S   UNL     1       5.519   5.521  16.106  0.00  0.00    +0.000 S 
ATOM     24  O   UNL     1       5.017   6.612  15.303  0.00  0.00    +0.000 OA
ATOM     25  O   UNL     1       6.120   4.354  15.491  0.00  0.00    +0.000 OA
BRANCH  23  26
ATOM     26  N   UNL     1       4.250   4.983  17.131  0.00  0.00    +0.000 NA
ATOM     27  C   UNL     1       3.373   6.055  17.661  0.00  0.00    +0.000 C 
ATOM     28  C   UNL     1       2.393   5.525  18.702  0.00  0.00    +0.000 C 
ATOM     29  C   UNL     1       1.608   4.339  18.161  0.00  0.00    +0.000 C 
ATOM     30  C   UNL     1       2.579   3.243  17.751  0.00  0.00    +0.000 C 
ATOM     31  C   UNL     1       3.558   3.744  16.692  0.00  0.00    +0.000 C 
ENDBRANCH  23  26
ENDBRANCH  21  23
ENDBRANCH   3  17
TORSDOF 4
ENDMDL
MODEL 4
REMARK VINA RESULT:      -9.3      1.309      1.998
REMARK  Name = 
REMARK  4 active torsions:
REMARK  status: ('A' for Active; 'I' for Inactive)
REMARK    1  A    between atoms: C_7  and  C_8
REMARK    2  A    between atoms: N_10  and  C_11
REMARK    3  A    between atoms: C_15  and  S_16
REMARK    4  A    between atoms: S_16  and  N_19
REMARK                            x       y       z     vdW  Elec       q    Type
REMARK                         _______ _______ _______ _____ _____    ______ ____
ROOT
ATOM      1  C   UNL     1       2.081   7.029  19.800  0.00  0.00    +0.000 C 
ATOM      2  O   UNL     1       2.047   6.066  20.559  0.00  0.00    +0.000 OA
ATOM      3  N   UNL     1       2.692   7.070  18.559  0.00  0.00    +0.000 N 
ATOM      4  H   UNL     1       2.803   7.975  18.118  0.00  0.00    +0.000 HD
ENDROOT
BRANCH   1  11
ATOM      5  O   UNL     1      -0.839  14.068  21.098  0.00  0.00    +0.000 OA
ATOM      6  C   UNL     1      -0.453  12.977  20.681  0.00  0.00    +0.000 C 
ATOM      7  C   UNL     1      -0.551  12.590  19.224  0.00  0.00    +0.000 C 
ATOM      8  C   UNL     1       0.593  11.681  18.811  0.00  0.00    +0.000 C 
ATOM      9  C   UNL     1       0.740  10.545  19.784  0.00  0.00    +0.000 A 
ATOM     10  C   UNL     1       1.255   9.313  19.377  0.00  0.00    +0.000 A 
ATOM     11  C   UNL     1       1.474   8.286  20.309  0.00  0.00    +0.000 A 
ATOM     12  C   UNL     1       1.211   8.509  21.665  0.00  0.00    +0.000 A 
ATOM     13  C   UNL     1       0.715   9.755  22.078  0.00  0.00    +0.000 A 
ATOM     14  C   UNL     1       0.470  10.759  21.138  0.00  0.00    +0.000 A 
ATOM     15  N   UNL     1      -0.024  12.002  21.546  0.00  0.00    +0.000 N 
ATOM     16  H   UNL     1      -0.086  12.232  22.528  0.00  0.00    +0.000 HD
ENDBRANCH   1  11
BRANCH   3  17
ATOM     17  C   UNL     1       3.363   5.975  17.950  0.00  0.00    +0.000 A 
ATOM     18  C   UNL     1       2.774   4.711  17.816  0.00  0.00    +0.000 A 
ATOM     19  C   UNL     1       3.470   3.642  17.252  0.00  0.00    +0.000 A 
ATOM     20  C   UNL     1       4.770   3.822  16.796  0.00  0.00    +0.000 A 
ATOM     21  C   UNL     1       5.370   5.079  16.913  0.00  0.00    +0.000 A 
ATOM     22  C   UNL     1       4.660   6.165  17.462  0.00  0.00    +0.000 A 
BRANCH  21  23
ATOM     23  S   UNL     1       6.994   5.332  16.206  0.00  0.00    +0.000 S 
ATOM     24  O   UNL     1       7.317   6.731  16.364  0.00  0.00    +0.000 OA
ATOM     25  O   UNL     1       7.851   4.299  16.754  0.00  0.00    +0.000 OA
BRANCH  23  26
ATOM     26  N   UNL     1       6.791   5.015  14.529  0.00  0.00    +0.000 NA
ATOM     27  C   UNL     1       7.929   5.425  13.671  0.00  0.00    +0.000 C 
ATOM     28  C   UNL     1       7.601   5.283  12.189  0.00  0.00    +0.000 C 
ATOM     29  C   UNL     1       7.101   3.882  11.870  0.00  0.00    +0.000 C 
ATOM     30  C   UNL     1       5.866   3.589  12.709  0.00  0.00    +0.000 C 
ATOM     31  C   UNL     1       6.175   3.705  14.199  0.00  0.00    +0.000 C 
ENDBRANCH  23  26
ENDBRANCH  21  23
ENDBRANCH   3  17
TORSDOF 4
ENDMDL
MODEL 5
REMARK VINA RESULT:      -9.3      3.358      9.697
REMARK  Name = 
REMARK  4 active torsions:
REMARK  status: ('A' for Active; 'I' for Inactive)
REMARK    1  A    between atoms: C_7  and  C_8
REMARK    2  A    between atoms: N_10  and  C_11
REMARK    3  A    between atoms: C_15  and  S_16
REMARK    4  A    between atoms: S_16  and  N_19
REMARK                            x       y       z     vdW  Elec       q    Type
REMARK                         _______ _______ _______ _____ _____    ______ ____
ROOT
ATOM      1  C   UNL     1       2.052   6.519  20.040  0.00  0.00    +0.000 C 
ATOM      2  O   UNL     1       1.427   5.884  20.883  0.00  0.00    +0.000 OA
ATOM      3  N   UNL     1       1.984   7.885  19.830  0.00  0.00    +0.000 N 
ATOM      4  H   UNL     1       2.411   8.254  18.988  0.00  0.00    +0.000 HD
ENDROOT
BRANCH   1  11
ATOM      5  O   UNL     1       6.652   3.646  14.532  0.00  0.00    +0.000 OA
ATOM      6  C   UNL     1       6.046   4.291  15.385  0.00  0.00    +0.000 C 
ATOM      7  C   UNL     1       6.320   5.755  15.636  0.00  0.00    +0.000 C 
ATOM      8  C   UNL     1       5.063   6.490  16.069  0.00  0.00    +0.000 C 
ATOM      9  C   UNL     1       4.378   5.750  17.183  0.00  0.00    +0.000 A 
ATOM     10  C   UNL     1       3.606   6.428  18.128  0.00  0.00    +0.000 A 
ATOM     11  C   UNL     1       2.896   5.722  19.112  0.00  0.00    +0.000 A 
ATOM     12  C   UNL     1       2.928   4.323  19.125  0.00  0.00    +0.000 A 
ATOM     13  C   UNL     1       3.685   3.639  18.161  0.00  0.00    +0.000 A 
ATOM     14  C   UNL     1       4.415   4.354  17.206  0.00  0.00    +0.000 A 
ATOM     15  N   UNL     1       5.170   3.676  16.245  0.00  0.00    +0.000 N 
ATOM     16  H   UNL     1       5.095   2.672  16.147  0.00  0.00    +0.000 HD
ENDBRANCH   1  11
BRANCH   3  17
ATOM     17  C   UNL     1       1.187   8.783  20.590  0.00  0.00    +0.000 A 
ATOM     18  C   UNL     1       1.080   8.699  21.984  0.00  0.00    +0.000 A 
ATOM     19  C   UNL     1       0.257   9.567  22.702  0.00  0.00    +0.000 A 
ATOM     20  C   UNL     1      -0.466  10.549  22.037  0.00  0.00    +0.000 A 
ATOM     21  C   UNL     1      -0.364  10.653  20.647  0.00  0.00    +0.000 A 
ATOM     22  C   UNL     1       0.484   9.792  19.923  0.00  0.00    +0.000 A 
BRANCH  21  23
ATOM     23  S   UNL     1      -1.197  12.000  19.816  0.00  0.00    +0.000 S 
ATOM     24  O   UNL     1      -1.964  12.711  20.812  0.00  0.00    +0.000 OA
ATOM     25  O   UNL     1      -0.195  12.679  19.018  0.00  0.00    +0.000 OA
BRANCH  23  26
ATOM     26  N   UNL     1      -2.296  11.233  18.741  0.00  0.00    +0.000 NA
ATOM     27  C   UNL     1      -3.670  11.792  18.742  0.00  0.00    +0.000 C 
ATOM     28  C   UNL     1      -4.627  10.948  17.908  0.00  0.00    +0.000 C 
ATOM     29  C   UNL     1      -4.084  10.730  16.504  0.00  0.00    +0.000 C 
ATOM     30  C   UNL     1      -2.728  10.047  16.593  0.00  0.00    +0.000 C 
ATOM     31  C   UNL     1      -1.744  10.885  17.407  0.00  0.00    +0.000 C 
ENDBRANCH  23  26
ENDBRANCH  21  23
ENDBRANCH   3  17
TORSDOF 4
ENDMDL
MODEL 6
REMARK VINA RESULT:      -9.2      4.151      9.345
REMARK  Name = 
REMARK  4 active torsions:
REMARK  status: ('A' for Active; 'I' for Inactive)
REMARK    1  A    between atoms: C_7  and  C_8
REMARK    2  A    between atoms: N_10  and  C_11
REMARK    3  A    between atoms: C_15  and  S_16
REMARK    4  A    between atoms: S_16  and  N_19
REMARK                            x       y       z     vdW  Elec       q    Type
REMARK                         _______ _______ _______ _____ _____    ______ ____
ROOT
ATOM      1  C   UNL     1       1.866   8.800  18.247  0.00  0.00    +0.000 C 
ATOM      2  O   UNL     1       2.158   9.495  17.280  0.00  0.00    +0.000 OA
ATOM      3  N   UNL     1       0.974   9.131  19.252  0.00  0.00    +0.000 N 
ATOM      4  H   UNL     1       0.961   8.550  20.081  0.00  0.00    +0.000 HD
ENDROOT
BRANCH   1  11
ATOM      5  O   UNL     1       4.919   1.957  20.148  0.00  0.00    +0.000 OA
ATOM      6  C   UNL     1       4.244   2.964  19.940  0.00  0.00    +0.000 C 
ATOM      7  C   UNL     1       2.840   3.119  20.477  0.00  0.00    +0.000 C 
ATOM      8  C   UNL     1       2.526   4.571  20.799  0.00  0.00    +0.000 C 
ATOM      9  C   UNL     1       2.887   5.456  19.640  0.00  0.00    +0.000 A 
ATOM     10  C   UNL     1       2.207   6.654  19.411  0.00  0.00    +0.000 A 
ATOM     11  C   UNL     1       2.609   7.520  18.381  0.00  0.00    +0.000 A 
ATOM     12  C   UNL     1       3.725   7.202  17.601  0.00  0.00    +0.000 A 
ATOM     13  C   UNL     1       4.424   6.010  17.845  0.00  0.00    +0.000 A 
ATOM     14  C   UNL     1       3.995   5.139  18.851  0.00  0.00    +0.000 A 
ATOM     15  N   UNL     1       4.690   3.951  19.097  0.00  0.00    +0.000 N 
ATOM     16  H   UNL     1       5.575   3.770  18.644  0.00  0.00    +0.000 HD
ENDBRANCH   1  11
BRANCH   3  17
ATOM     17  C   UNL     1       0.224  10.337  19.304  0.00  0.00    +0.000 A 
ATOM     18  C   UNL     1      -1.098  10.422  18.849  0.00  0.00    +0.000 A 
ATOM     19  C   UNL     1      -1.798  11.629  18.872  0.00  0.00    +0.000 A 
ATOM     20  C   UNL     1      -1.189  12.776  19.367  0.00  0.00    +0.000 A 
ATOM     21  C   UNL     1       0.126  12.707  19.834  0.00  0.00    +0.000 A 
ATOM     22  C   UNL     1       0.826  11.484  19.832  0.00  0.00    +0.000 A 
BRANCH  21  23
ATOM     23  S   UNL     1       0.855  14.157  20.587  0.00  0.00    +0.000 S 
ATOM     24  O   UNL     1      -0.230  15.001  21.031  0.00  0.00    +0.000 OA
ATOM     25  O   UNL     1       1.862  13.681  21.516  0.00  0.00    +0.000 OA
BRANCH  23  26
ATOM     26  N   UNL     1       1.663  14.956  19.298  0.00  0.00    +0.000 NA
ATOM     27  C   UNL     1       1.428  16.418  19.219  0.00  0.00    +0.000 C 
ATOM     28  C   UNL     1       2.022  17.021  17.952  0.00  0.00    +0.000 C 
ATOM     29  C   UNL     1       3.492  16.655  17.808  0.00  0.00    +0.000 C 
ATOM     30  C   UNL     1       3.628  15.140  17.779  0.00  0.00    +0.000 C 
ATOM     31  C   UNL     1       3.058  14.514  19.050  0.00  0.00    +0.000 C 
ENDBRANCH  23  26
ENDBRANCH  21  23
ENDBRANCH   3  17
TORSDOF 4
ENDMDL
MODEL 7
REMARK VINA RESULT:      -9.2      0.772      1.478
REMARK  Name = 
REMARK  4 active torsions:
REMARK  status: ('A' for Active; 'I' for Inactive)
REMARK    1  A    between atoms: C_7  and  C_8
REMARK    2  A    between atoms: N_10  and  C_11
REMARK    3  A    between atoms: C_15  and  S_16
REMARK    4  A    between atoms: S_16  and  N_19
REMARK                            x       y       z     vdW  Elec       q    Type
REMARK                         _______ _______ _______ _____ _____    ______ ____
ROOT
ATOM      1  C   UNL     1       2.150   7.706  18.810  0.00  0.00    +0.000 C 
ATOM      2  O   UNL     1       2.114   8.151  17.667  0.00  0.00    +0.000 OA
ATOM      3  N   UNL     1       2.700   6.498  19.199  0.00  0.00    +0.000 N 
ATOM      4  H   UNL     1       2.502   6.170  20.137  0.00  0.00    +0.000 HD
ENDROOT
BRANCH   1  11
ATOM      5  O   UNL     1      -1.592  12.899  23.145  0.00  0.00    +0.000 OA
ATOM      6  C   UNL     1      -1.124  12.154  22.286  0.00  0.00    +0.000 C 
ATOM      7  C   UNL     1      -1.477  12.287  20.823  0.00  0.00    +0.000 C 
ATOM      8  C   UNL     1      -0.312  11.891  19.931  0.00  0.00    +0.000 C 
ATOM      9  C   UNL     1       0.245  10.561  20.354  0.00  0.00    +0.000 A 
ATOM     10  C   UNL     1       0.864   9.715  19.431  0.00  0.00    +0.000 A 
ATOM     11  C   UNL     1       1.462   8.515  19.849  0.00  0.00    +0.000 A 
ATOM     12  C   UNL     1       1.474   8.180  21.207  0.00  0.00    +0.000 A 
ATOM     13  C   UNL     1       0.873   9.040  22.138  0.00  0.00    +0.000 A 
ATOM     14  C   UNL     1       0.252  10.216  21.708  0.00  0.00    +0.000 A 
ATOM     15  N   UNL     1      -0.349  11.076  22.633  0.00  0.00    +0.000 N 
ATOM     16  H   UNL     1      -0.229  10.926  23.626  0.00  0.00    +0.000 HD
ENDBRANCH   1  11
BRANCH   3  17
ATOM     17  C   UNL     1       3.345   5.582  18.325  0.00  0.00    +0.000 A 
ATOM     18  C   UNL     1       2.756   4.374  17.932  0.00  0.00    +0.000 A 
ATOM     19  C   UNL     1       3.429   3.473  17.106  0.00  0.00    +0.000 A 
ATOM     20  C   UNL     1       4.704   3.774  16.643  0.00  0.00    +0.000 A 
ATOM     21  C   UNL     1       5.304   4.979  17.017  0.00  0.00    +0.000 A 
ATOM     22  C   UNL     1       4.616   5.900  17.834  0.00  0.00    +0.000 A 
BRANCH  21  23
ATOM     23  S   UNL     1       6.890   5.414  16.313  0.00  0.00    +0.000 S 
ATOM     24  O   UNL     1       7.053   6.840  16.470  0.00  0.00    +0.000 OA
ATOM     25  O   UNL     1       7.857   4.484  16.864  0.00  0.00    +0.000 OA
BRANCH  23  26
ATOM     26  N   UNL     1       6.728   5.074  14.637  0.00  0.00    +0.000 NA
ATOM     27  C   UNL     1       7.894   5.454  13.803  0.00  0.00    +0.000 C 
ATOM     28  C   UNL     1       7.604   5.294  12.316  0.00  0.00    +0.000 C 
ATOM     29  C   UNL     1       7.093   3.895  12.004  0.00  0.00    +0.000 C 
ATOM     30  C   UNL     1       5.831   3.634  12.813  0.00  0.00    +0.000 C 
ATOM     31  C   UNL     1       6.102   3.768  14.310  0.00  0.00    +0.000 C 
ENDBRANCH  23  26
ENDBRANCH  21  23
ENDBRANCH   3  17
TORSDOF 4
ENDMDL
MODEL 8
REMARK VINA RESULT:      -9.2      4.162      9.184
REMARK  Name = 
REMARK  4 active torsions:
REMARK  status: ('A' for Active; 'I' for Inactive)
REMARK    1  A    between atoms: C_7  and  C_8
REMARK    2  A    between atoms: N_10  and  C_11
REMARK    3  A    between atoms: C_15  and  S_16
REMARK    4  A    between atoms: S_16  and  N_19
REMARK                            x       y       z     vdW  Elec       q    Type
REMARK                         _______ _______ _______ _____ _____    ______ ____
ROOT
ATOM      1  C   UNL     1       2.017   8.674  18.122  0.00  0.00    +0.000 C 
ATOM      2  O   UNL     1       2.267   9.263  17.075  0.00  0.00    +0.000 OA
ATOM      3  N   UNL     1       1.214   9.140  19.149  0.00  0.00    +0.000 N 
ATOM      4  H   UNL     1       1.238   8.640  20.029  0.00  0.00    +0.000 HD
ENDROOT
BRANCH   1  11
ATOM      5  O   UNL     1       4.770   1.806  20.359  0.00  0.00    +0.000 OA
ATOM      6  C   UNL     1       4.136   2.825  20.091  0.00  0.00    +0.000 C 
ATOM      7  C   UNL     1       2.715   3.038  20.559  0.00  0.00    +0.000 C 
ATOM      8  C   UNL     1       2.431   4.507  20.823  0.00  0.00    +0.000 C 
ATOM      9  C   UNL     1       2.871   5.346  19.657  0.00  0.00    +0.000 A 
ATOM     10  C   UNL     1       2.239   6.556  19.362  0.00  0.00    +0.000 A 
ATOM     11  C   UNL     1       2.713   7.378  18.327  0.00  0.00    +0.000 A 
ATOM     12  C   UNL     1       3.853   7.004  17.608  0.00  0.00    +0.000 A 
ATOM     13  C   UNL     1       4.503   5.800  17.919  0.00  0.00    +0.000 A 
ATOM     14  C   UNL     1       4.004   4.973  18.929  0.00  0.00    +0.000 A 
ATOM     15  N   UNL     1       4.649   3.773  19.241  0.00  0.00    +0.000 N 
ATOM     16  H   UNL     1       5.548   3.553  18.834  0.00  0.00    +0.000 HD
ENDBRANCH   1  11
BRANCH   3  17
ATOM     17  C   UNL     1       0.521  10.381  19.136  0.00  0.00    +0.000 A 
ATOM     18  C   UNL     1      -0.705  10.551  18.482  0.00  0.00    +0.000 A 
ATOM     19  C   UNL     1      -1.344  11.791  18.449  0.00  0.00    +0.000 A 
ATOM     20  C   UNL     1      -0.772  12.885  19.086  0.00  0.00    +0.000 A 
ATOM     21  C   UNL     1       0.447  12.731  19.752  0.00  0.00    +0.000 A 
ATOM     22  C   UNL     1       1.082  11.474  19.804  0.00  0.00    +0.000 A 
BRANCH  21  23
ATOM     23  S   UNL     1       1.111  14.112  20.676  0.00  0.00    +0.000 S 
ATOM     24  O   UNL     1       0.002  14.973  21.015  0.00  0.00    +0.000 OA
ATOM     25  O   UNL     1       1.965  13.551  21.704  0.00  0.00    +0.000 OA
BRANCH  23  26
ATOM     26  N   UNL     1       2.111  14.944  19.554  0.00  0.00    +0.000 NA
ATOM     27  C   UNL     1       3.122  14.102  18.869  0.00  0.00    +0.000 C 
ATOM     28  C   UNL     1       4.086  14.937  18.035  0.00  0.00    +0.000 C 
ATOM     29  C   UNL     1       3.333  15.846  17.075  0.00  0.00    +0.000 C 
ATOM     30  C   UNL     1       2.407  16.754  17.869  0.00  0.00    +0.000 C 
ATOM     31  C   UNL     1       1.417  15.939  18.698  0.00  0.00    +0.000 C 
ENDBRANCH  23  26
ENDBRANCH  21  23
ENDBRANCH   3  17
TORSDOF 4
ENDMDL
MODEL 9
REMARK VINA RESULT:      -9.1      3.364      9.821
REMARK  Name = 
REMARK  4 active torsions:
REMARK  status: ('A' for Active; 'I' for Inactive)
REMARK    1  A    between atoms: C_7  and  C_8
REMARK    2  A    between atoms: N_10  and  C_11
REMARK    3  A    between atoms: C_15  and  S_16
REMARK    4  A    between atoms: S_16  and  N_19
REMARK                            x       y       z     vdW  Elec       q    Type
REMARK                         _______ _______ _______ _____ _____    ______ ____
ROOT
ATOM      1  C   UNL     1       1.785   8.334  19.238  0.00  0.00    +0.000 C 
ATOM      2  O   UNL     1       1.860   9.381  18.601  0.00  0.00    +0.000 OA
ATOM      3  N   UNL     1       1.134   8.159  20.447  0.00  0.00    +0.000 N 
ATOM      4  H   UNL     1       1.303   7.297  20.951  0.00  0.00    +0.000 HD
ENDROOT
BRANCH   1  11
ATOM      5  O   UNL     1       6.237   3.293  15.428  0.00  0.00    +0.000 OA
ATOM      6  C   UNL     1       5.692   4.244  15.984  0.00  0.00    +0.000 C 
ATOM      7  C   UNL     1       6.237   5.651  15.897  0.00  0.00    +0.000 C 
ATOM      8  C   UNL     1       5.123   6.683  15.927  0.00  0.00    +0.000 C 
ATOM      9  C   UNL     1       4.186   6.411  17.070  0.00  0.00    +0.000 A 
ATOM     10  C   UNL     1       3.477   7.448  17.680  0.00  0.00    +0.000 A 
ATOM     11  C   UNL     1       2.536   7.177  18.686  0.00  0.00    +0.000 A 
ATOM     12  C   UNL     1       2.275   5.854  19.057  0.00  0.00    +0.000 A 
ATOM     13  C   UNL     1       2.969   4.809  18.428  0.00  0.00    +0.000 A 
ATOM     14  C   UNL     1       3.928   5.092  17.451  0.00  0.00    +0.000 A 
ATOM     15  N   UNL     1       4.622   4.053  16.823  0.00  0.00    +0.000 N 
ATOM     16  H   UNL     1       4.350   3.091  16.972  0.00  0.00    +0.000 HD
ENDBRANCH   1  11
BRANCH   3  17
ATOM     17  C   UNL     1       0.417   9.174  21.135  0.00  0.00    +0.000 A 
ATOM     18  C   UNL     1       0.339   9.225  22.532  0.00  0.00    +0.000 A 
ATOM     19  C   UNL     1      -0.408  10.208  23.182  0.00  0.00    +0.000 A 
ATOM     20  C   UNL     1      -1.082  11.172  22.442  0.00  0.00    +0.000 A 
ATOM     21  C   UNL     1      -1.007  11.142  21.047  0.00  0.00    +0.000 A 
ATOM     22  C   UNL     1      -0.236  10.163  20.391  0.00  0.00    +0.000 A 
BRANCH  21  23
ATOM     23  S   UNL     1      -1.771  12.460  20.110  0.00  0.00    +0.000 S 
ATOM     24  O   UNL     1      -2.734  13.100  20.976  0.00  0.00    +0.000 OA
ATOM     25  O   UNL     1      -0.693  13.215  19.501  0.00  0.00    +0.000 OA
BRANCH  23  26
ATOM     26  N   UNL     1      -2.629  11.660  18.855  0.00  0.00    +0.000 NA
ATOM     27  C   UNL     1      -4.094  11.892  18.847  0.00  0.00    +0.000 C 
ATOM     28  C   UNL     1      -4.803  11.009  17.828  0.00  0.00    +0.000 C 
ATOM     29  C   UNL     1      -4.180  11.155  16.448  0.00  0.00    +0.000 C 
ATOM     30  C   UNL     1      -2.706  10.785  16.524  0.00  0.00    +0.000 C 
ATOM     31  C   UNL     1      -1.969  11.671  17.525  0.00  0.00    +0.000 C 
ENDBRANCH  23  26
ENDBRANCH  21  23
ENDBRANCH   3  17
TORSDOF 4
ENDMDL
