MODEL 1
REMARK VINA RESULT:      -9.4      0.000      0.000
REMARK  Name = 
REMARK  5 active torsions:
REMARK  status: ('A' for Active; 'I' for Inactive)
REMARK    1  A    between atoms: C_1  and  O_2
REMARK    2  A    between atoms: O_2  and  C_3
REMARK    3  A    between atoms: C_9  and  C_10
REMARK    4  A    between atoms: N_13  and  C_14
REMARK    5  A    between atoms: C_14  and  C_15
REMARK                            x       y       z     vdW  Elec       q    Type
REMARK                         _______ _______ _______ _____ _____    ______ ____
ROOT
ATOM      1  C   UNL     1       1.783   8.491  18.895  0.00  0.00    +0.000 C 
ATOM      2  C   UNL     1       1.928   7.487  19.771  0.00  0.00    +0.000 C 
ATOM      3  C   UNL     1       2.844   6.325  19.547  0.00  0.00    +0.000 C 
ATOM      4  N   UNL     1       3.462   6.247  18.207  0.00  0.00    +0.000 NA
ATOM      5  C   UNL     1       3.780   7.590  17.682  0.00  0.00    +0.000 C 
ATOM      6  C   UNL     1       2.545   8.502  17.603  0.00  0.00    +0.000 C 
ENDROOT
BRANCH   1  13
ATOM      7  C   UNL     1      -2.078  10.196  16.935  0.00  0.00    +0.000 A 
ATOM      8  C   UNL     1      -2.482  11.377  17.559  0.00  0.00    +0.000 A 
ATOM      9  C   UNL     1      -1.753  11.926  18.622  0.00  0.00    +0.000 A 
ATOM     10  C   UNL     1      -0.607  11.244  19.044  0.00  0.00    +0.000 A 
ATOM     11  N   UNL     1       0.291  11.548  20.042  0.00  0.00    +0.000 N 
ATOM     12  C   UNL     1       1.270  10.591  20.109  0.00  0.00    +0.000 A 
ATOM     13  C   UNL     1       0.996   9.649  19.148  0.00  0.00    +0.000 A 
ATOM     14  C   UNL     1      -0.186  10.051  18.457  0.00  0.00    +0.000 A 
ATOM     15  C   UNL     1      -0.939   9.520  17.388  0.00  0.00    +0.000 A 
ATOM     16  H   UNL     1       0.236  12.363  20.634  0.00  0.00    +0.000 HD
BRANCH   7  18
ATOM     17  C   UNL     1      -3.173  10.453  14.851  0.00  0.00    +0.000 C 
ATOM     18  O   UNL     1      -2.734   9.590  15.895  0.00  0.00    +0.000 OA
ENDBRANCH   7  18
ENDBRANCH   1  13
BRANCH   4  19
ATOM     19  C   UNL     1       4.713   5.454  18.278  0.00  0.00    +0.000 C 
BRANCH  19  20
ATOM     20  C   UNL     1       5.422   5.221  16.967  0.00  0.00    +0.000 A 
ATOM     21  C   UNL     1       4.917   4.523  15.934  0.00  0.00    +0.000 A 
ATOM     22  C   UNL     1       5.660   4.373  14.687  0.00  0.00    +0.000 A 
ATOM     23  C   UNL     1       5.165   3.608  13.630  0.00  0.00    +0.000 A 
ATOM     24  C   UNL     1       5.875   3.538  12.429  0.00  0.00    +0.000 A 
ATOM     25  C   UNL     1       7.075   4.237  12.281  0.00  0.00    +0.000 A 
ATOM     26  C   UNL     1       7.587   4.984  13.343  0.00  0.00    +0.000 A 
ATOM     27  C   UNL     1       6.884   5.036  14.545  0.00  0.00    +0.000 A 
ATOM     28  N   UNL     1       7.409   5.739  15.634  0.00  0.00    +0.000 N 
ATOM     29  C   UNL     1       6.790   5.821  16.853  0.00  0.00    +0.000 A 
ATOM     30  O   UNL     1       7.337   6.376  17.801  0.00  0.00    +0.000 OA
ATOM     31  H   UNL     1       8.320   6.172  15.573  0.00  0.00    +0.000 HD
ENDBRANCH  19  20
ENDBRANCH   4  19
TORSDOF 4
ENDMDL
MODEL 2
REMARK VINA RESULT:      -8.8      2.505      9.490
REMARK  Name = 
REMARK  5 active torsions:
REMARK  status: ('A' for Active; 'I' for Inactive)
REMARK    1  A    between atoms: C_1  and  O_2
REMARK    2  A    between atoms: O_2  and  C_3
REMARK    3  A    between atoms: C_9  and  C_10
REMARK    4  A    between atoms: N_13  and  C_14
REMARK    5  A    between atoms: C_14  and  C_15
REMARK                            x       y       z     vdW  Elec       q    Type
REMARK                         _______ _______ _______ _____ _____    ______ ____
ROOT
ATOM      1  C   UNL     1       2.568   6.961  18.642  0.00  0.00    +0.000 C 
ATOM      2  C   UNL     1       2.201   6.947  19.932  0.00  0.00    +0.000 C 
ATOM      3  C   UNL     1       1.496   8.087  20.598  0.00  0.00    +0.000 C 
ATOM      4  N   UNL     1       1.377   9.322  19.797  0.00  0.00    +0.000 NA
ATOM      5  C   UNL     1       1.168   9.019  18.367  0.00  0.00    +0.000 C 
ATOM      6  C   UNL     1       2.292   8.154  17.775  0.00  0.00    +0.000 C 
ENDROOT
BRANCH   1  13
ATOM      7  C   UNL     1       6.716   6.234  16.662  0.00  0.00    +0.000 A 
ATOM      8  C   UNL     1       6.808   4.942  16.142  0.00  0.00    +0.000 A 
ATOM      9  C   UNL     1       5.736   4.044  16.228  0.00  0.00    +0.000 A 
ATOM     10  C   UNL     1       4.569   4.484  16.863  0.00  0.00    +0.000 A 
ATOM     11  N   UNL     1       3.378   3.830  17.083  0.00  0.00    +0.000 N 
ATOM     12  C   UNL     1       2.504   4.648  17.751  0.00  0.00    +0.000 A 
ATOM     13  C   UNL     1       3.143   5.843  17.975  0.00  0.00    +0.000 A 
ATOM     14  C   UNL     1       4.451   5.760  17.412  0.00  0.00    +0.000 A 
ATOM     15  C   UNL     1       5.545   6.645  17.311  0.00  0.00    +0.000 A 
ATOM     16  H   UNL     1       3.178   2.887  16.788  0.00  0.00    +0.000 HD
BRANCH   7  18
ATOM     17  C   UNL     1       7.792   8.041  17.749  0.00  0.00    +0.000 C 
ATOM     18  O   UNL     1       7.715   7.171  16.624  0.00  0.00    +0.000 OA
ENDBRANCH   7  18
ENDBRANCH   1  13
BRANCH   4  19
ATOM     19  C   UNL     1       0.232  10.128  20.287  0.00  0.00    +0.000 C 
BRANCH  19  20
ATOM     20  C   UNL     1       0.239  11.586  19.900  0.00  0.00    +0.000 A 
ATOM     21  C   UNL     1       1.272  12.427  20.090  0.00  0.00    +0.000 A 
ATOM     22  C   UNL     1       1.205  13.818  19.656  0.00  0.00    +0.000 A 
ATOM     23  C   UNL     1       2.252  14.709  19.895  0.00  0.00    +0.000 A 
ATOM     24  C   UNL     1       2.178  16.017  19.410  0.00  0.00    +0.000 A 
ATOM     25  C   UNL     1       1.062  16.434  18.681  0.00  0.00    +0.000 A 
ATOM     26  C   UNL     1       0.001  15.555  18.461  0.00  0.00    +0.000 A 
ATOM     27  C   UNL     1       0.071  14.257  18.962  0.00  0.00    +0.000 A 
ATOM     28  N   UNL     1      -1.005  13.380  18.791  0.00  0.00    +0.000 N 
ATOM     29  C   UNL     1      -1.020  12.097  19.270  0.00  0.00    +0.000 A 
ATOM     30  O   UNL     1      -2.026  11.400  19.171  0.00  0.00    +0.000 OA
ATOM     31  H   UNL     1      -1.857  13.695  18.348  0.00  0.00    +0.000 HD
ENDBRANCH  19  20
ENDBRANCH   4  19
TORSDOF 4
ENDMDL
MODEL 3
REMARK VINA RESULT:      -8.7      2.585      9.840
REMARK  Name = 
REMARK  5 active torsions:
REMARK  status: ('A' for Active; 'I' for Inactive)
REMARK    1  A    between atoms: C_1  and  O_2
REMARK    2  A    between atoms: O_2  and  C_3
REMARK    3  A    between atoms: C_9  and  C_10
REMARK    4  A    between atoms: N_13  and  C_14
REMARK    5  A    between atoms: C_14  and  C_15
REMARK                            x       y       z     vdW  Elec       q    Type
REMARK                         _______ _______ _______ _____ _____    ______ ____
ROOT
ATOM      1  C   UNL     1       2.541   6.960  18.288  0.00  0.00    +0.000 C 
ATOM      2  C   UNL     1       2.430   8.080  17.560  0.00  0.00    +0.000 C 
ATOM      3  C   UNL     1       1.783   9.331  18.067  0.00  0.00    +0.000 C 
ATOM      4  N   UNL     1       1.102   9.215  19.372  0.00  0.00    +0.000 NA
ATOM      5  C   UNL     1       1.827   8.302  20.279  0.00  0.00    +0.000 C 
ATOM      6  C   UNL     1       1.999   6.895  19.687  0.00  0.00    +0.000 C 
ENDROOT
BRANCH   1  13
ATOM      7  C   UNL     1       6.905   6.264  16.833  0.00  0.00    +0.000 A 
ATOM      8  C   UNL     1       7.127   4.922  16.524  0.00  0.00    +0.000 A 
ATOM      9  C   UNL     1       6.106   3.968  16.644  0.00  0.00    +0.000 A 
ATOM     10  C   UNL     1       4.857   4.408  17.094  0.00  0.00    +0.000 A 
ATOM     11  N   UNL     1       3.690   3.707  17.298  0.00  0.00    +0.000 N 
ATOM     12  C   UNL     1       2.705   4.545  17.752  0.00  0.00    +0.000 A 
ATOM     13  C   UNL     1       3.246   5.804  17.853  0.00  0.00    +0.000 A 
ATOM     14  C   UNL     1       4.607   5.738  17.432  0.00  0.00    +0.000 A 
ATOM     15  C   UNL     1       5.652   6.677  17.301  0.00  0.00    +0.000 A 
ATOM     16  H   UNL     1       3.578   2.719  17.131  0.00  0.00    +0.000 HD
BRANCH   7  18
ATOM     17  C   UNL     1       7.675   8.352  17.642  0.00  0.00    +0.000 C 
ATOM     18  O   UNL     1       7.846   7.257  16.748  0.00  0.00    +0.000 OA
ENDBRANCH   7  18
ENDBRANCH   1  13
BRANCH   4  19
ATOM     19  C   UNL     1       1.013  10.551  20.011  0.00  0.00    +0.000 C 
BRANCH  19  20
ATOM     20  C   UNL     1      -0.351  11.196  20.003  0.00  0.00    +0.000 A 
ATOM     21  C   UNL     1      -1.297  10.980  19.072  0.00  0.00    +0.000 A 
ATOM     22  C   UNL     1      -2.605  11.623  19.159  0.00  0.00    +0.000 A 
ATOM     23  C   UNL     1      -3.574  11.444  18.171  0.00  0.00    +0.000 A 
ATOM     24  C   UNL     1      -4.835  12.027  18.319  0.00  0.00    +0.000 A 
ATOM     25  C   UNL     1      -5.131  12.781  19.456  0.00  0.00    +0.000 A 
ATOM     26  C   UNL     1      -4.158  12.985  20.435  0.00  0.00    +0.000 A 
ATOM     27  C   UNL     1      -2.895  12.417  20.275  0.00  0.00    +0.000 A 
ATOM     28  N   UNL     1      -1.895  12.653  21.223  0.00  0.00    +0.000 N 
ATOM     29  C   UNL     1      -0.626  12.147  21.127  0.00  0.00    +0.000 A 
ATOM     30  O   UNL     1       0.239  12.458  21.941  0.00  0.00    +0.000 OA
ATOM     31  H   UNL     1      -2.064  13.272  22.003  0.00  0.00    +0.000 HD
ENDBRANCH  19  20
ENDBRANCH   4  19
TORSDOF 4
ENDMDL
MODEL 4
REMARK VINA RESULT:      -8.6      2.193      9.005
REMARK  Name = 
REMARK  5 active torsions:
REMARK  status: ('A' for Active; 'I' for Inactive)
REMARK    1  A    between atoms: C_1  and  O_2
REMARK    2  A    between atoms: O_2  and  C_3
REMARK    3  A    between atoms: C_9  and  C_10
REMARK    4  A    between atoms: N_13  and  C_14
REMARK    5  A    between atoms: C_14  and  C_15
REMARK                            x       y       z     vdW  Elec       q    Type
REMARK                         _______ _______ _______ _____ _____    ______ ____
ROOT
ATOM      1  C   UNL     1       2.485   7.070  18.718  0.00  0.00    +0.000 C 
ATOM      2  C   UNL     1       2.065   7.068  19.991  0.00  0.00    +0.000 C 
ATOM      3  C   UNL     1       1.456   8.261  20.659  0.00  0.00    +0.000 C 
ATOM      4  N   UNL     1       1.504   9.519  19.887  0.00  0.00    +0.000 NA
ATOM      5  C   UNL     1       1.326   9.273  18.442  0.00  0.00    +0.000 C 
ATOM      6  C   UNL     1       2.376   8.306  17.873  0.00  0.00    +0.000 C 
ENDROOT
BRANCH   1  13
ATOM      7  C   UNL     1       6.532   6.043  16.663  0.00  0.00    +0.000 A 
ATOM      8  C   UNL     1       6.522   4.747  16.148  0.00  0.00    +0.000 A 
ATOM      9  C   UNL     1       5.391   3.928  16.258  0.00  0.00    +0.000 A 
ATOM     10  C   UNL     1       4.271   4.451  16.912  0.00  0.00    +0.000 A 
ATOM     11  N   UNL     1       3.040   3.886  17.157  0.00  0.00    +0.000 N 
ATOM     12  C   UNL     1       2.239   4.766  17.838  0.00  0.00    +0.000 A 
ATOM     13  C   UNL     1       2.966   5.913  18.045  0.00  0.00    +0.000 A 
ATOM     14  C   UNL     1       4.254   5.735  17.457  0.00  0.00    +0.000 A 
ATOM     15  C   UNL     1       5.407   6.538  17.333  0.00  0.00    +0.000 A 
ATOM     16  H   UNL     1       2.768   2.959  16.870  0.00  0.00    +0.000 HD
BRANCH   7  18
ATOM     17  C   UNL     1       7.689   7.851  17.665  0.00  0.00    +0.000 C 
ATOM     18  O   UNL     1       7.595   6.906  16.604  0.00  0.00    +0.000 OA
ENDBRANCH   7  18
ENDBRANCH   1  13
BRANCH   4  19
ATOM     19  C   UNL     1       0.431  10.433  20.352  0.00  0.00    +0.000 C 
BRANCH  19  20
ATOM     20  C   UNL     1      -0.671  10.713  19.361  0.00  0.00    +0.000 A 
ATOM     21  C   UNL     1      -0.889  10.011  18.235  0.00  0.00    +0.000 A 
ATOM     22  C   UNL     1      -2.002  10.332  17.347  0.00  0.00    +0.000 A 
ATOM     23  C   UNL     1      -2.205   9.642  16.151  0.00  0.00    +0.000 A 
ATOM     24  C   UNL     1      -3.316   9.936  15.357  0.00  0.00    +0.000 A 
ATOM     25  C   UNL     1      -4.229  10.912  15.760  0.00  0.00    +0.000 A 
ATOM     26  C   UNL     1      -4.018  11.623  16.943  0.00  0.00    +0.000 A 
ATOM     27  C   UNL     1      -2.898  11.340  17.722  0.00  0.00    +0.000 A 
ATOM     28  N   UNL     1      -2.648  12.077  18.883  0.00  0.00    +0.000 N 
ATOM     29  C   UNL     1      -1.561  11.872  19.691  0.00  0.00    +0.000 A 
ATOM     30  O   UNL     1      -1.341  12.607  20.650  0.00  0.00    +0.000 OA
ATOM     31  H   UNL     1      -3.247  12.849  19.140  0.00  0.00    +0.000 HD
ENDBRANCH  19  20
ENDBRANCH   4  19
TORSDOF 4
ENDMDL
MODEL 5
REMARK VINA RESULT:      -8.6      0.451      1.011
REMARK  Name = 
REMARK  5 active torsions:
REMARK  status: ('A' for Active; 'I' for Inactive)
REMARK    1  A    between atoms: C_1  and  O_2
REMARK    2  A    between atoms: O_2  and  C_3
REMARK    3  A    between atoms: C_9  and  C_10
REMARK    4  A    between atoms: N_13  and  C_14
REMARK    5  A    between atoms: C_14  and  C_15
REMARK                            x       y       z     vdW  Elec       q    Type
REMARK                         _______ _______ _______ _____ _____    ______ ____
ROOT
ATOM      1  C   UNL     1       1.780   8.656  19.001  0.00  0.00    +0.000 C 
ATOM      2  C   UNL     1       2.328   8.453  17.794  0.00  0.00    +0.000 C 
ATOM      3  C   UNL     1       3.202   7.281  17.474  0.00  0.00    +0.000 C 
ATOM      4  N   UNL     1       3.584   6.436  18.624  0.00  0.00    +0.000 NA
ATOM      5  C   UNL     1       2.485   6.330  19.604  0.00  0.00    +0.000 C 
ATOM      6  C   UNL     1       2.028   7.699  20.130  0.00  0.00    +0.000 C 
ENDROOT
BRANCH   1  13
ATOM      7  C   UNL     1      -2.080  10.160  16.880  0.00  0.00    +0.000 A 
ATOM      8  C   UNL     1      -2.645  11.236  17.564  0.00  0.00    +0.000 A 
ATOM      9  C   UNL     1      -2.054  11.754  18.724  0.00  0.00    +0.000 A 
ATOM     10  C   UNL     1      -0.879  11.147  19.181  0.00  0.00    +0.000 A 
ATOM     11  N   UNL     1      -0.091  11.444  20.270  0.00  0.00    +0.000 N 
ATOM     12  C   UNL     1       0.971  10.581  20.338  0.00  0.00    +0.000 A 
ATOM     13  C   UNL     1       0.864   9.707  19.283  0.00  0.00    +0.000 A 
ATOM     14  C   UNL     1      -0.299  10.057  18.533  0.00  0.00    +0.000 A 
ATOM     15  C   UNL     1      -0.914   9.555  17.368  0.00  0.00    +0.000 A 
ATOM     16  H   UNL     1      -0.271  12.193  20.920  0.00  0.00    +0.000 HD
BRANCH   7  18
ATOM     17  C   UNL     1      -3.337  10.460  14.896  0.00  0.00    +0.000 C 
ATOM     18  O   UNL     1      -2.594   9.590  15.744  0.00  0.00    +0.000 OA
ENDBRANCH   7  18
ENDBRANCH   1  13
BRANCH   4  19
ATOM     19  C   UNL     1       3.934   5.074  18.149  0.00  0.00    +0.000 C 
BRANCH  19  20
ATOM     20  C   UNL     1       4.884   5.008  16.979  0.00  0.00    +0.000 A 
ATOM     21  C   UNL     1       4.625   4.385  15.815  0.00  0.00    +0.000 A 
ATOM     22  C   UNL     1       5.591   4.397  14.720  0.00  0.00    +0.000 A 
ATOM     23  C   UNL     1       5.352   3.711  13.529  0.00  0.00    +0.000 A 
ATOM     24  C   UNL     1       6.271   3.796  12.480  0.00  0.00    +0.000 A 
ATOM     25  C   UNL     1       7.424   4.571  12.618  0.00  0.00    +0.000 A 
ATOM     26  C   UNL     1       7.681   5.239  13.816  0.00  0.00    +0.000 A 
ATOM     27  C   UNL     1       6.770   5.137  14.866  0.00  0.00    +0.000 A 
ATOM     28  N   UNL     1       7.037   5.760  16.089  0.00  0.00    +0.000 N 
ATOM     29  C   UNL     1       6.203   5.690  17.173  0.00  0.00    +0.000 A 
ATOM     30  O   UNL     1       6.528   6.181  18.251  0.00  0.00    +0.000 OA
ATOM     31  H   UNL     1       7.910   6.246  16.237  0.00  0.00    +0.000 HD
ENDBRANCH  19  20
ENDBRANCH   4  19
TORSDOF 4
ENDMDL
MODEL 6
REMARK VINA RESULT:      -8.6      3.032     10.105
REMARK  Name = 
REMARK  5 active torsions:
REMARK  status: ('A' for Active; 'I' for Inactive)
REMARK    1  A    between atoms: C_1  and  O_2
REMARK    2  A    between atoms: O_2  and  C_3
REMARK    3  A    between atoms: C_9  and  C_10
REMARK    4  A    between atoms: N_13  and  C_14
REMARK    5  A    between atoms: C_14  and  C_15
REMARK                            x       y       z     vdW  Elec       q    Type
REMARK                         _______ _______ _______ _____ _____    ______ ____
ROOT
ATOM      1  C   UNL     1       2.206   6.895  18.586  0.00  0.00    +0.000 C 
ATOM      2  C   UNL     1       2.174   8.081  17.962  0.00  0.00    +0.000 C 
ATOM      3  C   UNL     1       1.742   9.350  18.627  0.00  0.00    +0.000 C 
ATOM      4  N   UNL     1       1.173   9.200  19.982  0.00  0.00    +0.000 NA
ATOM      5  C   UNL     1       1.853   8.129  20.737  0.00  0.00    +0.000 C 
ATOM      6  C   UNL     1       1.789   6.770  20.023  0.00  0.00    +0.000 C 
ENDROOT
BRANCH   1  13
ATOM      7  C   UNL     1       6.289   5.817  16.631  0.00  0.00    +0.000 A 
ATOM      8  C   UNL     1       6.308   4.490  16.201  0.00  0.00    +0.000 A 
ATOM      9  C   UNL     1       5.191   3.658  16.356  0.00  0.00    +0.000 A 
ATOM     10  C   UNL     1       4.056   4.200  16.967  0.00  0.00    +0.000 A 
ATOM     11  N   UNL     1       2.835   3.627  17.240  0.00  0.00    +0.000 N 
ATOM     12  C   UNL     1       2.012   4.533  17.856  0.00  0.00    +0.000 A 
ATOM     13  C   UNL     1       2.714   5.706  17.994  0.00  0.00    +0.000 A 
ATOM     14  C   UNL     1       4.010   5.516  17.428  0.00  0.00    +0.000 A 
ATOM     15  C   UNL     1       5.148   6.332  17.259  0.00  0.00    +0.000 A 
ATOM     16  H   UNL     1       2.583   2.678  17.012  0.00  0.00    +0.000 HD
BRANCH   7  18
ATOM     17  C   UNL     1       7.457   7.648  17.574  0.00  0.00    +0.000 C 
ATOM     18  O   UNL     1       7.335   6.696  16.523  0.00  0.00    +0.000 OA
ENDBRANCH   7  18
ENDBRANCH   1  13
BRANCH   4  19
ATOM     19  C   UNL     1       1.314  10.475  20.728  0.00  0.00    +0.000 C 
BRANCH  19  20
ATOM     20  C   UNL     1       0.035  11.074  21.257  0.00  0.00    +0.000 A 
ATOM     21  C   UNL     1      -0.757  11.920  20.576  0.00  0.00    +0.000 A 
ATOM     22  C   UNL     1      -1.997  12.428  21.154  0.00  0.00    +0.000 A 
ATOM     23  C   UNL     1      -2.798  13.347  20.474  0.00  0.00    +0.000 A 
ATOM     24  C   UNL     1      -4.008  13.763  21.034  0.00  0.00    +0.000 A 
ATOM     25  C   UNL     1      -4.422  13.258  22.268  0.00  0.00    +0.000 A 
ATOM     26  C   UNL     1      -3.614  12.360  22.964  0.00  0.00    +0.000 A 
ATOM     27  C   UNL     1      -2.399  11.961  22.411  0.00  0.00    +0.000 A 
ATOM     28  N   UNL     1      -1.555  11.099  23.119  0.00  0.00    +0.000 N 
ATOM     29  C   UNL     1      -0.339  10.677  22.653  0.00  0.00    +0.000 A 
ATOM     30  O   UNL     1       0.401   9.992  23.353  0.00  0.00    +0.000 OA
ATOM     31  H   UNL     1      -1.797  10.799  24.053  0.00  0.00    +0.000 HD
ENDBRANCH  19  20
ENDBRANCH   4  19
TORSDOF 4
ENDMDL
MODEL 7
REMARK VINA RESULT:      -8.6      1.153      1.651
REMARK  Name = 
REMARK  5 active torsions:
REMARK  status: ('A' for Active; 'I' for Inactive)
REMARK    1  A    between atoms: C_1  and  O_2
REMARK    2  A    between atoms: O_2  and  C_3
REMARK    3  A    between atoms: C_9  and  C_10
REMARK    4  A    between atoms: N_13  and  C_14
REMARK    5  A    between atoms: C_14  and  C_15
REMARK                            x       y       z     vdW  Elec       q    Type
REMARK                         _______ _______ _______ _____ _____    ______ ____
ROOT
ATOM      1  C   UNL     1       1.329   8.660  19.851  0.00  0.00    +0.000 C 
ATOM      2  C   UNL     1       2.032   8.430  18.732  0.00  0.00    +0.000 C 
ATOM      3  C   UNL     1       2.873   7.209  18.525  0.00  0.00    +0.000 C 
ATOM      4  N   UNL     1       3.035   6.336  19.706  0.00  0.00    +0.000 NA
ATOM      5  C   UNL     1       1.803   6.293  20.518  0.00  0.00    +0.000 C 
ATOM      6  C   UNL     1       1.357   7.685  20.991  0.00  0.00    +0.000 C 
ENDROOT
BRANCH   1  13
ATOM      7  C   UNL     1      -2.023  10.464  17.175  0.00  0.00    +0.000 A 
ATOM      8  C   UNL     1      -2.627  11.560  17.792  0.00  0.00    +0.000 A 
ATOM      9  C   UNL     1      -2.206  12.011  19.050  0.00  0.00    +0.000 A 
ATOM     10  C   UNL     1      -1.163  11.318  19.673  0.00  0.00    +0.000 A 
ATOM     11  N   UNL     1      -0.551  11.537  20.887  0.00  0.00    +0.000 N 
ATOM     12  C   UNL     1       0.430  10.604  21.100  0.00  0.00    +0.000 A 
ATOM     13  C   UNL     1       0.446   9.763  20.013  0.00  0.00    +0.000 A 
ATOM     14  C   UNL     1      -0.552  10.206  19.095  0.00  0.00    +0.000 A 
ATOM     15  C   UNL     1      -0.994   9.773  17.827  0.00  0.00    +0.000 A 
ATOM     16  H   UNL     1      -0.789  12.281  21.523  0.00  0.00    +0.000 HD
BRANCH   7  18
ATOM     17  C   UNL     1      -3.317  10.724  15.208  0.00  0.00    +0.000 C 
ATOM     18  O   UNL     1      -2.375   9.956  15.951  0.00  0.00    +0.000 OA
ENDBRANCH   7  18
ENDBRANCH   1  13
BRANCH   4  19
ATOM     19  C   UNL     1       3.369   4.959  19.268  0.00  0.00    +0.000 C 
BRANCH  19  20
ATOM     20  C   UNL     1       4.402   4.846  18.175  0.00  0.00    +0.000 A 
ATOM     21  C   UNL     1       4.133   4.536  16.894  0.00  0.00    +0.000 A 
ATOM     22  C   UNL     1       5.193   4.480  15.891  0.00  0.00    +0.000 A 
ATOM     23  C   UNL     1       4.930   4.109  14.572  0.00  0.00    +0.000 A 
ATOM     24  C   UNL     1       5.959   4.126  13.627  0.00  0.00    +0.000 A 
ATOM     25  C   UNL     1       7.246   4.519  13.996  0.00  0.00    +0.000 A 
ATOM     26  C   UNL     1       7.520   4.867  15.319  0.00  0.00    +0.000 A 
ATOM     27  C   UNL     1       6.495   4.831  16.263  0.00  0.00    +0.000 A 
ATOM     28  N   UNL     1       6.765   5.128  17.602  0.00  0.00    +0.000 N 
ATOM     29  C   UNL     1       5.819   5.097  18.591  0.00  0.00    +0.000 A 
ATOM     30  O   UNL     1       6.128   5.280  19.765  0.00  0.00    +0.000 OA
ATOM     31  H   UNL     1       7.710   5.324  17.904  0.00  0.00    +0.000 HD
ENDBRANCH  19  20
ENDBRANCH   4  19
TORSDOF 4
ENDMDL
MODEL 8
REMARK VINA RESULT:      -8.6      2.613     10.320
REMARK  Name = 
REMARK  5 active torsions:
REMARK  status: ('A' for Active; 'I' for Inactive)
REMARK    1  A    between atoms: C_1  and  O_2
REMARK    2  A    between atoms: O_2  and  C_3
REMARK    3  A    between atoms: C_9  and  C_10
REMARK    4  A    between atoms: N_13  and  C_14
REMARK    5  A    between atoms: C_14  and  C_15
REMARK                            x       y       z     vdW  Elec       q    Type
REMARK                         _______ _______ _______ _____ _____    ______ ____
ROOT
ATOM      1  C   UNL     1       2.182   7.372  18.621  0.00  0.00    +0.000 C 
ATOM      2  C   UNL     1       2.121   8.437  17.808  0.00  0.00    +0.000 C 
ATOM      3  C   UNL     1       1.523   9.748  18.212  0.00  0.00    +0.000 C 
ATOM      4  N   UNL     1       0.829   9.759  19.517  0.00  0.00    +0.000 NA
ATOM      5  C   UNL     1       1.510   8.890  20.497  0.00  0.00    +0.000 C 
ATOM      6  C   UNL     1       1.629   7.435  20.015  0.00  0.00    +0.000 C 
ENDROOT
BRANCH   1  13
ATOM      7  C   UNL     1       6.427   6.423  16.967  0.00  0.00    +0.000 A 
ATOM      8  C   UNL     1       6.611   5.049  16.808  0.00  0.00    +0.000 A 
ATOM      9  C   UNL     1       5.591   4.137  17.111  0.00  0.00    +0.000 A 
ATOM     10  C   UNL     1       4.381   4.651  17.589  0.00  0.00    +0.000 A 
ATOM     11  N   UNL     1       3.224   4.002  17.955  0.00  0.00    +0.000 N 
ATOM     12  C   UNL     1       2.282   4.908  18.370  0.00  0.00    +0.000 A 
ATOM     13  C   UNL     1       2.842   6.159  18.281  0.00  0.00    +0.000 A 
ATOM     14  C   UNL     1       4.170   6.016  17.780  0.00  0.00    +0.000 A 
ATOM     15  C   UNL     1       5.214   6.913  17.467  0.00  0.00    +0.000 A 
ATOM     16  H   UNL     1       3.089   3.004  17.916  0.00  0.00    +0.000 HD
BRANCH   7  18
ATOM     17  C   UNL     1       7.834   8.126  17.821  0.00  0.00    +0.000 C 
ATOM     18  O   UNL     1       7.370   7.381  16.700  0.00  0.00    +0.000 OA
ENDBRANCH   7  18
ENDBRANCH   1  13
BRANCH   4  19
ATOM     19  C   UNL     1       0.790  11.142  20.051  0.00  0.00    +0.000 C 
BRANCH  19  20
ATOM     20  C   UNL     1      -0.561  11.635  20.506  0.00  0.00    +0.000 A 
ATOM     21  C   UNL     1      -0.990  11.632  21.781  0.00  0.00    +0.000 A 
ATOM     22  C   UNL     1      -2.304  12.160  22.138  0.00  0.00    +0.000 A 
ATOM     23  C   UNL     1      -2.777  12.114  23.449  0.00  0.00    +0.000 A 
ATOM     24  C   UNL     1      -4.013  12.683  23.764  0.00  0.00    +0.000 A 
ATOM     25  C   UNL     1      -4.773  13.305  22.771  0.00  0.00    +0.000 A 
ATOM     26  C   UNL     1      -4.316  13.332  21.453  0.00  0.00    +0.000 A 
ATOM     27  C   UNL     1      -3.091  12.747  21.140  0.00  0.00    +0.000 A 
ATOM     28  N   UNL     1      -2.643  12.722  19.816  0.00  0.00    +0.000 N 
ATOM     29  C   UNL     1      -1.462  12.150  19.426  0.00  0.00    +0.000 A 
ATOM     30  O   UNL     1      -1.159  12.077  18.238  0.00  0.00    +0.000 OA
ATOM     31  H   UNL     1      -3.223  13.084  19.072  0.00  0.00    +0.000 HD
ENDBRANCH  19  20
ENDBRANCH   4  19
TORSDOF 4
ENDMDL
MODEL 9
REMARK VINA RESULT:      -8.5      3.413      9.556
REMARK  Name = 
REMARK  5 active torsions:
REMARK  status: ('A' for Active; 'I' for Inactive)
REMARK    1  A    between atoms: C_1  and  O_2
REMARK    2  A    between atoms: O_2  and  C_3
REMARK    3  A    between atoms: C_9  and  C_10
REMARK    4  A    between atoms: N_13  and  C_14
REMARK    5  A    between atoms: C_14  and  C_15
REMARK                            x       y       z     vdW  Elec       q    Type
REMARK                         _______ _______ _______ _____ _____    ______ ____
ROOT
ATOM      1  C   UNL     1       2.412   7.743  18.670  0.00  0.00    +0.000 C 
ATOM      2  C   UNL     1       1.945   7.796  19.926  0.00  0.00    +0.000 C 
ATOM      3  C   UNL     1       1.134   8.938  20.454  0.00  0.00    +0.000 C 
ATOM      4  N   UNL     1       1.019  10.109  19.561  0.00  0.00    +0.000 NA
ATOM      5  C   UNL     1       0.940   9.700  18.144  0.00  0.00    +0.000 C 
ATOM      6  C   UNL     1       2.148   8.860  17.702  0.00  0.00    +0.000 C 
ENDROOT
BRANCH   1  13
ATOM      7  C   UNL     1       1.993   3.158  19.345  0.00  0.00    +0.000 A 
ATOM      8  C   UNL     1       2.897   2.446  18.556  0.00  0.00    +0.000 A 
ATOM      9  C   UNL     1       3.798   3.104  17.708  0.00  0.00    +0.000 A 
ATOM     10  C   UNL     1       3.755   4.501  17.672  0.00  0.00    +0.000 A 
ATOM     11  N   UNL     1       4.513   5.395  16.950  0.00  0.00    +0.000 N 
ATOM     12  C   UNL     1       4.123   6.680  17.225  0.00  0.00    +0.000 A 
ATOM     13  C   UNL     1       3.091   6.616  18.130  0.00  0.00    +0.000 A 
ATOM     14  C   UNL     1       2.850   5.243  18.432  0.00  0.00    +0.000 A 
ATOM     15  C   UNL     1       1.954   4.556  19.277  0.00  0.00    +0.000 A 
ATOM     16  H   UNL     1       5.252   5.138  16.314  0.00  0.00    +0.000 HD
BRANCH   7  18
ATOM     17  C   UNL     1       1.409   2.634  21.580  0.00  0.00    +0.000 C 
ATOM     18  O   UNL     1       1.077   2.595  20.196  0.00  0.00    +0.000 OA
ENDBRANCH   7  18
ENDBRANCH   1  13
BRANCH   4  19
ATOM     19  C   UNL     1      -0.199  10.883  19.903  0.00  0.00    +0.000 C 
BRANCH  19  20
ATOM     20  C   UNL     1      -0.138  12.365  19.628  0.00  0.00    +0.000 A 
ATOM     21  C   UNL     1       0.971  13.033  19.262  0.00  0.00    +0.000 A 
ATOM     22  C   UNL     1       0.933  14.465  18.983  0.00  0.00    +0.000 A 
ATOM     23  C   UNL     1       2.088  15.176  18.653  0.00  0.00    +0.000 A 
ATOM     24  C   UNL     1       2.002  16.532  18.333  0.00  0.00    +0.000 A 
ATOM     25  C   UNL     1       0.765  17.178  18.335  0.00  0.00    +0.000 A 
ATOM     26  C   UNL     1      -0.390  16.480  18.689  0.00  0.00    +0.000 A 
ATOM     27  C   UNL     1      -0.298  15.131  19.025  0.00  0.00    +0.000 A 
ATOM     28  N   UNL     1      -1.438  14.430  19.430  0.00  0.00    +0.000 N 
ATOM     29  C   UNL     1      -1.427  13.109  19.794  0.00  0.00    +0.000 A 
ATOM     30  O   UNL     1      -2.439  12.567  20.227  0.00  0.00    +0.000 OA
ATOM     31  H   UNL     1      -2.324  14.905  19.527  0.00  0.00    +0.000 HD
ENDBRANCH  19  20
ENDBRANCH   4  19
TORSDOF 4
ENDMDL
