MODEL 1
REMARK VINA RESULT:      -8.6      0.000      0.000
REMARK  Name = 
REMARK  6 active torsions:
REMARK  status: ('A' for Active; 'I' for Inactive)
REMARK    1  A    between atoms: C_1  and  O_2
REMARK    2  A    between atoms: O_2  and  C_3
REMARK    3  A    between atoms: C_6  and  N_7
REMARK    4  A    between atoms: C_8  and  C_10
REMARK    5  A    between atoms: C_21  and  S_22
REMARK    6  A    between atoms: S_22  and  N_25
REMARK                            x       y       z     vdW  Elec       q    Type
REMARK                         _______ _______ _______ _____ _____    ______ ____
ROOT
ATOM      1  C   UNL     1       4.702   5.413  16.804  0.00  0.00    +0.000 A 
ATOM      2  C   UNL     1       4.877   6.796  16.720  0.00  0.00    +0.000 A 
ATOM      3  C   UNL     1       4.030   7.670  17.395  0.00  0.00    +0.000 A 
ATOM      4  C   UNL     1       2.975   7.204  18.177  0.00  0.00    +0.000 A 
ATOM      5  C   UNL     1       2.716   5.828  18.181  0.00  0.00    +0.000 A 
ATOM      6  C   UNL     1       3.595   4.927  17.519  0.00  0.00    +0.000 A 
ENDROOT
BRANCH   4   7
ATOM      7  N   UNL     1       2.187   8.102  18.938  0.00  0.00    +0.000 N 
ATOM      8  C   UNL     1       1.736   7.837  20.231  0.00  0.00    +0.000 C 
ATOM      9  O   UNL     1       1.900   6.784  20.843  0.00  0.00    +0.000 OA
ATOM     10  H   UNL     1       1.815   8.941  18.492  0.00  0.00    +0.000 HD
BRANCH   8  11
ATOM     11  C   UNL     1       0.945   8.899  20.906  0.00  0.00    +0.000 A 
ATOM     12  C   UNL     1       1.040   9.016  22.286  0.00  0.00    +0.000 A 
ATOM     13  N   UNL     1       0.344   9.938  22.988  0.00  0.00    +0.000 NA
ATOM     14  C   UNL     1      -0.447  10.752  22.272  0.00  0.00    +0.000 A 
ATOM     15  C   UNL     1      -1.198  11.712  22.939  0.00  0.00    +0.000 A 
ATOM     16  C   UNL     1      -2.039  12.579  22.248  0.00  0.00    +0.000 A 
ATOM     17  C   UNL     1      -2.119  12.491  20.860  0.00  0.00    +0.000 A 
ATOM     18  C   UNL     1      -1.365  11.534  20.181  0.00  0.00    +0.000 A 
ATOM     19  C   UNL     1      -0.535  10.647  20.855  0.00  0.00    +0.000 A 
ATOM     20  N   UNL     1       0.156   9.712  20.157  0.00  0.00    +0.000 NA
ENDBRANCH   8  11
ENDBRANCH   4   7
BRANCH   6  21
ATOM     21  S   UNL     1       3.162   3.178  17.509  0.00  0.00    +0.000 S 
ATOM     22  O   UNL     1       2.025   3.052  16.619  0.00  0.00    +0.000 OA
ATOM     23  O   UNL     1       4.350   2.383  17.273  0.00  0.00    +0.000 OA
BRANCH  21  24
ATOM     24  N   UNL     1       2.597   2.827  19.101  0.00  0.00    +0.000 NA
ATOM     25  C   UNL     1       3.628   2.860  20.166  0.00  0.00    +0.000 C 
ATOM     26  C   UNL     1       3.074   2.393  21.511  0.00  0.00    +0.000 C 
ATOM     27  C   UNL     1       1.820   3.165  21.892  0.00  0.00    +0.000 C 
ATOM     28  C   UNL     1       0.767   2.976  20.814  0.00  0.00    +0.000 C 
ATOM     29  C   UNL     1       1.271   3.397  19.437  0.00  0.00    +0.000 C 
ENDBRANCH  21  24
ENDBRANCH   6  21
BRANCH   1  31
ATOM     30  C   UNL     1       5.954   4.855  14.858  0.00  0.00    +0.000 C 
ATOM     31  O   UNL     1       5.557   4.541  16.193  0.00  0.00    +0.000 OA
ENDBRANCH   1  31
TORSDOF 5
ENDMDL
MODEL 2
REMARK VINA RESULT:      -8.5      2.871      4.649
REMARK  Name = 
REMARK  6 active torsions:
REMARK  status: ('A' for Active; 'I' for Inactive)
REMARK    1  A    between atoms: C_1  and  O_2
REMARK    2  A    between atoms: O_2  and  C_3
REMARK    3  A    between atoms: C_6  and  N_7
REMARK    4  A    between atoms: C_8  and  C_10
REMARK    5  A    between atoms: C_21  and  S_22
REMARK    6  A    between atoms: S_22  and  N_25
REMARK                            x       y       z     vdW  Elec       q    Type
REMARK                         _______ _______ _______ _____ _____    ______ ____
ROOT
ATOM      1  C   UNL     1       2.443   4.030  19.954  0.00  0.00    +0.000 A 
ATOM      2  C   UNL     1       1.374   4.585  20.662  0.00  0.00    +0.000 A 
ATOM      3  C   UNL     1       1.166   5.961  20.686  0.00  0.00    +0.000 A 
ATOM      4  C   UNL     1       2.012   6.839  20.011  0.00  0.00    +0.000 A 
ATOM      5  C   UNL     1       3.151   6.309  19.392  0.00  0.00    +0.000 A 
ATOM      6  C   UNL     1       3.354   4.903  19.336  0.00  0.00    +0.000 A 
ENDROOT
BRANCH   4   7
ATOM      7  N   UNL     1       1.726   8.225  19.962  0.00  0.00    +0.000 N 
ATOM      8  C   UNL     1       1.521   8.936  18.779  0.00  0.00    +0.000 C 
ATOM      9  O   UNL     1       1.628   8.478  17.643  0.00  0.00    +0.000 OA
ATOM     10  H   UNL     1       1.788   8.778  20.816  0.00  0.00    +0.000 HD
BRANCH   8  11
ATOM     11  C   UNL     1       1.198  10.381  18.901  0.00  0.00    +0.000 A 
ATOM     12  C   UNL     1      -0.042  10.739  19.410  0.00  0.00    +0.000 A 
ATOM     13  N   UNL     1      -0.432  12.027  19.539  0.00  0.00    +0.000 NA
ATOM     14  C   UNL     1       0.458  12.955  19.155  0.00  0.00    +0.000 A 
ATOM     15  C   UNL     1       0.110  14.296  19.252  0.00  0.00    +0.000 A 
ATOM     16  C   UNL     1       0.992  15.301  18.863  0.00  0.00    +0.000 A 
ATOM     17  C   UNL     1       2.252  14.954  18.380  0.00  0.00    +0.000 A 
ATOM     18  C   UNL     1       2.612  13.609  18.284  0.00  0.00    +0.000 A 
ATOM     19  C   UNL     1       1.739  12.593  18.649  0.00  0.00    +0.000 A 
ATOM     20  N   UNL     1       2.119  11.299  18.509  0.00  0.00    +0.000 NA
ENDBRANCH   8  11
ENDBRANCH   4   7
BRANCH   6  21
ATOM     21  S   UNL     1       4.874   4.298  18.584  0.00  0.00    +0.000 S 
ATOM     22  O   UNL     1       5.495   3.436  19.570  0.00  0.00    +0.000 OA
ATOM     23  O   UNL     1       4.592   3.784  17.259  0.00  0.00    +0.000 OA
BRANCH  21  24
ATOM     24  N   UNL     1       5.892   5.680  18.410  0.00  0.00    +0.000 NA
ATOM     25  C   UNL     1       7.299   5.496  18.842  0.00  0.00    +0.000 C 
ATOM     26  C   UNL     1       8.086   6.804  18.795  0.00  0.00    +0.000 C 
ATOM     27  C   UNL     1       7.980   7.465  17.429  0.00  0.00    +0.000 C 
ATOM     28  C   UNL     1       6.519   7.739  17.116  0.00  0.00    +0.000 C 
ATOM     29  C   UNL     1       5.670   6.472  17.177  0.00  0.00    +0.000 C 
ENDBRANCH  21  24
ENDBRANCH   6  21
BRANCH   1  31
ATOM     30  C   UNL     1       1.755   1.956  19.009  0.00  0.00    +0.000 C 
ATOM     31  O   UNL     1       2.629   2.680  19.875  0.00  0.00    +0.000 OA
ENDBRANCH   1  31
TORSDOF 5
ENDMDL
MODEL 3
REMARK VINA RESULT:      -8.4      0.997      1.024
REMARK  Name = 
REMARK  6 active torsions:
REMARK  status: ('A' for Active; 'I' for Inactive)
REMARK    1  A    between atoms: C_1  and  O_2
REMARK    2  A    between atoms: O_2  and  C_3
REMARK    3  A    between atoms: C_6  and  N_7
REMARK    4  A    between atoms: C_8  and  C_10
REMARK    5  A    between atoms: C_21  and  S_22
REMARK    6  A    between atoms: S_22  and  N_25
REMARK                            x       y       z     vdW  Elec       q    Type
REMARK                         _______ _______ _______ _____ _____    ______ ____
ROOT
ATOM      1  C   UNL     1       4.554   5.563  16.749  0.00  0.00    +0.000 A 
ATOM      2  C   UNL     1       4.659   6.956  16.715  0.00  0.00    +0.000 A 
ATOM      3  C   UNL     1       3.861   7.756  17.525  0.00  0.00    +0.000 A 
ATOM      4  C   UNL     1       2.925   7.207  18.399  0.00  0.00    +0.000 A 
ATOM      5  C   UNL     1       2.726   5.821  18.363  0.00  0.00    +0.000 A 
ATOM      6  C   UNL     1       3.559   4.993  17.561  0.00  0.00    +0.000 A 
ENDROOT
BRANCH   4   7
ATOM      7  N   UNL     1       2.194   8.032  19.289  0.00  0.00    +0.000 N 
ATOM      8  C   UNL     1       1.347   9.061  18.877  0.00  0.00    +0.000 C 
ATOM      9  O   UNL     1       1.180   9.426  17.715  0.00  0.00    +0.000 OA
ATOM     10  H   UNL     1       2.375   7.968  20.290  0.00  0.00    +0.000 HD
BRANCH   8  11
ATOM     11  C   UNL     1       0.627   9.813  19.936  0.00  0.00    +0.000 A 
ATOM     12  C   UNL     1       0.985   9.597  21.259  0.00  0.00    +0.000 A 
ATOM     13  N   UNL     1       0.373  10.220  22.291  0.00  0.00    +0.000 NA
ATOM     14  C   UNL     1      -0.606  11.080  21.965  0.00  0.00    +0.000 A 
ATOM     15  C   UNL     1      -1.281  11.742  22.982  0.00  0.00    +0.000 A 
ATOM     16  C   UNL     1      -2.308  12.639  22.702  0.00  0.00    +0.000 A 
ATOM     17  C   UNL     1      -2.655  12.888  21.376  0.00  0.00    +0.000 A 
ATOM     18  C   UNL     1      -1.979  12.231  20.348  0.00  0.00    +0.000 A 
ATOM     19  C   UNL     1      -0.965  11.318  20.608  0.00  0.00    +0.000 A 
ATOM     20  N   UNL     1      -0.356  10.679  19.578  0.00  0.00    +0.000 NA
ENDBRANCH   8  11
ENDBRANCH   4   7
BRANCH   6  21
ATOM     21  S   UNL     1       3.202   3.228  17.514  0.00  0.00    +0.000 S 
ATOM     22  O   UNL     1       2.094   3.068  16.593  0.00  0.00    +0.000 OA
ATOM     23  O   UNL     1       4.428   2.488  17.296  0.00  0.00    +0.000 OA
BRANCH  21  24
ATOM     24  N   UNL     1       2.613   2.828  19.085  0.00  0.00    +0.000 NA
ATOM     25  C   UNL     1       3.621   2.863  20.173  0.00  0.00    +0.000 C 
ATOM     26  C   UNL     1       3.051   2.352  21.495  0.00  0.00    +0.000 C 
ATOM     27  C   UNL     1       1.770   3.084  21.865  0.00  0.00    +0.000 C 
ATOM     28  C   UNL     1       0.745   2.893  20.761  0.00  0.00    +0.000 C 
ATOM     29  C   UNL     1       1.266   3.357  19.405  0.00  0.00    +0.000 C 
ENDBRANCH  21  24
ENDBRANCH   6  21
BRANCH   1  31
ATOM     30  C   UNL     1       6.755   5.097  15.971  0.00  0.00    +0.000 C 
ATOM     31  O   UNL     1       5.368   4.761  16.001  0.00  0.00    +0.000 OA
ENDBRANCH   1  31
TORSDOF 5
ENDMDL
MODEL 4
REMARK VINA RESULT:      -8.4      1.938      4.118
REMARK  Name = 
REMARK  6 active torsions:
REMARK  status: ('A' for Active; 'I' for Inactive)
REMARK    1  A    between atoms: C_1  and  O_2
REMARK    2  A    between atoms: O_2  and  C_3
REMARK    3  A    between atoms: C_6  and  N_7
REMARK    4  A    between atoms: C_8  and  C_10
REMARK    5  A    between atoms: C_21  and  S_22
REMARK    6  A    between atoms: S_22  and  N_25
REMARK                            x       y       z     vdW  Elec       q    Type
REMARK                         _______ _______ _______ _____ _____    ______ ____
ROOT
ATOM      1  C   UNL     1       2.534   3.561  19.603  0.00  0.00    +0.000 A 
ATOM      2  C   UNL     1       1.278   3.779  20.175  0.00  0.00    +0.000 A 
ATOM      3  C   UNL     1       0.893   5.048  20.598  0.00  0.00    +0.000 A 
ATOM      4  C   UNL     1       1.739   6.147  20.472  0.00  0.00    +0.000 A 
ATOM      5  C   UNL     1       3.041   5.925  20.006  0.00  0.00    +0.000 A 
ATOM      6  C   UNL     1       3.433   4.639  19.543  0.00  0.00    +0.000 A 
ENDROOT
BRANCH   4   7
ATOM      7  N   UNL     1       1.292   7.447  20.813  0.00  0.00    +0.000 N 
ATOM      8  C   UNL     1       1.383   8.549  19.962  0.00  0.00    +0.000 C 
ATOM      9  O   UNL     1       1.914   8.553  18.853  0.00  0.00    +0.000 OA
ATOM     10  H   UNL     1       0.997   7.638  21.770  0.00  0.00    +0.000 HD
BRANCH   8  11
ATOM     11  C   UNL     1       0.837   9.838  20.459  0.00  0.00    +0.000 A 
ATOM     12  C   UNL     1       1.189  11.004  19.793  0.00  0.00    +0.000 A 
ATOM     13  N   UNL     1       0.758  12.224  20.183  0.00  0.00    +0.000 NA
ATOM     14  C   UNL     1      -0.047  12.251  21.256  0.00  0.00    +0.000 A 
ATOM     15  C   UNL     1      -0.513  13.477  21.714  0.00  0.00    +0.000 A 
ATOM     16  C   UNL     1      -1.346  13.564  22.826  0.00  0.00    +0.000 A 
ATOM     17  C   UNL     1      -1.731  12.398  23.484  0.00  0.00    +0.000 A 
ATOM     18  C   UNL     1      -1.273  11.161  23.028  0.00  0.00    +0.000 A 
ATOM     19  C   UNL     1      -0.425  11.056  21.933  0.00  0.00    +0.000 A 
ATOM     20  N   UNL     1       0.021   9.836  21.544  0.00  0.00    +0.000 NA
ENDBRANCH   8  11
ENDBRANCH   4   7
BRANCH   6  21
ATOM     21  S   UNL     1       5.142   4.412  19.023  0.00  0.00    +0.000 S 
ATOM     22  O   UNL     1       5.897   5.478  19.650  0.00  0.00    +0.000 OA
ATOM     23  O   UNL     1       5.537   3.034  19.233  0.00  0.00    +0.000 OA
BRANCH  21  24
ATOM     24  N   UNL     1       5.157   4.714  17.324  0.00  0.00    +0.000 NA
ATOM     25  C   UNL     1       5.461   6.110  16.927  0.00  0.00    +0.000 C 
ATOM     26  C   UNL     1       5.307   6.322  15.422  0.00  0.00    +0.000 C 
ATOM     27  C   UNL     1       6.117   5.304  14.634  0.00  0.00    +0.000 C 
ATOM     28  C   UNL     1       5.658   3.903  15.001  0.00  0.00    +0.000 C 
ATOM     29  C   UNL     1       5.759   3.639  16.500  0.00  0.00    +0.000 C 
ENDBRANCH  21  24
ENDBRANCH   6  21
BRANCH   1  31
ATOM     30  C   UNL     1       2.577   2.034  17.776  0.00  0.00    +0.000 C 
ATOM     31  O   UNL     1       2.907   2.334  19.133  0.00  0.00    +0.000 OA
ENDBRANCH   1  31
TORSDOF 5
ENDMDL
MODEL 5
REMARK VINA RESULT:      -8.3      1.056      1.846
REMARK  Name = 
REMARK  6 active torsions:
REMARK  status: ('A' for Active; 'I' for Inactive)
REMARK    1  A    between atoms: C_1  and  O_2
REMARK    2  A    between atoms: O_2  and  C_3
REMARK    3  A    between atoms: C_6  and  N_7
REMARK    4  A    between atoms: C_8  and  C_10
REMARK    5  A    between atoms: C_21  and  S_22
REMARK    6  A    between atoms: S_22  and  N_25
REMARK                            x       y       z     vdW  Elec       q    Type
REMARK                         _______ _______ _______ _____ _____    ______ ____
ROOT
ATOM      1  C   UNL     1       5.292   5.384  16.691  0.00  0.00    +0.000 A 
ATOM      2  C   UNL     1       5.151   6.630  16.076  0.00  0.00    +0.000 A 
ATOM      3  C   UNL     1       4.223   7.558  16.540  0.00  0.00    +0.000 A 
ATOM      4  C   UNL     1       3.399   7.284  17.629  0.00  0.00    +0.000 A 
ATOM      5  C   UNL     1       3.447   5.999  18.184  0.00  0.00    +0.000 A 
ATOM      6  C   UNL     1       4.413   5.056  17.737  0.00  0.00    +0.000 A 
ENDROOT
BRANCH   4   7
ATOM      7  N   UNL     1       2.534   8.278  18.150  0.00  0.00    +0.000 N 
ATOM      8  C   UNL     1       1.916   8.194  19.397  0.00  0.00    +0.000 C 
ATOM      9  O   UNL     1       1.983   7.236  20.165  0.00  0.00    +0.000 OA
ATOM     10  H   UNL     1       2.236   9.045  17.548  0.00  0.00    +0.000 HD
BRANCH   8  11
ATOM     11  C   UNL     1       1.062   9.337  19.811  0.00  0.00    +0.000 A 
ATOM     12  C   UNL     1       0.779  10.323  18.876  0.00  0.00    +0.000 A 
ATOM     13  N   UNL     1       0.029  11.409  19.166  0.00  0.00    +0.000 NA
ATOM     14  C   UNL     1      -0.445  11.482  20.420  0.00  0.00    +0.000 A 
ATOM     15  C   UNL     1      -1.212  12.581  20.782  0.00  0.00    +0.000 A 
ATOM     16  C   UNL     1      -1.724  12.711  22.070  0.00  0.00    +0.000 A 
ATOM     17  C   UNL     1      -1.473  11.713  23.009  0.00  0.00    +0.000 A 
ATOM     18  C   UNL     1      -0.707  10.602  22.653  0.00  0.00    +0.000 A 
ATOM     19  C   UNL     1      -0.172  10.465  21.378  0.00  0.00    +0.000 A 
ATOM     20  N   UNL     1       0.593   9.384  21.085  0.00  0.00    +0.000 NA
ENDBRANCH   8  11
ENDBRANCH   4   7
BRANCH   6  21
ATOM     21  S   UNL     1       4.372   3.402  18.448  0.00  0.00    +0.000 S 
ATOM     22  O   UNL     1       3.968   2.513  17.377  0.00  0.00    +0.000 OA
ATOM     23  O   UNL     1       5.606   3.148  19.164  0.00  0.00    +0.000 OA
BRANCH  21  24
ATOM     24  N   UNL     1       3.086   3.420  19.599  0.00  0.00    +0.000 NA
ATOM     25  C   UNL     1       1.736   3.143  19.053  0.00  0.00    +0.000 C 
ATOM     26  C   UNL     1       0.645   3.326  20.107  0.00  0.00    +0.000 C 
ATOM     27  C   UNL     1       0.944   2.516  21.359  0.00  0.00    +0.000 C 
ATOM     28  C   UNL     1       2.282   2.950  21.931  0.00  0.00    +0.000 C 
ATOM     29  C   UNL     1       3.412   2.819  20.914  0.00  0.00    +0.000 C 
ENDBRANCH  21  24
ENDBRANCH   6  21
BRANCH   1  31
ATOM     30  C   UNL     1       6.823   4.700  15.001  0.00  0.00    +0.000 C 
ATOM     31  O   UNL     1       6.234   4.483  16.283  0.00  0.00    +0.000 OA
ENDBRANCH   1  31
TORSDOF 5
ENDMDL
MODEL 6
REMARK VINA RESULT:      -8.3      2.870      4.677
REMARK  Name = 
REMARK  6 active torsions:
REMARK  status: ('A' for Active; 'I' for Inactive)
REMARK    1  A    between atoms: C_1  and  O_2
REMARK    2  A    between atoms: O_2  and  C_3
REMARK    3  A    between atoms: C_6  and  N_7
REMARK    4  A    between atoms: C_8  and  C_10
REMARK    5  A    between atoms: C_21  and  S_22
REMARK    6  A    between atoms: S_22  and  N_25
REMARK                            x       y       z     vdW  Elec       q    Type
REMARK                         _______ _______ _______ _____ _____    ______ ____
ROOT
ATOM      1  C   UNL     1       2.703   4.158  19.641  0.00  0.00    +0.000 A 
ATOM      2  C   UNL     1       1.455   4.649  20.031  0.00  0.00    +0.000 A 
ATOM      3  C   UNL     1       1.204   6.017  20.075  0.00  0.00    +0.000 A 
ATOM      4  C   UNL     1       2.182   6.950  19.736  0.00  0.00    +0.000 A 
ATOM      5  C   UNL     1       3.470   6.479  19.453  0.00  0.00    +0.000 A 
ATOM      6  C   UNL     1       3.727   5.083  19.376  0.00  0.00    +0.000 A 
ENDROOT
BRANCH   4   7
ATOM      7  N   UNL     1       1.877   8.332  19.688  0.00  0.00    +0.000 N 
ATOM      8  C   UNL     1       1.719   9.053  18.504  0.00  0.00    +0.000 C 
ATOM      9  O   UNL     1       1.886   8.610  17.370  0.00  0.00    +0.000 OA
ATOM     10  H   UNL     1       1.891   8.877  20.550  0.00  0.00    +0.000 HD
BRANCH   8  11
ATOM     11  C   UNL     1       1.368  10.492  18.626  0.00  0.00    +0.000 A 
ATOM     12  C   UNL     1       0.077  10.826  19.008  0.00  0.00    +0.000 A 
ATOM     13  N   UNL     1      -0.340  12.107  19.126  0.00  0.00    +0.000 NA
ATOM     14  C   UNL     1       0.576  13.052  18.861  0.00  0.00    +0.000 A 
ATOM     15  C   UNL     1       0.205  14.388  18.952  0.00  0.00    +0.000 A 
ATOM     16  C   UNL     1       1.111  15.409  18.683  0.00  0.00    +0.000 A 
ATOM     17  C   UNL     1       2.419  15.086  18.328  0.00  0.00    +0.000 A 
ATOM     18  C   UNL     1       2.803  13.747  18.239  0.00  0.00    +0.000 A 
ATOM     19  C   UNL     1       1.907  12.714  18.485  0.00  0.00    +0.000 A 
ATOM     20  N   UNL     1       2.314  11.427  18.356  0.00  0.00    +0.000 NA
ENDBRANCH   8  11
ENDBRANCH   4   7
BRANCH   6  21
ATOM     21  S   UNL     1       5.421   4.551  19.075  0.00  0.00    +0.000 S 
ATOM     22  O   UNL     1       6.271   5.518  19.741  0.00  0.00    +0.000 OA
ATOM     23  O   UNL     1       5.554   3.143  19.390  0.00  0.00    +0.000 OA
BRANCH  21  24
ATOM     24  N   UNL     1       5.676   4.740  17.379  0.00  0.00    +0.000 NA
ATOM     25  C   UNL     1       7.084   4.618  16.927  0.00  0.00    +0.000 C 
ATOM     26  C   UNL     1       7.237   4.946  15.443  0.00  0.00    +0.000 C 
ATOM     27  C   UNL     1       6.281   4.125  14.593  0.00  0.00    +0.000 C 
ATOM     28  C   UNL     1       4.853   4.403  15.031  0.00  0.00    +0.000 C 
ATOM     29  C   UNL     1       4.642   4.122  16.515  0.00  0.00    +0.000 C 
ENDBRANCH  21  24
ENDBRANCH   6  21
BRANCH   1  31
ATOM     30  C   UNL     1       1.828   1.973  19.280  0.00  0.00    +0.000 C 
ATOM     31  O   UNL     1       2.950   2.818  19.539  0.00  0.00    +0.000 OA
ENDBRANCH   1  31
TORSDOF 5
ENDMDL
MODEL 7
REMARK VINA RESULT:      -8.2      3.757      9.231
REMARK  Name = 
REMARK  6 active torsions:
REMARK  status: ('A' for Active; 'I' for Inactive)
REMARK    1  A    between atoms: C_1  and  O_2
REMARK    2  A    between atoms: O_2  and  C_3
REMARK    3  A    between atoms: C_6  and  N_7
REMARK    4  A    between atoms: C_8  and  C_10
REMARK    5  A    between atoms: C_21  and  S_22
REMARK    6  A    between atoms: S_22  and  N_25
REMARK                            x       y       z     vdW  Elec       q    Type
REMARK                         _______ _______ _______ _____ _____    ______ ____
ROOT
ATOM      1  C   UNL     1      -1.142  11.416  22.451  0.00  0.00    +0.000 A 
ATOM      2  C   UNL     1      -0.524  10.388  23.167  0.00  0.00    +0.000 A 
ATOM      3  C   UNL     1       0.153   9.364  22.512  0.00  0.00    +0.000 A 
ATOM      4  C   UNL     1       0.240   9.319  21.123  0.00  0.00    +0.000 A 
ATOM      5  C   UNL     1      -0.469  10.276  20.387  0.00  0.00    +0.000 A 
ATOM      6  C   UNL     1      -1.138  11.344  21.048  0.00  0.00    +0.000 A 
ENDROOT
BRANCH   4   7
ATOM      7  N   UNL     1       1.019   8.326  20.478  0.00  0.00    +0.000 N 
ATOM      8  C   UNL     1       1.732   8.541  19.298  0.00  0.00    +0.000 C 
ATOM      9  O   UNL     1       1.723   9.578  18.638  0.00  0.00    +0.000 OA
ATOM     10  H   UNL     1       0.974   7.363  20.810  0.00  0.00    +0.000 HD
BRANCH   8  11
ATOM     11  C   UNL     1       2.527   7.405  18.767  0.00  0.00    +0.000 A 
ATOM     12  C   UNL     1       2.396   6.165  19.378  0.00  0.00    +0.000 A 
ATOM     13  N   UNL     1       3.094   5.079  18.978  0.00  0.00    +0.000 NA
ATOM     14  C   UNL     1       3.923   5.259  17.938  0.00  0.00    +0.000 A 
ATOM     15  C   UNL     1       4.677   4.183  17.488  0.00  0.00    +0.000 A 
ATOM     16  C   UNL     1       5.557   4.315  16.417  0.00  0.00    +0.000 A 
ATOM     17  C   UNL     1       5.673   5.546  15.776  0.00  0.00    +0.000 A 
ATOM     18  C   UNL     1       4.916   6.632  16.218  0.00  0.00    +0.000 A 
ATOM     19  C   UNL     1       4.047   6.525  17.296  0.00  0.00    +0.000 A 
ATOM     20  N   UNL     1       3.355   7.614  17.712  0.00  0.00    +0.000 NA
ENDBRANCH   8  11
ENDBRANCH   4   7
BRANCH   6  21
ATOM     21  S   UNL     1      -2.086  12.498  20.043  0.00  0.00    +0.000 S 
ATOM     22  O   UNL     1      -3.235  12.877  20.841  0.00  0.00    +0.000 OA
ATOM     23  O   UNL     1      -1.207  13.524  19.519  0.00  0.00    +0.000 OA
BRANCH  21  24
ATOM     24  N   UNL     1      -2.680  11.579  18.709  0.00  0.00    +0.000 NA
ATOM     25  C   UNL     1      -4.151  11.608  18.518  0.00  0.00    +0.000 C 
ATOM     26  C   UNL     1      -4.602  10.653  17.415  0.00  0.00    +0.000 C 
ATOM     27  C   UNL     1      -3.842  10.903  16.121  0.00  0.00    +0.000 C 
ATOM     28  C   UNL     1      -2.354  10.727  16.370  0.00  0.00    +0.000 C 
ATOM     29  C   UNL     1      -1.846  11.635  17.486  0.00  0.00    +0.000 C 
ENDBRANCH  21  24
ENDBRANCH   6  21
BRANCH   1  31
ATOM     30  C   UNL     1      -0.976  13.620  23.336  0.00  0.00    +0.000 C 
ATOM     31  O   UNL     1      -1.764  12.458  23.079  0.00  0.00    +0.000 OA
ENDBRANCH   1  31
TORSDOF 5
ENDMDL
MODEL 8
REMARK VINA RESULT:      -8.2      2.377      4.294
REMARK  Name = 
REMARK  6 active torsions:
REMARK  status: ('A' for Active; 'I' for Inactive)
REMARK    1  A    between atoms: C_1  and  O_2
REMARK    2  A    between atoms: O_2  and  C_3
REMARK    3  A    between atoms: C_6  and  N_7
REMARK    4  A    between atoms: C_8  and  C_10
REMARK    5  A    between atoms: C_21  and  S_22
REMARK    6  A    between atoms: S_22  and  N_25
REMARK                            x       y       z     vdW  Elec       q    Type
REMARK                         _______ _______ _______ _____ _____    ______ ____
ROOT
ATOM      1  C   UNL     1       2.459   3.741  19.839  0.00  0.00    +0.000 A 
ATOM      2  C   UNL     1       1.402   4.212  20.622  0.00  0.00    +0.000 A 
ATOM      3  C   UNL     1       1.197   5.576  20.806  0.00  0.00    +0.000 A 
ATOM      4  C   UNL     1       2.034   6.525  20.224  0.00  0.00    +0.000 A 
ATOM      5  C   UNL     1       3.163   6.070  19.532  0.00  0.00    +0.000 A 
ATOM      6  C   UNL     1       3.363   4.679  19.312  0.00  0.00    +0.000 A 
ENDROOT
BRANCH   4   7
ATOM      7  N   UNL     1       1.750   7.908  20.338  0.00  0.00    +0.000 N 
ATOM      8  C   UNL     1       1.554   8.754  19.247  0.00  0.00    +0.000 C 
ATOM      9  O   UNL     1       1.668   8.435  18.066  0.00  0.00    +0.000 OA
ATOM     10  H   UNL     1       1.808   8.355  21.253  0.00  0.00    +0.000 HD
BRANCH   8  11
ATOM     11  C   UNL     1       1.232  10.175  19.538  0.00  0.00    +0.000 A 
ATOM     12  C   UNL     1       1.633  11.143  18.628  0.00  0.00    +0.000 A 
ATOM     13  N   UNL     1       1.402  12.461  18.817  0.00  0.00    +0.000 NA
ATOM     14  C   UNL     1       0.746  12.791  19.941  0.00  0.00    +0.000 A 
ATOM     15  C   UNL     1       0.490  14.132  20.198  0.00  0.00    +0.000 A 
ATOM     16  C   UNL     1      -0.180  14.531  21.350  0.00  0.00    +0.000 A 
ATOM     17  C   UNL     1      -0.615  13.566  22.256  0.00  0.00    +0.000 A 
ATOM     18  C   UNL     1      -0.367  12.216  22.004  0.00  0.00    +0.000 A 
ATOM     19  C   UNL     1       0.317  11.800  20.870  0.00  0.00    +0.000 A 
ATOM     20  N   UNL     1       0.564  10.480  20.681  0.00  0.00    +0.000 NA
ENDBRANCH   8  11
ENDBRANCH   4   7
BRANCH   6  21
ATOM     21  S   UNL     1       4.871   4.164  18.473  0.00  0.00    +0.000 S 
ATOM     22  O   UNL     1       5.546   3.257  19.380  0.00  0.00    +0.000 OA
ATOM     23  O   UNL     1       4.557   3.730  17.127  0.00  0.00    +0.000 OA
BRANCH  21  24
ATOM     24  N   UNL     1       5.849   5.581  18.357  0.00  0.00    +0.000 NA
ATOM     25  C   UNL     1       7.276   5.403  18.722  0.00  0.00    +0.000 C 
ATOM     26  C   UNL     1       8.030   6.731  18.736  0.00  0.00    +0.000 C 
ATOM     27  C   UNL     1       7.854   7.482  17.426  0.00  0.00    +0.000 C 
ATOM     28  C   UNL     1       6.376   7.739  17.188  0.00  0.00    +0.000 C 
ATOM     29  C   UNL     1       5.560   6.450  17.193  0.00  0.00    +0.000 C 
ENDBRANCH  21  24
ENDBRANCH   6  21
BRANCH   1  31
ATOM     30  C   UNL     1       1.884   1.831  18.540  0.00  0.00    +0.000 C 
ATOM     31  O   UNL     1       2.642   2.409  19.603  0.00  0.00    +0.000 OA
ENDBRANCH   1  31
TORSDOF 5
ENDMDL
MODEL 9
REMARK VINA RESULT:      -8.1      1.421      2.007
REMARK  Name = 
REMARK  6 active torsions:
REMARK  status: ('A' for Active; 'I' for Inactive)
REMARK    1  A    between atoms: C_1  and  O_2
REMARK    2  A    between atoms: O_2  and  C_3
REMARK    3  A    between atoms: C_6  and  N_7
REMARK    4  A    between atoms: C_8  and  C_10
REMARK    5  A    between atoms: C_21  and  S_22
REMARK    6  A    between atoms: S_22  and  N_25
REMARK                            x       y       z     vdW  Elec       q    Type
REMARK                         _______ _______ _______ _____ _____    ______ ____
ROOT
ATOM      1  C   UNL     1       5.184   5.420  16.909  0.00  0.00    +0.000 A 
ATOM      2  C   UNL     1       4.947   6.728  16.481  0.00  0.00    +0.000 A 
ATOM      3  C   UNL     1       4.019   7.538  17.128  0.00  0.00    +0.000 A 
ATOM      4  C   UNL     1       3.289   7.081  18.222  0.00  0.00    +0.000 A 
ATOM      5  C   UNL     1       3.430   5.738  18.592  0.00  0.00    +0.000 A 
ATOM      6  C   UNL     1       4.398   4.912  17.957  0.00  0.00    +0.000 A 
ENDROOT
BRANCH   4   7
ATOM      7  N   UNL     1       2.425   7.952  18.930  0.00  0.00    +0.000 N 
ATOM      8  C   UNL     1       1.748   9.021  18.344  0.00  0.00    +0.000 C 
ATOM      9  O   UNL     1       1.863   9.385  17.175  0.00  0.00    +0.000 OA
ATOM     10  H   UNL     1       2.374   7.887  19.946  0.00  0.00    +0.000 HD
BRANCH   8  11
ATOM     11  C   UNL     1       0.852   9.821  19.219  0.00  0.00    +0.000 A 
ATOM     12  C   UNL     1       0.258  10.959  18.692  0.00  0.00    +0.000 A 
ATOM     13  N   UNL     1      -0.555  11.759  19.417  0.00  0.00    +0.000 NA
ATOM     14  C   UNL     1      -0.771  11.385  20.688  0.00  0.00    +0.000 A 
ATOM     15  C   UNL     1      -1.587  12.174  21.488  0.00  0.00    +0.000 A 
ATOM     16  C   UNL     1      -1.841  11.837  22.815  0.00  0.00    +0.000 A 
ATOM     17  C   UNL     1      -1.275  10.680  23.346  0.00  0.00    +0.000 A 
ATOM     18  C   UNL     1      -0.458   9.879  22.548  0.00  0.00    +0.000 A 
ATOM     19  C   UNL     1      -0.178  10.209  21.228  0.00  0.00    +0.000 A 
ATOM     20  N   UNL     1       0.648   9.418  20.500  0.00  0.00    +0.000 NA
ENDBRANCH   8  11
ENDBRANCH   4   7
BRANCH   6  21
ATOM     21  S   UNL     1       4.477   3.178  18.439  0.00  0.00    +0.000 S 
ATOM     22  O   UNL     1       4.486   2.419  17.204  0.00  0.00    +0.000 OA
ATOM     23  O   UNL     1       5.539   2.988  19.405  0.00  0.00    +0.000 OA
BRANCH  21  24
ATOM     24  N   UNL     1       2.978   2.843  19.225  0.00  0.00    +0.000 NA
ATOM     25  C   UNL     1       2.863   3.341  20.618  0.00  0.00    +0.000 C 
ATOM     26  C   UNL     1       1.571   2.872  21.285  0.00  0.00    +0.000 C 
ATOM     27  C   UNL     1       0.354   3.219  20.442  0.00  0.00    +0.000 C 
ATOM     28  C   UNL     1       0.487   2.566  19.077  0.00  0.00    +0.000 C 
ATOM     29  C   UNL     1       1.776   2.972  18.368  0.00  0.00    +0.000 C 
ENDBRANCH  21  24
ENDBRANCH   6  21
BRANCH   1  31
ATOM     30  C   UNL     1       6.157   4.609  14.893  0.00  0.00    +0.000 C 
ATOM     31  O   UNL     1       6.130   4.629  16.320  0.00  0.00    +0.000 OA
ENDBRANCH   1  31
TORSDOF 5
ENDMDL
