MODEL 1
REMARK VINA RESULT:      -8.5      0.000      0.000
REMARK  Name = 
REMARK  6 active torsions:
REMARK  status: ('A' for Active; 'I' for Inactive)
REMARK    1  A    between atoms: C_2  and  C_15
REMARK    2  A    between atoms: N_3  and  C_4
REMARK    3  A    between atoms: C_4  and  C_5
REMARK    4  A    between atoms: C_5  and  C_6
REMARK    5  A    between atoms: C_20  and  O_21
REMARK    6  A    between atoms: O_21  and  C_22
REMARK                            x       y       z     vdW  Elec       q    Type
REMARK                         _______ _______ _______ _____ _____    ______ ____
ROOT
ATOM      1  O   UNL     1       2.479   7.154  19.941  0.00  0.00    +0.000 OA
ATOM      2  C   UNL     1       2.515   6.889  18.743  0.00  0.00    +0.000 C 
ATOM      3  N   UNL     1       2.383   7.846  17.768  0.00  0.00    +0.000 N 
ATOM      4  H   UNL     1       2.505   7.607  16.788  0.00  0.00    +0.000 HD
ENDROOT
BRANCH   2   5
ATOM      5  C   UNL     1       2.625   5.474  18.308  0.00  0.00    +0.000 A 
ATOM      6  C   UNL     1       1.702   4.567  18.850  0.00  0.00    +0.000 A 
ATOM      7  C   UNL     1       1.707   3.236  18.444  0.00  0.00    +0.000 A 
ATOM      8  C   UNL     1       2.664   2.840  17.533  0.00  0.00    +0.000 A 
ATOM      9  N   UNL     1       3.589   3.674  17.017  0.00  0.00    +0.000 NA
ATOM     10  C   UNL     1       3.539   4.984  17.384  0.00  0.00    +0.000 A 
BRANCH  10  11
ATOM     11  O   UNL     1       4.472   5.855  16.823  0.00  0.00    +0.000 OA
BRANCH  11  12
ATOM     12  C   UNL     1       5.652   6.061  17.510  0.00  0.00    +0.000 A 
ATOM     13  C   UNL     1       6.070   5.245  18.565  0.00  0.00    +0.000 A 
ATOM     14  C   UNL     1       7.257   5.525  19.243  0.00  0.00    +0.000 A 
ATOM     15  C   UNL     1       8.055   6.592  18.836  0.00  0.00    +0.000 A 
ATOM     16  C   UNL     1       7.671   7.373  17.744  0.00  0.00    +0.000 A 
ATOM     17  C   UNL     1       6.472   7.105  17.076  0.00  0.00    +0.000 A 
ENDBRANCH  11  12
ENDBRANCH  10  11
ENDBRANCH   2   5
BRANCH   3  18
ATOM     18  C   UNL     1       2.071   9.229  18.088  0.00  0.00    +0.000 C 
BRANCH  18  19
ATOM     19  C   UNL     1       0.572   9.521  18.098  0.00  0.00    +0.000 C 
BRANCH  19  20
ATOM     20  C   UNL     1       0.226  10.542  19.124  0.00  0.00    +0.000 A 
ATOM     21  N   UNL     1       0.127  11.842  18.913  0.00  0.00    +0.000 NA
ATOM     22  N   UNL     1      -0.237  12.446  20.093  0.00  0.00    +0.000 NA
ATOM     23  C   UNL     1      -0.360  11.507  21.003  0.00  0.00    +0.000 A 
ATOM     24  C   UNL     1      -0.740  11.537  22.372  0.00  0.00    +0.000 A 
ATOM     25  C   UNL     1      -0.773  10.390  23.079  0.00  0.00    +0.000 A 
ATOM     26  C   UNL     1      -0.414   9.116  22.473  0.00  0.00    +0.000 A 
ATOM     27  C   UNL     1      -0.064   9.083  21.176  0.00  0.00    +0.000 A 
ATOM     28  N   UNL     1      -0.050  10.272  20.447  0.00  0.00    +0.000 N 
ENDBRANCH  19  20
ENDBRANCH  18  19
ENDBRANCH   3  18
TORSDOF 6
ENDMDL
MODEL 2
REMARK VINA RESULT:      -8.2      1.964      2.614
REMARK  Name = 
REMARK  6 active torsions:
REMARK  status: ('A' for Active; 'I' for Inactive)
REMARK    1  A    between atoms: C_2  and  C_15
REMARK    2  A    between atoms: N_3  and  C_4
REMARK    3  A    between atoms: C_4  and  C_5
REMARK    4  A    between atoms: C_5  and  C_6
REMARK    5  A    between atoms: C_20  and  O_21
REMARK    6  A    between atoms: O_21  and  C_22
REMARK                            x       y       z     vdW  Elec       q    Type
REMARK                         _______ _______ _______ _____ _____    ______ ____
ROOT
ATOM      1  O   UNL     1       1.813   6.911  20.842  0.00  0.00    +0.000 OA
ATOM      2  C   UNL     1       2.046   6.482  19.715  0.00  0.00    +0.000 C 
ATOM      3  N   UNL     1       2.258   7.306  18.637  0.00  0.00    +0.000 N 
ATOM      4  H   UNL     1       2.535   6.922  17.739  0.00  0.00    +0.000 HD
ENDROOT
BRANCH   2   5
ATOM      5  C   UNL     1       2.025   5.019  19.469  0.00  0.00    +0.000 A 
ATOM      6  C   UNL     1       1.249   4.237  20.337  0.00  0.00    +0.000 A 
ATOM      7  C   UNL     1       1.134   2.865  20.132  0.00  0.00    +0.000 A 
ATOM      8  C   UNL     1       1.834   2.306  19.082  0.00  0.00    +0.000 A 
ATOM      9  N   UNL     1       2.617   3.020  18.248  0.00  0.00    +0.000 NA
ATOM     10  C   UNL     1       2.678   4.367  18.430  0.00  0.00    +0.000 A 
BRANCH  10  11
ATOM     11  O   UNL     1       3.459   5.111  17.545  0.00  0.00    +0.000 OA
BRANCH  11  12
ATOM     12  C   UNL     1       4.831   5.012  17.662  0.00  0.00    +0.000 A 
ATOM     13  C   UNL     1       5.518   5.327  18.838  0.00  0.00    +0.000 A 
ATOM     14  C   UNL     1       6.911   5.240  18.883  0.00  0.00    +0.000 A 
ATOM     15  C   UNL     1       7.616   4.791  17.768  0.00  0.00    +0.000 A 
ATOM     16  C   UNL     1       6.928   4.418  16.612  0.00  0.00    +0.000 A 
ATOM     17  C   UNL     1       5.535   4.523  16.559  0.00  0.00    +0.000 A 
ENDBRANCH  11  12
ENDBRANCH  10  11
ENDBRANCH   2   5
BRANCH   3  18
ATOM     18  C   UNL     1       2.101   8.748  18.733  0.00  0.00    +0.000 C 
BRANCH  18  19
ATOM     19  C   UNL     1       1.057   9.305  17.768  0.00  0.00    +0.000 C 
BRANCH  19  20
ATOM     20  C   UNL     1       0.078  10.177  18.472  0.00  0.00    +0.000 A 
ATOM     21  N   UNL     1       0.313  10.862  19.575  0.00  0.00    +0.000 NA
ATOM     22  N   UNL     1      -0.823  11.565  19.900  0.00  0.00    +0.000 NA
ATOM     23  C   UNL     1      -1.732  11.301  18.989  0.00  0.00    +0.000 A 
ATOM     24  C   UNL     1      -3.062  11.760  18.795  0.00  0.00    +0.000 A 
ATOM     25  C   UNL     1      -3.778  11.302  17.749  0.00  0.00    +0.000 A 
ATOM     26  C   UNL     1      -3.222  10.334  16.816  0.00  0.00    +0.000 A 
ATOM     27  C   UNL     1      -1.960   9.906  16.990  0.00  0.00    +0.000 A 
ATOM     28  N   UNL     1      -1.219  10.398  18.065  0.00  0.00    +0.000 N 
ENDBRANCH  19  20
ENDBRANCH  18  19
ENDBRANCH   3  18
TORSDOF 6
ENDMDL
MODEL 3
REMARK VINA RESULT:      -8.1      2.394      6.986
REMARK  Name = 
REMARK  6 active torsions:
REMARK  status: ('A' for Active; 'I' for Inactive)
REMARK    1  A    between atoms: C_2  and  C_15
REMARK    2  A    between atoms: N_3  and  C_4
REMARK    3  A    between atoms: C_4  and  C_5
REMARK    4  A    between atoms: C_5  and  C_6
REMARK    5  A    between atoms: C_20  and  O_21
REMARK    6  A    between atoms: O_21  and  C_22
REMARK                            x       y       z     vdW  Elec       q    Type
REMARK                         _______ _______ _______ _____ _____    ______ ____
ROOT
ATOM      1  O   UNL     1       2.628   9.596  17.379  0.00  0.00    +0.000 OA
ATOM      2  C   UNL     1       2.637   8.630  18.136  0.00  0.00    +0.000 C 
ATOM      3  N   UNL     1       3.423   7.526  17.920  0.00  0.00    +0.000 N 
ATOM      4  H   UNL     1       3.472   6.783  18.612  0.00  0.00    +0.000 HD
ENDROOT
BRANCH   2   5
ATOM      5  C   UNL     1       1.711   8.600  19.296  0.00  0.00    +0.000 A 
ATOM      6  C   UNL     1       0.792   9.655  19.406  0.00  0.00    +0.000 A 
ATOM      7  C   UNL     1      -0.146   9.663  20.434  0.00  0.00    +0.000 A 
ATOM      8  C   UNL     1      -0.114   8.631  21.349  0.00  0.00    +0.000 A 
ATOM      9  N   UNL     1       0.776   7.619  21.296  0.00  0.00    +0.000 NA
ATOM     10  C   UNL     1       1.653   7.597  20.256  0.00  0.00    +0.000 A 
BRANCH  10  11
ATOM     11  O   UNL     1       2.550   6.532  20.179  0.00  0.00    +0.000 OA
BRANCH  11  12
ATOM     12  C   UNL     1       2.042   5.255  20.311  0.00  0.00    +0.000 A 
ATOM     13  C   UNL     1       1.320   4.616  19.299  0.00  0.00    +0.000 A 
ATOM     14  C   UNL     1       0.803   3.336  19.504  0.00  0.00    +0.000 A 
ATOM     15  C   UNL     1       1.048   2.671  20.704  0.00  0.00    +0.000 A 
ATOM     16  C   UNL     1       1.821   3.282  21.694  0.00  0.00    +0.000 A 
ATOM     17  C   UNL     1       2.324   4.572  21.496  0.00  0.00    +0.000 A 
ENDBRANCH  11  12
ENDBRANCH  10  11
ENDBRANCH   2   5
BRANCH   3  18
ATOM     18  C   UNL     1       4.213   7.372  16.711  0.00  0.00    +0.000 C 
BRANCH  18  19
ATOM     19  C   UNL     1       4.617   5.925  16.435  0.00  0.00    +0.000 C 
BRANCH  19  20
ATOM     20  C   UNL     1       4.936   5.202  17.697  0.00  0.00    +0.000 A 
ATOM     21  N   UNL     1       5.634   5.689  18.707  0.00  0.00    +0.000 NA
ATOM     22  N   UNL     1       5.689   4.735  19.695  0.00  0.00    +0.000 NA
ATOM     23  C   UNL     1       5.022   3.684  19.275  0.00  0.00    +0.000 A 
ATOM     24  C   UNL     1       4.721   2.433  19.877  0.00  0.00    +0.000 A 
ATOM     25  C   UNL     1       4.004   1.520  19.191  0.00  0.00    +0.000 A 
ATOM     26  C   UNL     1       3.540   1.784  17.837  0.00  0.00    +0.000 A 
ATOM     27  C   UNL     1       3.814   2.970  17.270  0.00  0.00    +0.000 A 
ATOM     28  N   UNL     1       4.541   3.916  17.992  0.00  0.00    +0.000 N 
ENDBRANCH  19  20
ENDBRANCH  18  19
ENDBRANCH   3  18
TORSDOF 6
ENDMDL
MODEL 4
REMARK VINA RESULT:      -8.1      1.957      2.858
REMARK  Name = 
REMARK  6 active torsions:
REMARK  status: ('A' for Active; 'I' for Inactive)
REMARK    1  A    between atoms: C_2  and  C_15
REMARK    2  A    between atoms: N_3  and  C_4
REMARK    3  A    between atoms: C_4  and  C_5
REMARK    4  A    between atoms: C_5  and  C_6
REMARK    5  A    between atoms: C_20  and  O_21
REMARK    6  A    between atoms: O_21  and  C_22
REMARK                            x       y       z     vdW  Elec       q    Type
REMARK                         _______ _______ _______ _____ _____    ______ ____
ROOT
ATOM      1  O   UNL     1       2.431   7.367  19.125  0.00  0.00    +0.000 OA
ATOM      2  C   UNL     1       2.057   6.656  20.053  0.00  0.00    +0.000 C 
ATOM      3  N   UNL     1       1.432   7.159  21.167  0.00  0.00    +0.000 N 
ATOM      4  H   UNL     1       1.057   6.536  21.876  0.00  0.00    +0.000 HD
ENDROOT
BRANCH   2   5
ATOM      5  C   UNL     1       2.352   5.202  20.027  0.00  0.00    +0.000 A 
ATOM      6  C   UNL     1       1.287   4.330  20.301  0.00  0.00    +0.000 A 
ATOM      7  C   UNL     1       1.474   2.952  20.237  0.00  0.00    +0.000 A 
ATOM      8  C   UNL     1       2.736   2.483  19.938  0.00  0.00    +0.000 A 
ATOM      9  N   UNL     1       3.792   3.289  19.704  0.00  0.00    +0.000 NA
ATOM     10  C   UNL     1       3.582   4.634  19.719  0.00  0.00    +0.000 A 
BRANCH  10  11
ATOM     11  O   UNL     1       4.664   5.468  19.441  0.00  0.00    +0.000 OA
BRANCH  11  12
ATOM     12  C   UNL     1       5.351   5.257  18.263  0.00  0.00    +0.000 A 
ATOM     13  C   UNL     1       6.681   4.828  18.225  0.00  0.00    +0.000 A 
ATOM     14  C   UNL     1       7.333   4.665  17.001  0.00  0.00    +0.000 A 
ATOM     15  C   UNL     1       6.642   4.884  15.811  0.00  0.00    +0.000 A 
ATOM     16  C   UNL     1       5.296   5.253  15.844  0.00  0.00    +0.000 A 
ATOM     17  C   UNL     1       4.648   5.434  17.070  0.00  0.00    +0.000 A 
ENDBRANCH  11  12
ENDBRANCH  10  11
ENDBRANCH   2   5
BRANCH   3  18
ATOM     18  C   UNL     1       1.278   8.589  21.379  0.00  0.00    +0.000 C 
BRANCH  18  19
ATOM     19  C   UNL     1      -0.182   9.036  21.424  0.00  0.00    +0.000 C 
BRANCH  19  20
ATOM     20  C   UNL     1      -0.297  10.475  21.787  0.00  0.00    +0.000 A 
ATOM     21  N   UNL     1      -0.472  10.948  23.007  0.00  0.00    +0.000 NA
ATOM     22  N   UNL     1      -0.501  12.321  22.939  0.00  0.00    +0.000 NA
ATOM     23  C   UNL     1      -0.340  12.664  21.681  0.00  0.00    +0.000 A 
ATOM     24  C   UNL     1      -0.255  13.924  21.031  0.00  0.00    +0.000 A 
ATOM     25  C   UNL     1      -0.090  13.972  19.694  0.00  0.00    +0.000 A 
ATOM     26  C   UNL     1      -0.008  12.758  18.896  0.00  0.00    +0.000 A 
ATOM     27  C   UNL     1      -0.078  11.565  19.510  0.00  0.00    +0.000 A 
ATOM     28  N   UNL     1      -0.231  11.523  20.896  0.00  0.00    +0.000 N 
ENDBRANCH  19  20
ENDBRANCH  18  19
ENDBRANCH   3  18
TORSDOF 6
ENDMDL
MODEL 5
REMARK VINA RESULT:      -8.0      1.463      1.951
REMARK  Name = 
REMARK  6 active torsions:
REMARK  status: ('A' for Active; 'I' for Inactive)
REMARK    1  A    between atoms: C_2  and  C_15
REMARK    2  A    between atoms: N_3  and  C_4
REMARK    3  A    between atoms: C_4  and  C_5
REMARK    4  A    between atoms: C_5  and  C_6
REMARK    5  A    between atoms: C_20  and  O_21
REMARK    6  A    between atoms: O_21  and  C_22
REMARK                            x       y       z     vdW  Elec       q    Type
REMARK                         _______ _______ _______ _____ _____    ______ ____
ROOT
ATOM      1  O   UNL     1       2.138   7.642  20.416  0.00  0.00    +0.000 OA
ATOM      2  C   UNL     1       2.315   7.046  19.358  0.00  0.00    +0.000 C 
ATOM      3  N   UNL     1       2.394   7.690  18.148  0.00  0.00    +0.000 N 
ATOM      4  H   UNL     1       2.628   7.177  17.303  0.00  0.00    +0.000 HD
ENDROOT
BRANCH   2   5
ATOM      5  C   UNL     1       2.369   5.563  19.353  0.00  0.00    +0.000 A 
ATOM      6  C   UNL     1       1.561   4.891  20.283  0.00  0.00    +0.000 A 
ATOM      7  C   UNL     1       1.515   3.500  20.297  0.00  0.00    +0.000 A 
ATOM      8  C   UNL     1       2.313   2.817  19.402  0.00  0.00    +0.000 A 
ATOM      9  N   UNL     1       3.128   3.426  18.518  0.00  0.00    +0.000 NA
ATOM     10  C   UNL     1       3.124   4.787  18.481  0.00  0.00    +0.000 A 
BRANCH  10  11
ATOM     11  O   UNL     1       3.939   5.418  17.542  0.00  0.00    +0.000 OA
BRANCH  11  12
ATOM     12  C   UNL     1       5.230   5.727  17.918  0.00  0.00    +0.000 A 
ATOM     13  C   UNL     1       5.861   5.143  19.021  0.00  0.00    +0.000 A 
ATOM     14  C   UNL     1       7.158   5.522  19.371  0.00  0.00    +0.000 A 
ATOM     15  C   UNL     1       7.846   6.449  18.591  0.00  0.00    +0.000 A 
ATOM     16  C   UNL     1       7.242   6.989  17.455  0.00  0.00    +0.000 A 
ATOM     17  C   UNL     1       5.936   6.624  17.113  0.00  0.00    +0.000 A 
ENDBRANCH  11  12
ENDBRANCH  10  11
ENDBRANCH   2   5
BRANCH   3  18
ATOM     18  C   UNL     1       2.153   9.118  18.023  0.00  0.00    +0.000 C 
BRANCH  18  19
ATOM     19  C   UNL     1       0.677   9.466  17.846  0.00  0.00    +0.000 C 
BRANCH  19  20
ATOM     20  C   UNL     1       0.194  10.353  18.939  0.00  0.00    +0.000 A 
ATOM     21  N   UNL     1       0.897  10.729  19.991  0.00  0.00    +0.000 NA
ATOM     22  N   UNL     1       0.120  11.565  20.756  0.00  0.00    +0.000 NA
ATOM     23  C   UNL     1      -1.044  11.689  20.158  0.00  0.00    +0.000 A 
ATOM     24  C   UNL     1      -2.209  12.441  20.467  0.00  0.00    +0.000 A 
ATOM     25  C   UNL     1      -3.282  12.369  19.654  0.00  0.00    +0.000 A 
ATOM     26  C   UNL     1      -3.279  11.524  18.469  0.00  0.00    +0.000 A 
ATOM     27  C   UNL     1      -2.175  10.820  18.169  0.00  0.00    +0.000 A 
ATOM     28  N   UNL     1      -1.062  10.914  19.005  0.00  0.00    +0.000 N 
ENDBRANCH  19  20
ENDBRANCH  18  19
ENDBRANCH   3  18
TORSDOF 6
ENDMDL
MODEL 6
REMARK VINA RESULT:      -8.0      1.937      2.825
REMARK  Name = 
REMARK  6 active torsions:
REMARK  status: ('A' for Active; 'I' for Inactive)
REMARK    1  A    between atoms: C_2  and  C_15
REMARK    2  A    between atoms: N_3  and  C_4
REMARK    3  A    between atoms: C_4  and  C_5
REMARK    4  A    between atoms: C_5  and  C_6
REMARK    5  A    between atoms: C_20  and  O_21
REMARK    6  A    between atoms: O_21  and  C_22
REMARK                            x       y       z     vdW  Elec       q    Type
REMARK                         _______ _______ _______ _____ _____    ______ ____
ROOT
ATOM      1  O   UNL     1       2.490   7.166  19.081  0.00  0.00    +0.000 OA
ATOM      2  C   UNL     1       2.124   6.380  19.950  0.00  0.00    +0.000 C 
ATOM      3  N   UNL     1       1.601   6.793  21.150  0.00  0.00    +0.000 N 
ATOM      4  H   UNL     1       1.227   6.118  21.811  0.00  0.00    +0.000 HD
ENDROOT
BRANCH   2   5
ATOM      5  C   UNL     1       2.320   4.923  19.749  0.00  0.00    +0.000 A 
ATOM      6  C   UNL     1       1.187   4.104  19.871  0.00  0.00    +0.000 A 
ATOM      7  C   UNL     1       1.282   2.736  19.638  0.00  0.00    +0.000 A 
ATOM      8  C   UNL     1       2.522   2.216  19.327  0.00  0.00    +0.000 A 
ATOM      9  N   UNL     1       3.639   2.965  19.235  0.00  0.00    +0.000 NA
ATOM     10  C   UNL     1       3.521   4.309  19.414  0.00  0.00    +0.000 A 
BRANCH  10  11
ATOM     11  O   UNL     1       4.669   5.090  19.283  0.00  0.00    +0.000 OA
BRANCH  11  12
ATOM     12  C   UNL     1       5.322   5.072  18.068  0.00  0.00    +0.000 A 
ATOM     13  C   UNL     1       4.731   5.517  16.881  0.00  0.00    +0.000 A 
ATOM     14  C   UNL     1       5.432   5.443  15.676  0.00  0.00    +0.000 A 
ATOM     15  C   UNL     1       6.742   4.970  15.661  0.00  0.00    +0.000 A 
ATOM     16  C   UNL     1       7.356   4.581  16.853  0.00  0.00    +0.000 A 
ATOM     17  C   UNL     1       6.649   4.638  18.058  0.00  0.00    +0.000 A 
ENDBRANCH  11  12
ENDBRANCH  10  11
ENDBRANCH   2   5
BRANCH   3  18
ATOM     18  C   UNL     1       1.554   8.197  21.524  0.00  0.00    +0.000 C 
BRANCH  18  19
ATOM     19  C   UNL     1       0.193   8.842  21.270  0.00  0.00    +0.000 C 
BRANCH  19  20
ATOM     20  C   UNL     1       0.326  10.299  20.998  0.00  0.00    +0.000 A 
ATOM     21  N   UNL     1       1.027  11.155  21.719  0.00  0.00    +0.000 NA
ATOM     22  N   UNL     1       0.928  12.396  21.136  0.00  0.00    +0.000 NA
ATOM     23  C   UNL     1       0.174  12.278  20.067  0.00  0.00    +0.000 A 
ATOM     24  C   UNL     1      -0.239  13.205  19.074  0.00  0.00    +0.000 A 
ATOM     25  C   UNL     1      -1.038  12.793  18.070  0.00  0.00    +0.000 A 
ATOM     26  C   UNL     1      -1.500  11.416  17.986  0.00  0.00    +0.000 A 
ATOM     27  C   UNL     1      -1.103  10.533  18.918  0.00  0.00    +0.000 A 
ATOM     28  N   UNL     1      -0.261  10.963  19.944  0.00  0.00    +0.000 N 
ENDBRANCH  19  20
ENDBRANCH  18  19
ENDBRANCH   3  18
TORSDOF 6
ENDMDL
MODEL 7
REMARK VINA RESULT:      -8.0      2.037      2.860
REMARK  Name = 
REMARK  6 active torsions:
REMARK  status: ('A' for Active; 'I' for Inactive)
REMARK    1  A    between atoms: C_2  and  C_15
REMARK    2  A    between atoms: N_3  and  C_4
REMARK    3  A    between atoms: C_4  and  C_5
REMARK    4  A    between atoms: C_5  and  C_6
REMARK    5  A    between atoms: C_20  and  O_21
REMARK    6  A    between atoms: O_21  and  C_22
REMARK                            x       y       z     vdW  Elec       q    Type
REMARK                         _______ _______ _______ _____ _____    ______ ____
ROOT
ATOM      1  O   UNL     1       2.603   7.203  18.954  0.00  0.00    +0.000 OA
ATOM      2  C   UNL     1       2.142   6.599  19.918  0.00  0.00    +0.000 C 
ATOM      3  N   UNL     1       1.601   7.241  21.004  0.00  0.00    +0.000 N 
ATOM      4  H   UNL     1       1.149   6.712  21.745  0.00  0.00    +0.000 HD
ENDROOT
BRANCH   2   5
ATOM      5  C   UNL     1       2.233   5.119  19.968  0.00  0.00    +0.000 A 
ATOM      6  C   UNL     1       1.048   4.415  20.226  0.00  0.00    +0.000 A 
ATOM      7  C   UNL     1       1.045   3.023  20.230  0.00  0.00    +0.000 A 
ATOM      8  C   UNL     1       2.242   2.373  20.012  0.00  0.00    +0.000 A 
ATOM      9  N   UNL     1       3.408   3.015  19.795  0.00  0.00    +0.000 NA
ATOM     10  C   UNL     1       3.385   4.374  19.744  0.00  0.00    +0.000 A 
BRANCH  10  11
ATOM     11  O   UNL     1       4.583   5.038  19.483  0.00  0.00    +0.000 OA
BRANCH  11  12
ATOM     12  C   UNL     1       5.188   4.817  18.263  0.00  0.00    +0.000 A 
ATOM     13  C   UNL     1       4.468   4.663  17.074  0.00  0.00    +0.000 A 
ATOM     14  C   UNL     1       5.135   4.407  15.875  0.00  0.00    +0.000 A 
ATOM     15  C   UNL     1       6.527   4.354  15.852  0.00  0.00    +0.000 A 
ATOM     16  C   UNL     1       7.252   4.568  17.026  0.00  0.00    +0.000 A 
ATOM     17  C   UNL     1       6.584   4.806  18.231  0.00  0.00    +0.000 A 
ENDBRANCH  11  12
ENDBRANCH  10  11
ENDBRANCH   2   5
BRANCH   3  18
ATOM     18  C   UNL     1       1.646   8.687  21.142  0.00  0.00    +0.000 C 
BRANCH  18  19
ATOM     19  C   UNL     1       0.440   9.388  20.521  0.00  0.00    +0.000 C 
BRANCH  19  20
ATOM     20  C   UNL     1      -0.198  10.325  21.486  0.00  0.00    +0.000 A 
ATOM     21  N   UNL     1       0.012  10.347  22.790  0.00  0.00    +0.000 NA
ATOM     22  N   UNL     1      -0.734  11.367  23.331  0.00  0.00    +0.000 NA
ATOM     23  C   UNL     1      -1.384  11.953  22.351  0.00  0.00    +0.000 A 
ATOM     24  C   UNL     1      -2.265  13.067  22.311  0.00  0.00    +0.000 A 
ATOM     25  C   UNL     1      -2.800  13.449  21.135  0.00  0.00    +0.000 A 
ATOM     26  C   UNL     1      -2.505  12.738  19.901  0.00  0.00    +0.000 A 
ATOM     27  C   UNL     1      -1.664  11.690  19.934  0.00  0.00    +0.000 A 
ATOM     28  N   UNL     1      -1.100  11.311  21.152  0.00  0.00    +0.000 N 
ENDBRANCH  19  20
ENDBRANCH  18  19
ENDBRANCH   3  18
TORSDOF 6
ENDMDL
MODEL 8
REMARK VINA RESULT:      -8.0      1.573      3.971
REMARK  Name = 
REMARK  6 active torsions:
REMARK  status: ('A' for Active; 'I' for Inactive)
REMARK    1  A    between atoms: C_2  and  C_15
REMARK    2  A    between atoms: N_3  and  C_4
REMARK    3  A    between atoms: C_4  and  C_5
REMARK    4  A    between atoms: C_5  and  C_6
REMARK    5  A    between atoms: C_20  and  O_21
REMARK    6  A    between atoms: O_21  and  C_22
REMARK                            x       y       z     vdW  Elec       q    Type
REMARK                         _______ _______ _______ _____ _____    ______ ____
ROOT
ATOM      1  O   UNL     1       2.202   6.051  17.496  0.00  0.00    +0.000 OA
ATOM      2  C   UNL     1       3.110   6.793  17.860  0.00  0.00    +0.000 C 
ATOM      3  N   UNL     1       2.936   8.143  18.041  0.00  0.00    +0.000 N 
ATOM      4  H   UNL     1       3.684   8.713  18.427  0.00  0.00    +0.000 HD
ENDROOT
BRANCH   2   5
ATOM      5  C   UNL     1       4.477   6.244  18.040  0.00  0.00    +0.000 A 
ATOM      6  C   UNL     1       5.431   6.575  17.065  0.00  0.00    +0.000 A 
ATOM      7  C   UNL     1       6.748   6.145  17.199  0.00  0.00    +0.000 A 
ATOM      8  C   UNL     1       7.066   5.361  18.289  0.00  0.00    +0.000 A 
ATOM      9  N   UNL     1       6.169   4.994  19.227  0.00  0.00    +0.000 NA
ATOM     10  C   UNL     1       4.897   5.464  19.110  0.00  0.00    +0.000 A 
BRANCH  10  11
ATOM     11  O   UNL     1       3.978   5.115  20.099  0.00  0.00    +0.000 OA
BRANCH  11  12
ATOM     12  C   UNL     1       3.083   4.105  19.815  0.00  0.00    +0.000 A 
ATOM     13  C   UNL     1       1.761   4.111  20.270  0.00  0.00    +0.000 A 
ATOM     14  C   UNL     1       0.911   3.042  19.978  0.00  0.00    +0.000 A 
ATOM     15  C   UNL     1       1.367   1.988  19.189  0.00  0.00    +0.000 A 
ATOM     16  C   UNL     1       2.667   2.008  18.683  0.00  0.00    +0.000 A 
ATOM     17  C   UNL     1       3.525   3.069  18.990  0.00  0.00    +0.000 A 
ENDBRANCH  11  12
ENDBRANCH  10  11
ENDBRANCH   2   5
BRANCH   3  18
ATOM     18  C   UNL     1       1.691   8.809  17.699  0.00  0.00    +0.000 C 
BRANCH  18  19
ATOM     19  C   UNL     1       1.371   9.993  18.609  0.00  0.00    +0.000 C 
BRANCH  19  20
ATOM     20  C   UNL     1       0.999   9.540  19.977  0.00  0.00    +0.000 A 
ATOM     21  N   UNL     1       1.396   8.419  20.551  0.00  0.00    +0.000 NA
ATOM     22  N   UNL     1       0.868   8.370  21.818  0.00  0.00    +0.000 NA
ATOM     23  C   UNL     1       0.161   9.462  22.000  0.00  0.00    +0.000 A 
ATOM     24  C   UNL     1      -0.573   9.960  23.111  0.00  0.00    +0.000 A 
ATOM     25  C   UNL     1      -1.221  11.137  23.006  0.00  0.00    +0.000 A 
ATOM     26  C   UNL     1      -1.197  11.908  21.773  0.00  0.00    +0.000 A 
ATOM     27  C   UNL     1      -0.495  11.445  20.724  0.00  0.00    +0.000 A 
ATOM     28  N   UNL     1       0.187  10.235  20.846  0.00  0.00    +0.000 N 
ENDBRANCH  19  20
ENDBRANCH  18  19
ENDBRANCH   3  18
TORSDOF 6
ENDMDL
MODEL 9
REMARK VINA RESULT:      -8.0      4.660      7.983
REMARK  Name = 
REMARK  6 active torsions:
REMARK  status: ('A' for Active; 'I' for Inactive)
REMARK    1  A    between atoms: C_2  and  C_15
REMARK    2  A    between atoms: N_3  and  C_4
REMARK    3  A    between atoms: C_4  and  C_5
REMARK    4  A    between atoms: C_5  and  C_6
REMARK    5  A    between atoms: C_20  and  O_21
REMARK    6  A    between atoms: O_21  and  C_22
REMARK                            x       y       z     vdW  Elec       q    Type
REMARK                         _______ _______ _______ _____ _____    ______ ____
ROOT
ATOM      1  O   UNL     1       7.917   5.758  19.350  0.00  0.00    +0.000 OA
ATOM      2  C   UNL     1       7.499   6.247  18.305  0.00  0.00    +0.000 C 
ATOM      3  N   UNL     1       7.829   7.515  17.895  0.00  0.00    +0.000 N 
ATOM      4  H   UNL     1       7.537   7.856  16.983  0.00  0.00    +0.000 HD
ENDROOT
BRANCH   2   5
ATOM      5  C   UNL     1       6.534   5.484  17.474  0.00  0.00    +0.000 A 
ATOM      6  C   UNL     1       6.788   5.421  16.096  0.00  0.00    +0.000 A 
ATOM      7  C   UNL     1       5.960   4.675  15.263  0.00  0.00    +0.000 A 
ATOM      8  C   UNL     1       4.873   4.042  15.829  0.00  0.00    +0.000 A 
ATOM      9  N   UNL     1       4.576   4.108  17.143  0.00  0.00    +0.000 NA
ATOM     10  C   UNL     1       5.424   4.799  17.953  0.00  0.00    +0.000 A 
BRANCH  10  11
ATOM     11  O   UNL     1       5.138   4.837  19.317  0.00  0.00    +0.000 OA
BRANCH  11  12
ATOM     12  C   UNL     1       3.856   4.515  19.714  0.00  0.00    +0.000 A 
ATOM     13  C   UNL     1       2.838   5.465  19.839  0.00  0.00    +0.000 A 
ATOM     14  C   UNL     1       1.569   5.082  20.278  0.00  0.00    +0.000 A 
ATOM     15  C   UNL     1       1.301   3.741  20.545  0.00  0.00    +0.000 A 
ATOM     16  C   UNL     1       2.298   2.781  20.363  0.00  0.00    +0.000 A 
ATOM     17  C   UNL     1       3.575   3.166  19.941  0.00  0.00    +0.000 A 
ENDBRANCH  11  12
ENDBRANCH  10  11
ENDBRANCH   2   5
BRANCH   3  18
ATOM     18  C   UNL     1       8.604   8.414  18.733  0.00  0.00    +0.000 C 
BRANCH  18  19
ATOM     19  C   UNL     1       8.649   9.844  18.199  0.00  0.00    +0.000 C 
BRANCH  19  20
ATOM     20  C   UNL     1       9.400  10.742  19.119  0.00  0.00    +0.000 A 
ATOM     21  N   UNL     1       9.270  10.782  20.432  0.00  0.00    +0.000 NA
ATOM     22  N   UNL     1      10.149  11.714  20.927  0.00  0.00    +0.000 NA
ATOM     23  C   UNL     1      10.805  12.226  19.910  0.00  0.00    +0.000 A 
ATOM     24  C   UNL     1      11.843  13.193  19.823  0.00  0.00    +0.000 A 
ATOM     25  C   UNL     1      12.333  13.536  18.615  0.00  0.00    +0.000 A 
ATOM     26  C   UNL     1      11.812  12.946  17.392  0.00  0.00    +0.000 A 
ATOM     27  C   UNL     1      10.838  12.024  17.471  0.00  0.00    +0.000 A 
ATOM     28  N   UNL     1      10.349  11.661  18.726  0.00  0.00    +0.000 N 
ENDBRANCH  19  20
ENDBRANCH  18  19
ENDBRANCH   3  18
TORSDOF 6
ENDMDL
