MODEL 1
REMARK VINA RESULT:      -9.2      0.000      0.000
REMARK  Name = 
REMARK  8 active torsions:
REMARK  status: ('A' for Active; 'I' for Inactive)
REMARK    1  A    between atoms: C_1  and  N_2
REMARK    2  A    between atoms: C_6  and  C_7
REMARK    3  A    between atoms: C_7  and  C_8
REMARK    4  A    between atoms: C_8  and  C_9
REMARK    5  A    between atoms: C_13  and  N_14
REMARK    6  A    between atoms: C_15  and  C_17
REMARK    7  A    between atoms: C_19  and  C_20
REMARK    8  A    between atoms: C_23  and  C_24
REMARK                            x       y       z     vdW  Elec       q    Type
REMARK                         _______ _______ _______ _____ _____    ______ ____
ROOT
ATOM      1  C   UNL     1       4.564   5.015  17.259  0.00  0.00    +0.000 A 
ATOM      2  C   UNL     1       3.717   3.900  17.080  0.00  0.00    +0.000 A 
ATOM      3  C   UNL     1       2.386   3.913  17.491  0.00  0.00    +0.000 A 
ATOM      4  C   UNL     1       1.863   5.043  18.112  0.00  0.00    +0.000 A 
ATOM      5  C   UNL     1       2.662   6.164  18.319  0.00  0.00    +0.000 A 
ATOM      6  C   UNL     1       3.987   6.152  17.860  0.00  0.00    +0.000 A 
ENDROOT
BRANCH   1   7
ATOM      7  C   UNL     1       6.108   4.969  16.815  0.00  0.00    +0.000 C 
ATOM      8  C   UNL     1       6.879   6.317  16.732  0.00  0.00    +0.000 C 
ATOM      9  O   UNL     1       7.816   5.918  17.754  0.00  0.00    +0.000 OA
ATOM     10  C   UNL     1       7.119   4.676  17.963  0.00  0.00    +0.000 C 
BRANCH   7  11
ATOM     11  C   UNL     1       6.300   4.011  15.627  0.00  0.00    +0.000 C 
BRANCH  11  17
ATOM     12  C   UNL     1       5.728   3.363  12.554  0.00  0.00    +0.000 C 
ATOM     13  N   UNL     1       6.685   4.287  13.101  0.00  0.00    +0.000 N 
ATOM     14  C   UNL     1       7.578   5.003  12.358  0.00  0.00    +0.000 A 
ATOM     15  N   UNL     1       8.296   5.762  13.149  0.00  0.00    +0.000 NA
ATOM     16  N   UNL     1       7.880   5.529  14.436  0.00  0.00    +0.000 NA
ATOM     17  C   UNL     1       6.924   4.622  14.412  0.00  0.00    +0.000 A 
ENDBRANCH  11  17
ENDBRANCH   7  11
ENDBRANCH   1   7
BRANCH   5  18
ATOM     18  N   UNL     1       2.226   7.309  19.007  0.00  0.00    +0.000 N 
ATOM     19  C   UNL     1       1.892   8.530  18.450  0.00  0.00    +0.000 C 
ATOM     20  O   UNL     1       1.984   8.857  17.273  0.00  0.00    +0.000 OA
ATOM     21  H   UNL     1       1.996   7.219  19.993  0.00  0.00    +0.000 HD
BRANCH  19  22
ATOM     22  C   UNL     1       1.315   9.495  19.438  0.00  0.00    +0.000 A 
ATOM     23  C   UNL     1       0.861   9.024  20.661  0.00  0.00    +0.000 A 
ATOM     24  C   UNL     1       0.368   9.941  21.587  0.00  0.00    +0.000 A 
ATOM     25  C   UNL     1       0.346  11.296  21.235  0.00  0.00    +0.000 A 
ATOM     26  C   UNL     1       0.820  11.696  19.982  0.00  0.00    +0.000 A 
ATOM     27  N   UNL     1       1.309  10.808  19.072  0.00  0.00    +0.000 NA
BRANCH  26  28
ATOM     28  C   UNL     1       0.812  13.168  19.625  0.00  0.00    +0.000 C 
ATOM     29  F   UNL     1       0.786  13.383  18.278  0.00  0.00    +0.000 F 
ATOM     30  F   UNL     1      -0.275  13.821  20.125  0.00  0.00    +0.000 F 
ENDBRANCH  26  28
BRANCH  24  31
ATOM     31  C   UNL     1      -0.104   9.471  22.934  0.00  0.00    +0.000 C 
ATOM     32  F   UNL     1      -1.172  10.173  23.403  0.00  0.00    +0.000 F 
ENDBRANCH  24  31
ENDBRANCH  19  22
ENDBRANCH   5  18
TORSDOF 7
ENDMDL
MODEL 2
REMARK VINA RESULT:      -9.0      0.940      1.062
REMARK  Name = 
REMARK  8 active torsions:
REMARK  status: ('A' for Active; 'I' for Inactive)
REMARK    1  A    between atoms: C_1  and  N_2
REMARK    2  A    between atoms: C_6  and  C_7
REMARK    3  A    between atoms: C_7  and  C_8
REMARK    4  A    between atoms: C_8  and  C_9
REMARK    5  A    between atoms: C_13  and  N_14
REMARK    6  A    between atoms: C_15  and  C_17
REMARK    7  A    between atoms: C_19  and  C_20
REMARK    8  A    between atoms: C_23  and  C_24
REMARK                            x       y       z     vdW  Elec       q    Type
REMARK                         _______ _______ _______ _____ _____    ______ ____
ROOT
ATOM      1  C   UNL     1       4.906   5.270  17.480  0.00  0.00    +0.000 A 
ATOM      2  C   UNL     1       4.247   4.059  17.173  0.00  0.00    +0.000 A 
ATOM      3  C   UNL     1       2.879   3.894  17.376  0.00  0.00    +0.000 A 
ATOM      4  C   UNL     1       2.126   4.934  17.910  0.00  0.00    +0.000 A 
ATOM      5  C   UNL     1       2.732   6.144  18.237  0.00  0.00    +0.000 A 
ATOM      6  C   UNL     1       4.101   6.311  17.985  0.00  0.00    +0.000 A 
ENDROOT
BRANCH   1   7
ATOM      7  C   UNL     1       6.491   5.432  17.277  0.00  0.00    +0.000 C 
ATOM      8  C   UNL     1       7.056   6.868  17.080  0.00  0.00    +0.000 C 
ATOM      9  O   UNL     1       7.855   6.787  18.279  0.00  0.00    +0.000 OA
ATOM     10  C   UNL     1       7.326   5.485  18.591  0.00  0.00    +0.000 C 
BRANCH   7  11
ATOM     11  C   UNL     1       7.024   4.363  16.306  0.00  0.00    +0.000 C 
BRANCH  11  17
ATOM     12  C   UNL     1       5.430   3.626  13.640  0.00  0.00    +0.000 C 
ATOM     13  N   UNL     1       6.590   4.466  13.775  0.00  0.00    +0.000 N 
ATOM     14  C   UNL     1       7.252   5.041  12.730  0.00  0.00    +0.000 A 
ATOM     15  N   UNL     1       8.252   5.755  13.185  0.00  0.00    +0.000 NA
ATOM     16  N   UNL     1       8.258   5.635  14.552  0.00  0.00    +0.000 NA
ATOM     17  C   UNL     1       7.270   4.839  14.910  0.00  0.00    +0.000 A 
ENDBRANCH  11  17
ENDBRANCH   7  11
ENDBRANCH   1   7
BRANCH   5  18
ATOM     18  N   UNL     1       2.052   7.210  18.850  0.00  0.00    +0.000 N 
ATOM     19  C   UNL     1       1.900   8.490  18.349  0.00  0.00    +0.000 C 
ATOM     20  O   UNL     1       2.387   8.946  17.321  0.00  0.00    +0.000 OA
ATOM     21  H   UNL     1       1.495   7.012  19.677  0.00  0.00    +0.000 HD
BRANCH  19  22
ATOM     22  C   UNL     1       0.988   9.345  19.172  0.00  0.00    +0.000 A 
ATOM     23  C   UNL     1       0.895   9.120  20.538  0.00  0.00    +0.000 A 
ATOM     24  C   UNL     1       0.076   9.954  21.297  0.00  0.00    +0.000 A 
ATOM     25  C   UNL     1      -0.623  10.974  20.642  0.00  0.00    +0.000 A 
ATOM     26  C   UNL     1      -0.481  11.139  19.261  0.00  0.00    +0.000 A 
ATOM     27  N   UNL     1       0.321  10.334  18.511  0.00  0.00    +0.000 NA
BRANCH  26  28
ATOM     28  C   UNL     1      -1.226  12.264  18.571  0.00  0.00    +0.000 C 
ATOM     29  F   UNL     1      -2.198  12.811  19.356  0.00  0.00    +0.000 F 
ATOM     30  F   UNL     1      -0.406  13.297  18.224  0.00  0.00    +0.000 F 
ENDBRANCH  26  28
BRANCH  24  31
ATOM     31  C   UNL     1      -0.025   9.759  22.783  0.00  0.00    +0.000 C 
ATOM     32  F   UNL     1      -0.764  10.721  23.401  0.00  0.00    +0.000 F 
ENDBRANCH  24  31
ENDBRANCH  19  22
ENDBRANCH   5  18
TORSDOF 7
ENDMDL
MODEL 3
REMARK VINA RESULT:      -8.9      0.847      2.395
REMARK  Name = 
REMARK  8 active torsions:
REMARK  status: ('A' for Active; 'I' for Inactive)
REMARK    1  A    between atoms: C_1  and  N_2
REMARK    2  A    between atoms: C_6  and  C_7
REMARK    3  A    between atoms: C_7  and  C_8
REMARK    4  A    between atoms: C_8  and  C_9
REMARK    5  A    between atoms: C_13  and  N_14
REMARK    6  A    between atoms: C_15  and  C_17
REMARK    7  A    between atoms: C_19  and  C_20
REMARK    8  A    between atoms: C_23  and  C_24
REMARK                            x       y       z     vdW  Elec       q    Type
REMARK                         _______ _______ _______ _____ _____    ______ ____
ROOT
ATOM      1  C   UNL     1       4.518   4.939  17.279  0.00  0.00    +0.000 A 
ATOM      2  C   UNL     1       3.729   3.771  17.189  0.00  0.00    +0.000 A 
ATOM      3  C   UNL     1       2.393   3.754  17.583  0.00  0.00    +0.000 A 
ATOM      4  C   UNL     1       1.805   4.905  18.095  0.00  0.00    +0.000 A 
ATOM      5  C   UNL     1       2.546   6.079  18.211  0.00  0.00    +0.000 A 
ATOM      6  C   UNL     1       3.876   6.094  17.770  0.00  0.00    +0.000 A 
ENDROOT
BRANCH   1   7
ATOM      7  C   UNL     1       6.069   4.932  16.858  0.00  0.00    +0.000 C 
ATOM      8  C   UNL     1       6.807   6.300  16.786  0.00  0.00    +0.000 C 
ATOM      9  O   UNL     1       7.739   5.924  17.822  0.00  0.00    +0.000 OA
ATOM     10  C   UNL     1       7.070   4.664  18.021  0.00  0.00    +0.000 C 
BRANCH   7  11
ATOM     11  C   UNL     1       6.303   3.980  15.673  0.00  0.00    +0.000 C 
BRANCH  11  17
ATOM     12  C   UNL     1       5.692   3.382  12.597  0.00  0.00    +0.000 C 
ATOM     13  N   UNL     1       6.656   4.297  13.147  0.00  0.00    +0.000 N 
ATOM     14  C   UNL     1       7.539   5.026  12.405  0.00  0.00    +0.000 A 
ATOM     15  N   UNL     1       8.266   5.772  13.199  0.00  0.00    +0.000 NA
ATOM     16  N   UNL     1       7.868   5.518  14.487  0.00  0.00    +0.000 NA
ATOM     17  C   UNL     1       6.911   4.611  14.461  0.00  0.00    +0.000 A 
ENDBRANCH  11  17
ENDBRANCH   7  11
ENDBRANCH   1   7
BRANCH   5  18
ATOM     18  N   UNL     1       2.043   7.257  18.790  0.00  0.00    +0.000 N 
ATOM     19  C   UNL     1       1.941   8.497  18.185  0.00  0.00    +0.000 C 
ATOM     20  O   UNL     1       2.333   8.810  17.068  0.00  0.00    +0.000 OA
ATOM     21  H   UNL     1       1.579   7.189  19.692  0.00  0.00    +0.000 HD
BRANCH  19  22
ATOM     22  C   UNL     1       1.217   9.506  19.019  0.00  0.00    +0.000 A 
ATOM     23  C   UNL     1       0.672  10.627  18.409  0.00  0.00    +0.000 A 
ATOM     24  C   UNL     1      -0.037  11.535  19.193  0.00  0.00    +0.000 A 
ATOM     25  C   UNL     1      -0.159  11.277  20.563  0.00  0.00    +0.000 A 
ATOM     26  C   UNL     1       0.418  10.126  21.108  0.00  0.00    +0.000 A 
ATOM     27  N   UNL     1       1.109   9.230  20.350  0.00  0.00    +0.000 NA
BRANCH  26  28
ATOM     28  C   UNL     1       0.256   9.849  22.589  0.00  0.00    +0.000 C 
ATOM     29  F   UNL     1      -1.047   9.670  22.952  0.00  0.00    +0.000 F 
ATOM     30  F   UNL     1       0.909   8.718  22.983  0.00  0.00    +0.000 F 
ENDBRANCH  26  28
BRANCH  24  31
ATOM     31  C   UNL     1      -0.666  12.744  18.560  0.00  0.00    +0.000 C 
ATOM     32  F   UNL     1      -1.163  13.627  19.469  0.00  0.00    +0.000 F 
ENDBRANCH  24  31
ENDBRANCH  19  22
ENDBRANCH   5  18
TORSDOF 7
ENDMDL
MODEL 4
REMARK VINA RESULT:      -8.8      1.234      1.271
REMARK  Name = 
REMARK  8 active torsions:
REMARK  status: ('A' for Active; 'I' for Inactive)
REMARK    1  A    between atoms: C_1  and  N_2
REMARK    2  A    between atoms: C_6  and  C_7
REMARK    3  A    between atoms: C_7  and  C_8
REMARK    4  A    between atoms: C_8  and  C_9
REMARK    5  A    between atoms: C_13  and  N_14
REMARK    6  A    between atoms: C_15  and  C_17
REMARK    7  A    between atoms: C_19  and  C_20
REMARK    8  A    between atoms: C_23  and  C_24
REMARK                            x       y       z     vdW  Elec       q    Type
REMARK                         _______ _______ _______ _____ _____    ______ ____
ROOT
ATOM      1  C   UNL     1       4.617   4.685  17.107  0.00  0.00    +0.000 A 
ATOM      2  C   UNL     1       3.912   3.472  16.947  0.00  0.00    +0.000 A 
ATOM      3  C   UNL     1       2.578   3.341  17.325  0.00  0.00    +0.000 A 
ATOM      4  C   UNL     1       1.908   4.420  17.893  0.00  0.00    +0.000 A 
ATOM      5  C   UNL     1       2.564   5.634  18.080  0.00  0.00    +0.000 A 
ATOM      6  C   UNL     1       3.893   5.764  17.653  0.00  0.00    +0.000 A 
ENDROOT
BRANCH   1   7
ATOM      7  C   UNL     1       6.167   4.809  16.702  0.00  0.00    +0.000 C 
ATOM      8  C   UNL     1       6.791   6.232  16.644  0.00  0.00    +0.000 C 
ATOM      9  O   UNL     1       7.740   5.927  17.688  0.00  0.00    +0.000 OA
ATOM     10  C   UNL     1       7.176   4.616  17.873  0.00  0.00    +0.000 C 
BRANCH   7  11
ATOM     11  C   UNL     1       6.490   3.887  15.513  0.00  0.00    +0.000 C 
BRANCH  11  17
ATOM     12  C   UNL     1       5.844   3.328  12.437  0.00  0.00    +0.000 C 
ATOM     13  N   UNL     1       6.771   4.279  12.989  0.00  0.00    +0.000 N 
ATOM     14  C   UNL     1       7.599   5.070  12.246  0.00  0.00    +0.000 A 
ATOM     15  N   UNL     1       8.305   5.834  13.043  0.00  0.00    +0.000 NA
ATOM     16  N   UNL     1       7.947   5.530  14.333  0.00  0.00    +0.000 NA
ATOM     17  C   UNL     1       7.038   4.576  14.304  0.00  0.00    +0.000 A 
ENDBRANCH  11  17
ENDBRANCH   7  11
ENDBRANCH   1   7
BRANCH   5  18
ATOM     18  N   UNL     1       1.978   6.741  18.716  0.00  0.00    +0.000 N 
ATOM     19  C   UNL     1       1.757   6.893  20.073  0.00  0.00    +0.000 C 
ATOM     20  O   UNL     1       1.965   6.068  20.954  0.00  0.00    +0.000 OA
ATOM     21  H   UNL     1       1.814   7.580  18.166  0.00  0.00    +0.000 HD
BRANCH  19  22
ATOM     22  C   UNL     1       1.258   8.254  20.444  0.00  0.00    +0.000 A 
ATOM     23  C   UNL     1       0.656   8.443  21.680  0.00  0.00    +0.000 A 
ATOM     24  C   UNL     1       0.237   9.726  22.029  0.00  0.00    +0.000 A 
ATOM     25  C   UNL     1       0.436  10.763  21.110  0.00  0.00    +0.000 A 
ATOM     26  C   UNL     1       1.050  10.496  19.882  0.00  0.00    +0.000 A 
ATOM     27  N   UNL     1       1.468   9.247  19.534  0.00  0.00    +0.000 NA
BRANCH  26  28
ATOM     28  C   UNL     1       1.281  11.635  18.909  0.00  0.00    +0.000 C 
ATOM     29  F   UNL     1       0.130  12.057  18.311  0.00  0.00    +0.000 F 
ATOM     30  F   UNL     1       1.812  12.737  19.511  0.00  0.00    +0.000 F 
ENDBRANCH  26  28
BRANCH  24  31
ATOM     31  C   UNL     1      -0.392   9.973  23.371  0.00  0.00    +0.000 C 
ATOM     32  F   UNL     1      -1.426  10.856  23.323  0.00  0.00    +0.000 F 
ENDBRANCH  24  31
ENDBRANCH  19  22
ENDBRANCH   5  18
TORSDOF 7
ENDMDL
MODEL 5
REMARK VINA RESULT:      -8.6      2.066      3.856
REMARK  Name = 
REMARK  8 active torsions:
REMARK  status: ('A' for Active; 'I' for Inactive)
REMARK    1  A    between atoms: C_1  and  N_2
REMARK    2  A    between atoms: C_6  and  C_7
REMARK    3  A    between atoms: C_7  and  C_8
REMARK    4  A    between atoms: C_8  and  C_9
REMARK    5  A    between atoms: C_13  and  N_14
REMARK    6  A    between atoms: C_15  and  C_17
REMARK    7  A    between atoms: C_19  and  C_20
REMARK    8  A    between atoms: C_23  and  C_24
REMARK                            x       y       z     vdW  Elec       q    Type
REMARK                         _______ _______ _______ _____ _____    ______ ____
ROOT
ATOM      1  C   UNL     1       4.257   4.840  16.894  0.00  0.00    +0.000 A 
ATOM      2  C   UNL     1       3.596   3.624  17.178  0.00  0.00    +0.000 A 
ATOM      3  C   UNL     1       2.477   3.571  18.006  0.00  0.00    +0.000 A 
ATOM      4  C   UNL     1       1.990   4.736  18.591  0.00  0.00    +0.000 A 
ATOM      5  C   UNL     1       2.614   5.957  18.347  0.00  0.00    +0.000 A 
ATOM      6  C   UNL     1       3.712   6.002  17.478  0.00  0.00    +0.000 A 
ENDROOT
BRANCH   1   7
ATOM      7  C   UNL     1       5.571   4.879  15.970  0.00  0.00    +0.000 C 
ATOM      8  C   UNL     1       6.311   3.537  15.704  0.00  0.00    +0.000 C 
ATOM      9  O   UNL     1       6.078   3.617  14.282  0.00  0.00    +0.000 OA
ATOM     10  C   UNL     1       5.304   4.821  14.437  0.00  0.00    +0.000 C 
BRANCH   7  11
ATOM     11  C   UNL     1       6.463   6.074  16.350  0.00  0.00    +0.000 C 
BRANCH  11  17
ATOM     12  C   UNL     1       8.047   8.325  17.966  0.00  0.00    +0.000 C 
ATOM     13  N   UNL     1       7.848   6.948  18.330  0.00  0.00    +0.000 N 
ATOM     14  C   UNL     1       8.388   6.356  19.434  0.00  0.00    +0.000 A 
ATOM     15  N   UNL     1       8.006   5.104  19.491  0.00  0.00    +0.000 NA
ATOM     16  N   UNL     1       7.213   4.863  18.397  0.00  0.00    +0.000 NA
ATOM     17  C   UNL     1       7.134   5.968  17.682  0.00  0.00    +0.000 A 
ENDBRANCH  11  17
ENDBRANCH   7  11
ENDBRANCH   1   7
BRANCH   5  18
ATOM     18  N   UNL     1       2.226   7.159  18.963  0.00  0.00    +0.000 N 
ATOM     19  C   UNL     1       2.022   8.378  18.341  0.00  0.00    +0.000 C 
ATOM     20  O   UNL     1       2.210   8.647  17.161  0.00  0.00    +0.000 OA
ATOM     21  H   UNL     1       1.930   7.128  19.935  0.00  0.00    +0.000 HD
BRANCH  19  22
ATOM     22  C   UNL     1       1.462   9.423  19.254  0.00  0.00    +0.000 A 
ATOM     23  C   UNL     1       1.356  10.732  18.803  0.00  0.00    +0.000 A 
ATOM     24  C   UNL     1       0.791  11.684  19.649  0.00  0.00    +0.000 A 
ATOM     25  C   UNL     1       0.365  11.277  20.918  0.00  0.00    +0.000 A 
ATOM     26  C   UNL     1       0.506   9.940  21.303  0.00  0.00    +0.000 A 
ATOM     27  N   UNL     1       1.052   9.001  20.483  0.00  0.00    +0.000 NA
BRANCH  26  28
ATOM     28  C   UNL     1       0.017   9.511  22.672  0.00  0.00    +0.000 C 
ATOM     29  F   UNL     1      -0.559  10.532  23.370  0.00  0.00    +0.000 F 
ATOM     30  F   UNL     1      -0.927   8.530  22.605  0.00  0.00    +0.000 F 
ENDBRANCH  26  28
BRANCH  24  31
ATOM     31  C   UNL     1       0.633  13.104  19.183  0.00  0.00    +0.000 C 
ATOM     32  F   UNL     1       1.260  13.354  18.001  0.00  0.00    +0.000 F 
ENDBRANCH  24  31
ENDBRANCH  19  22
ENDBRANCH   5  18
TORSDOF 7
ENDMDL
MODEL 6
REMARK VINA RESULT:      -8.5      1.213      2.515
REMARK  Name = 
REMARK  8 active torsions:
REMARK  status: ('A' for Active; 'I' for Inactive)
REMARK    1  A    between atoms: C_1  and  N_2
REMARK    2  A    between atoms: C_6  and  C_7
REMARK    3  A    between atoms: C_7  and  C_8
REMARK    4  A    between atoms: C_8  and  C_9
REMARK    5  A    between atoms: C_13  and  N_14
REMARK    6  A    between atoms: C_15  and  C_17
REMARK    7  A    between atoms: C_19  and  C_20
REMARK    8  A    between atoms: C_23  and  C_24
REMARK                            x       y       z     vdW  Elec       q    Type
REMARK                         _______ _______ _______ _____ _____    ______ ____
ROOT
ATOM      1  C   UNL     1       4.554   4.801  17.138  0.00  0.00    +0.000 A 
ATOM      2  C   UNL     1       3.816   3.599  17.074  0.00  0.00    +0.000 A 
ATOM      3  C   UNL     1       2.484   3.530  17.478  0.00  0.00    +0.000 A 
ATOM      4  C   UNL     1       1.851   4.664  17.976  0.00  0.00    +0.000 A 
ATOM      5  C   UNL     1       2.541   5.871  18.067  0.00  0.00    +0.000 A 
ATOM      6  C   UNL     1       3.866   5.935  17.616  0.00  0.00    +0.000 A 
ENDROOT
BRANCH   1   7
ATOM      7  C   UNL     1       6.100   4.854  16.706  0.00  0.00    +0.000 C 
ATOM      8  C   UNL     1       6.792   6.246  16.653  0.00  0.00    +0.000 C 
ATOM      9  O   UNL     1       7.744   5.883  17.675  0.00  0.00    +0.000 OA
ATOM     10  C   UNL     1       7.119   4.599  17.856  0.00  0.00    +0.000 C 
BRANCH   7  11
ATOM     11  C   UNL     1       6.357   3.932  15.501  0.00  0.00    +0.000 C 
BRANCH  11  17
ATOM     12  C   UNL     1       5.842   3.361  12.403  0.00  0.00    +0.000 C 
ATOM     13  N   UNL     1       6.768   4.292  12.990  0.00  0.00    +0.000 N 
ATOM     14  C   UNL     1       7.651   5.053  12.281  0.00  0.00    +0.000 A 
ATOM     15  N   UNL     1       8.339   5.806  13.104  0.00  0.00    +0.000 NA
ATOM     16  N   UNL     1       7.913   5.524  14.378  0.00  0.00    +0.000 NA
ATOM     17  C   UNL     1       6.980   4.594  14.314  0.00  0.00    +0.000 A 
ENDBRANCH  11  17
ENDBRANCH   7  11
ENDBRANCH   1   7
BRANCH   5  18
ATOM     18  N   UNL     1       1.992   7.035  18.630  0.00  0.00    +0.000 N 
ATOM     19  C   UNL     1       1.671   7.239  19.960  0.00  0.00    +0.000 C 
ATOM     20  O   UNL     1       1.739   6.422  20.871  0.00  0.00    +0.000 OA
ATOM     21  H   UNL     1       1.941   7.871  18.052  0.00  0.00    +0.000 HD
BRANCH  19  22
ATOM     22  C   UNL     1       1.252   8.643  20.261  0.00  0.00    +0.000 A 
ATOM     23  C   UNL     1       1.419   9.625  19.295  0.00  0.00    +0.000 A 
ATOM     24  C   UNL     1       0.982  10.918  19.575  0.00  0.00    +0.000 A 
ATOM     25  C   UNL     1       0.402  11.168  20.824  0.00  0.00    +0.000 A 
ATOM     26  C   UNL     1       0.267  10.127  21.749  0.00  0.00    +0.000 A 
ATOM     27  N   UNL     1       0.687   8.859  21.483  0.00  0.00    +0.000 NA
BRANCH  26  28
ATOM     28  C   UNL     1      -0.385  10.409  23.088  0.00  0.00    +0.000 C 
ATOM     29  F   UNL     1      -1.135  11.548  23.078  0.00  0.00    +0.000 F 
ATOM     30  F   UNL     1      -1.230   9.412  23.476  0.00  0.00    +0.000 F 
ENDBRANCH  26  28
BRANCH  24  31
ATOM     31  C   UNL     1       1.120  11.999  18.541  0.00  0.00    +0.000 C 
ATOM     32  F   UNL     1       1.769  13.103  19.002  0.00  0.00    +0.000 F 
ENDBRANCH  24  31
ENDBRANCH  19  22
ENDBRANCH   5  18
TORSDOF 7
ENDMDL
MODEL 7
REMARK VINA RESULT:      -8.3      0.918      1.483
REMARK  Name = 
REMARK  8 active torsions:
REMARK  status: ('A' for Active; 'I' for Inactive)
REMARK    1  A    between atoms: C_1  and  N_2
REMARK    2  A    between atoms: C_6  and  C_7
REMARK    3  A    between atoms: C_7  and  C_8
REMARK    4  A    between atoms: C_8  and  C_9
REMARK    5  A    between atoms: C_13  and  N_14
REMARK    6  A    between atoms: C_15  and  C_17
REMARK    7  A    between atoms: C_19  and  C_20
REMARK    8  A    between atoms: C_23  and  C_24
REMARK                            x       y       z     vdW  Elec       q    Type
REMARK                         _______ _______ _______ _____ _____    ______ ____
ROOT
ATOM      1  C   UNL     1       4.451   5.336  17.161  0.00  0.00    +0.000 A 
ATOM      2  C   UNL     1       3.759   4.115  17.316  0.00  0.00    +0.000 A 
ATOM      3  C   UNL     1       2.547   4.038  17.999  0.00  0.00    +0.000 A 
ATOM      4  C   UNL     1       1.994   5.183  18.564  0.00  0.00    +0.000 A 
ATOM      5  C   UNL     1       2.645   6.409  18.445  0.00  0.00    +0.000 A 
ATOM      6  C   UNL     1       3.841   6.479  17.718  0.00  0.00    +0.000 A 
ENDROOT
BRANCH   1   7
ATOM      7  C   UNL     1       5.868   5.401  16.406  0.00  0.00    +0.000 C 
ATOM      8  C   UNL     1       7.066   6.042  17.164  0.00  0.00    +0.000 C 
ATOM      9  O   UNL     1       7.822   4.813  17.137  0.00  0.00    +0.000 OA
ATOM     10  C   UNL     1       6.734   4.111  16.509  0.00  0.00    +0.000 C 
BRANCH   7  11
ATOM     11  C   UNL     1       5.681   5.849  14.945  0.00  0.00    +0.000 C 
BRANCH  11  17
ATOM     12  C   UNL     1       8.260   5.626  13.076  0.00  0.00    +0.000 C 
ATOM     13  N   UNL     1       7.103   4.771  13.096  0.00  0.00    +0.000 N 
ATOM     14  C   UNL     1       6.896   3.733  12.234  0.00  0.00    +0.000 A 
ATOM     15  N   UNL     1       5.762   3.144  12.524  0.00  0.00    +0.000 NA
ATOM     16  N   UNL     1       5.205   3.815  13.583  0.00  0.00    +0.000 NA
ATOM     17  C   UNL     1       6.001   4.812  13.917  0.00  0.00    +0.000 A 
ENDBRANCH  11  17
ENDBRANCH   7  11
ENDBRANCH   1   7
BRANCH   5  18
ATOM     18  N   UNL     1       2.188   7.590  19.053  0.00  0.00    +0.000 N 
ATOM     19  C   UNL     1       1.857   8.772  18.418  0.00  0.00    +0.000 C 
ATOM     20  O   UNL     1       1.969   9.029  17.225  0.00  0.00    +0.000 OA
ATOM     21  H   UNL     1       1.938   7.557  20.039  0.00  0.00    +0.000 HD
BRANCH  19  22
ATOM     22  C   UNL     1       1.254   9.790  19.334  0.00  0.00    +0.000 A 
ATOM     23  C   UNL     1       0.722   9.381  20.549  0.00  0.00    +0.000 A 
ATOM     24  C   UNL     1       0.205  10.346  21.410  0.00  0.00    +0.000 A 
ATOM     25  C   UNL     1       0.238  11.686  21.004  0.00  0.00    +0.000 A 
ATOM     26  C   UNL     1       0.790  12.023  19.765  0.00  0.00    +0.000 A 
ATOM     27  N   UNL     1       1.302  11.087  18.918  0.00  0.00    +0.000 NA
BRANCH  26  28
ATOM     28  C   UNL     1       0.841  13.480  19.351  0.00  0.00    +0.000 C 
ATOM     29  F   UNL     1       1.135  14.312  20.391  0.00  0.00    +0.000 F 
ATOM     30  F   UNL     1       1.792  13.720  18.404  0.00  0.00    +0.000 F 
ENDBRANCH  26  28
BRANCH  24  31
ATOM     31  C   UNL     1      -0.352   9.942  22.746  0.00  0.00    +0.000 C 
ATOM     32  F   UNL     1       0.502   9.170  23.471  0.00  0.00    +0.000 F 
ENDBRANCH  24  31
ENDBRANCH  19  22
ENDBRANCH   5  18
TORSDOF 7
ENDMDL
MODEL 8
REMARK VINA RESULT:      -8.3      4.552     10.762
REMARK  Name = 
REMARK  8 active torsions:
REMARK  status: ('A' for Active; 'I' for Inactive)
REMARK    1  A    between atoms: C_1  and  N_2
REMARK    2  A    between atoms: C_6  and  C_7
REMARK    3  A    between atoms: C_7  and  C_8
REMARK    4  A    between atoms: C_8  and  C_9
REMARK    5  A    between atoms: C_13  and  N_14
REMARK    6  A    between atoms: C_15  and  C_17
REMARK    7  A    between atoms: C_19  and  C_20
REMARK    8  A    between atoms: C_23  and  C_24
REMARK                            x       y       z     vdW  Elec       q    Type
REMARK                         _______ _______ _______ _____ _____    ______ ____
ROOT
ATOM      1  C   UNL     1      -1.672  11.812  20.128  0.00  0.00    +0.000 A 
ATOM      2  C   UNL     1      -2.425  12.212  19.002  0.00  0.00    +0.000 A 
ATOM      3  C   UNL     1      -2.303  11.574  17.770  0.00  0.00    +0.000 A 
ATOM      4  C   UNL     1      -1.407  10.521  17.620  0.00  0.00    +0.000 A 
ATOM      5  C   UNL     1      -0.636  10.096  18.700  0.00  0.00    +0.000 A 
ATOM      6  C   UNL     1      -0.802  10.718  19.944  0.00  0.00    +0.000 A 
ENDROOT
BRANCH   1   7
ATOM      7  C   UNL     1      -1.796  12.584  21.532  0.00  0.00    +0.000 C 
ATOM      8  C   UNL     1      -1.751  11.735  22.834  0.00  0.00    +0.000 C 
ATOM      9  O   UNL     1      -0.553  12.393  23.298  0.00  0.00    +0.000 OA
ATOM     10  C   UNL     1      -0.463  13.168  22.087  0.00  0.00    +0.000 C 
BRANCH   7  11
ATOM     11  C   UNL     1      -2.903  13.651  21.466  0.00  0.00    +0.000 C 
BRANCH  11  17
ATOM     12  C   UNL     1      -3.867  14.843  24.266  0.00  0.00    +0.000 C 
ATOM     13  N   UNL     1      -4.505  13.831  23.467  0.00  0.00    +0.000 N 
ATOM     14  C   UNL     1      -5.629  13.151  23.836  0.00  0.00    +0.000 A 
ATOM     15  N   UNL     1      -5.965  12.313  22.886  0.00  0.00    +0.000 NA
ATOM     16  N   UNL     1      -5.038  12.432  21.882  0.00  0.00    +0.000 NA
ATOM     17  C   UNL     1      -4.142  13.331  22.239  0.00  0.00    +0.000 A 
ENDBRANCH  11  17
ENDBRANCH   7  11
ENDBRANCH   1   7
BRANCH   5  18
ATOM     18  N   UNL     1       0.343   9.092  18.604  0.00  0.00    +0.000 N 
ATOM     19  C   UNL     1       1.640   9.244  18.150  0.00  0.00    +0.000 C 
ATOM     20  O   UNL     1       2.148  10.257  17.684  0.00  0.00    +0.000 OA
ATOM     21  H   UNL     1       0.148   8.189  19.029  0.00  0.00    +0.000 HD
BRANCH  19  22
ATOM     22  C   UNL     1       2.477   8.015  18.322  0.00  0.00    +0.000 A 
ATOM     23  C   UNL     1       2.168   7.119  19.335  0.00  0.00    +0.000 A 
ATOM     24  C   UNL     1       2.929   5.957  19.453  0.00  0.00    +0.000 A 
ATOM     25  C   UNL     1       3.976   5.754  18.548  0.00  0.00    +0.000 A 
ATOM     26  C   UNL     1       4.229   6.702  17.552  0.00  0.00    +0.000 A 
ATOM     27  N   UNL     1       3.488   7.838  17.425  0.00  0.00    +0.000 NA
BRANCH  26  28
ATOM     28  C   UNL     1       5.351   6.455  16.564  0.00  0.00    +0.000 C 
ATOM     29  F   UNL     1       5.002   6.769  15.283  0.00  0.00    +0.000 F 
ATOM     30  F   UNL     1       6.461   7.197  16.838  0.00  0.00    +0.000 F 
ENDBRANCH  26  28
BRANCH  24  31
ATOM     31  C   UNL     1       2.604   4.951  20.521  0.00  0.00    +0.000 C 
ATOM     32  F   UNL     1       1.286   4.938  20.862  0.00  0.00    +0.000 F 
ENDBRANCH  24  31
ENDBRANCH  19  22
ENDBRANCH   5  18
TORSDOF 7
ENDMDL
MODEL 9
REMARK VINA RESULT:      -8.2      4.424      9.609
REMARK  Name = 
REMARK  8 active torsions:
REMARK  status: ('A' for Active; 'I' for Inactive)
REMARK    1  A    between atoms: C_1  and  N_2
REMARK    2  A    between atoms: C_6  and  C_7
REMARK    3  A    between atoms: C_7  and  C_8
REMARK    4  A    between atoms: C_8  and  C_9
REMARK    5  A    between atoms: C_13  and  N_14
REMARK    6  A    between atoms: C_15  and  C_17
REMARK    7  A    between atoms: C_19  and  C_20
REMARK    8  A    between atoms: C_23  and  C_24
REMARK                            x       y       z     vdW  Elec       q    Type
REMARK                         _______ _______ _______ _____ _____    ______ ____
ROOT
ATOM      1  C   UNL     1      -0.494  10.660  19.555  0.00  0.00    +0.000 A 
ATOM      2  C   UNL     1      -0.565  10.889  20.947  0.00  0.00    +0.000 A 
ATOM      3  C   UNL     1       0.229  10.187  21.850  0.00  0.00    +0.000 A 
ATOM      4  C   UNL     1       1.113   9.217  21.389  0.00  0.00    +0.000 A 
ATOM      5  C   UNL     1       1.212   8.949  20.026  0.00  0.00    +0.000 A 
ATOM      6  C   UNL     1       0.439   9.694  19.126  0.00  0.00    +0.000 A 
ENDROOT
BRANCH   1   7
ATOM      7  C   UNL     1      -1.445  11.450  18.530  0.00  0.00    +0.000 C 
ATOM      8  C   UNL     1      -2.310  10.610  17.547  0.00  0.00    +0.000 C 
ATOM      9  O   UNL     1      -3.543  11.118  18.098  0.00  0.00    +0.000 OA
ATOM     10  C   UNL     1      -2.833  11.867  19.101  0.00  0.00    +0.000 C 
BRANCH   7  11
ATOM     11  C   UNL     1      -0.699  12.647  17.913  0.00  0.00    +0.000 C 
BRANCH  11  17
ATOM     12  C   UNL     1       2.463  12.694  18.347  0.00  0.00    +0.000 C 
ATOM     13  N   UNL     1       1.459  13.428  19.070  0.00  0.00    +0.000 N 
ATOM     14  C   UNL     1       1.713  14.235  20.140  0.00  0.00    +0.000 A 
ATOM     15  N   UNL     1       0.593  14.769  20.561  0.00  0.00    +0.000 NA
ATOM     16  N   UNL     1      -0.419  14.293  19.765  0.00  0.00    +0.000 NA
ATOM     17  C   UNL     1       0.098  13.465  18.878  0.00  0.00    +0.000 A 
ENDBRANCH  11  17
ENDBRANCH   7  11
ENDBRANCH   1   7
BRANCH   5  18
ATOM     18  N   UNL     1       2.024   7.932  19.494  0.00  0.00    +0.000 N 
ATOM     19  C   UNL     1       2.068   6.612  19.902  0.00  0.00    +0.000 C 
ATOM     20  O   UNL     1       1.466   6.107  20.842  0.00  0.00    +0.000 OA
ATOM     21  H   UNL     1       2.538   8.126  18.638  0.00  0.00    +0.000 HD
BRANCH  19  22
ATOM     22  C   UNL     1       2.923   5.749  19.028  0.00  0.00    +0.000 A 
ATOM     23  C   UNL     1       3.764   6.345  18.099  0.00  0.00    +0.000 A 
ATOM     24  C   UNL     1       4.587   5.529  17.324  0.00  0.00    +0.000 A 
ATOM     25  C   UNL     1       4.518   4.144  17.514  0.00  0.00    +0.000 A 
ATOM     26  C   UNL     1       3.644   3.615  18.469  0.00  0.00    +0.000 A 
ATOM     27  N   UNL     1       2.840   4.404  19.235  0.00  0.00    +0.000 NA
BRANCH  26  28
ATOM     28  C   UNL     1       3.600   2.115  18.679  0.00  0.00    +0.000 C 
ATOM     29  F   UNL     1       2.374   1.678  19.090  0.00  0.00    +0.000 F 
ATOM     30  F   UNL     1       3.879   1.420  17.541  0.00  0.00    +0.000 F 
ENDBRANCH  26  28
BRANCH  24  31
ATOM     31  C   UNL     1       5.532   6.142  16.330  0.00  0.00    +0.000 C 
ATOM     32  F   UNL     1       4.896   6.804  15.324  0.00  0.00    +0.000 F 
ENDBRANCH  24  31
ENDBRANCH  19  22
ENDBRANCH   5  18
TORSDOF 7
ENDMDL
