MODEL 1
REMARK VINA RESULT:      -8.9      0.000      0.000
REMARK  Name = 
REMARK  3 active torsions:
REMARK  status: ('A' for Active; 'I' for Inactive)
REMARK    1  A    between atoms: C_2  and  C_3
REMARK    2  A    between atoms: C_5  and  C_6
REMARK    3  A    between atoms: N_12  and  C_13
REMARK                            x       y       z     vdW  Elec       q    Type
REMARK                         _______ _______ _______ _____ _____    ______ ____
ROOT
ATOM      1  C   UNL     1       2.357   8.472  18.226  0.00  0.00    +0.000 A 
ATOM      2  C   UNL     1       3.540   8.097  17.547  0.00  0.00    +0.000 A 
ATOM      3  C   UNL     1       3.736   6.747  17.797  0.00  0.00    +0.000 A 
ATOM      4  N   UNL     1       2.609   6.353  18.519  0.00  0.00    +0.000 N 
ATOM      5  N   UNL     1       1.825   7.409  18.840  0.00  0.00    +0.000 NA
ENDROOT
BRANCH   1   7
ATOM      6  O   UNL     1       2.322  10.730  17.611  0.00  0.00    +0.000 OA
ATOM      7  C   UNL     1       1.747   9.820  18.213  0.00  0.00    +0.000 C 
ATOM      8  N   UNL     1       0.532  10.045  18.879  0.00  0.00    +0.000 N 
ATOM      9  C   UNL     1      -0.140  11.328  18.694  0.00  0.00    +0.000 C 
ATOM     10  C   UNL     1      -0.206  12.086  20.015  0.00  0.00    +0.000 C 
ATOM     11  C   UNL     1      -0.876  11.227  21.086  0.00  0.00    +0.000 C 
ATOM     12  C   UNL     1      -0.166   9.870  21.189  0.00  0.00    +0.000 C 
ATOM     13  C   UNL     1       1.171   9.860  22.003  0.00  0.00    +0.000 C 
ATOM     14  C   UNL     1       0.343   9.510  23.255  0.00  0.00    +0.000 C 
ATOM     15  C   UNL     1      -0.739   8.954  22.314  0.00  0.00    +0.000 C 
ATOM     16  C   UNL     1      -0.105   9.144  19.841  0.00  0.00    +0.000 C 
ENDBRANCH   1   7
BRANCH   3  17
ATOM     17  C   UNL     1       4.890   5.922  17.427  0.00  0.00    +0.000 A 
ATOM     18  C   UNL     1       5.152   5.632  16.084  0.00  0.00    +0.000 A 
ATOM     19  C   UNL     1       6.223   4.810  15.742  0.00  0.00    +0.000 A 
ATOM     20  C   UNL     1       7.011   4.298  16.757  0.00  0.00    +0.000 A 
ATOM     21  N   UNL     1       6.825   4.583  18.061  0.00  0.00    +0.000 NA
ATOM     22  C   UNL     1       5.787   5.402  18.363  0.00  0.00    +0.000 A 
ENDBRANCH   3  17
BRANCH   4  23
ATOM     23  C   UNL     1       2.177   5.058  18.925  0.00  0.00    +0.000 A 
ATOM     24  C   UNL     1       2.116   4.763  20.297  0.00  0.00    +0.000 A 
ATOM     25  C   UNL     1       1.729   3.492  20.724  0.00  0.00    +0.000 A 
ATOM     26  C   UNL     1       1.381   2.520  19.789  0.00  0.00    +0.000 A 
ATOM     27  C   UNL     1       1.407   2.820  18.427  0.00  0.00    +0.000 A 
ATOM     28  C   UNL     1       1.793   4.089  17.990  0.00  0.00    +0.000 A 
ENDBRANCH   4  23
TORSDOF 3
ENDMDL
MODEL 2
REMARK VINA RESULT:      -8.9      1.986      4.332
REMARK  Name = 
REMARK  3 active torsions:
REMARK  status: ('A' for Active; 'I' for Inactive)
REMARK    1  A    between atoms: C_2  and  C_3
REMARK    2  A    between atoms: C_5  and  C_6
REMARK    3  A    between atoms: N_12  and  C_13
REMARK                            x       y       z     vdW  Elec       q    Type
REMARK                         _______ _______ _______ _____ _____    ______ ____
ROOT
ATOM      1  C   UNL     1       1.473   8.591  20.074  0.00  0.00    +0.000 A 
ATOM      2  C   UNL     1       1.271   7.461  20.900  0.00  0.00    +0.000 A 
ATOM      3  C   UNL     1       1.832   6.377  20.244  0.00  0.00    +0.000 A 
ATOM      4  N   UNL     1       2.439   6.923  19.112  0.00  0.00    +0.000 N 
ATOM      5  N   UNL     1       2.153   8.239  18.976  0.00  0.00    +0.000 NA
ENDROOT
BRANCH   1   7
ATOM      6  O   UNL     1       1.190  10.387  21.548  0.00  0.00    +0.000 OA
ATOM      7  C   UNL     1       1.062   9.976  20.391  0.00  0.00    +0.000 C 
ATOM      8  N   UNL     1       0.538  10.800  19.383  0.00  0.00    +0.000 N 
ATOM      9  C   UNL     1       0.317  12.213  19.678  0.00  0.00    +0.000 C 
ATOM     10  C   UNL     1      -1.169  12.544  19.600  0.00  0.00    +0.000 C 
ATOM     11  C   UNL     1      -1.732  12.139  18.240  0.00  0.00    +0.000 C 
ATOM     12  C   UNL     1      -1.414  10.663  17.960  0.00  0.00    +0.000 C 
ATOM     13  C   UNL     1      -2.342   9.620  18.666  0.00  0.00    +0.000 C 
ATOM     14  C   UNL     1      -3.242   9.653  17.415  0.00  0.00    +0.000 C 
ATOM     15  C   UNL     1      -2.018  10.142  16.619  0.00  0.00    +0.000 C 
ATOM     16  C   UNL     1       0.085  10.364  18.061  0.00  0.00    +0.000 C 
ENDBRANCH   1   7
BRANCH   3  17
ATOM     17  C   UNL     1       1.768   4.962  20.625  0.00  0.00    +0.000 A 
ATOM     18  C   UNL     1       0.854   4.104  20.006  0.00  0.00    +0.000 A 
ATOM     19  C   UNL     1       0.766   2.772  20.404  0.00  0.00    +0.000 A 
ATOM     20  C   UNL     1       1.601   2.329  21.414  0.00  0.00    +0.000 A 
ATOM     21  N   UNL     1       2.527   3.107  22.010  0.00  0.00    +0.000 NA
ATOM     22  C   UNL     1       2.604   4.393  21.588  0.00  0.00    +0.000 A 
ENDBRANCH   3  17
BRANCH   4  23
ATOM     23  C   UNL     1       3.295   6.326  18.143  0.00  0.00    +0.000 A 
ATOM     24  C   UNL     1       4.179   7.147  17.423  0.00  0.00    +0.000 A 
ATOM     25  C   UNL     1       5.005   6.596  16.443  0.00  0.00    +0.000 A 
ATOM     26  C   UNL     1       4.970   5.226  16.193  0.00  0.00    +0.000 A 
ATOM     27  C   UNL     1       4.119   4.403  16.929  0.00  0.00    +0.000 A 
ATOM     28  C   UNL     1       3.288   4.945  17.912  0.00  0.00    +0.000 A 
ENDBRANCH   4  23
TORSDOF 3
ENDMDL
MODEL 3
REMARK VINA RESULT:      -8.8      0.541      1.286
REMARK  Name = 
REMARK  3 active torsions:
REMARK  status: ('A' for Active; 'I' for Inactive)
REMARK    1  A    between atoms: C_2  and  C_3
REMARK    2  A    between atoms: C_5  and  C_6
REMARK    3  A    between atoms: N_12  and  C_13
REMARK                            x       y       z     vdW  Elec       q    Type
REMARK                         _______ _______ _______ _____ _____    ______ ____
ROOT
ATOM      1  C   UNL     1       2.391   8.483  18.227  0.00  0.00    +0.000 A 
ATOM      2  C   UNL     1       3.545   8.099  17.505  0.00  0.00    +0.000 A 
ATOM      3  C   UNL     1       3.759   6.756  17.773  0.00  0.00    +0.000 A 
ATOM      4  N   UNL     1       2.667   6.372  18.552  0.00  0.00    +0.000 N 
ATOM      5  N   UNL     1       1.892   7.431  18.885  0.00  0.00    +0.000 NA
ENDROOT
BRANCH   1   7
ATOM      6  O   UNL     1       2.348  10.742  17.617  0.00  0.00    +0.000 OA
ATOM      7  C   UNL     1       1.774   9.828  18.215  0.00  0.00    +0.000 C 
ATOM      8  N   UNL     1       0.555  10.045  18.876  0.00  0.00    +0.000 N 
ATOM      9  C   UNL     1      -0.122  11.325  18.690  0.00  0.00    +0.000 C 
ATOM     10  C   UNL     1      -0.199  12.080  20.013  0.00  0.00    +0.000 C 
ATOM     11  C   UNL     1      -0.869  11.215  21.079  0.00  0.00    +0.000 C 
ATOM     12  C   UNL     1      -0.152   9.861  21.182  0.00  0.00    +0.000 C 
ATOM     13  C   UNL     1       1.181   9.857  22.002  0.00  0.00    +0.000 C 
ATOM     14  C   UNL     1       0.349   9.500  23.250  0.00  0.00    +0.000 C 
ATOM     15  C   UNL     1      -0.726   8.940  22.302  0.00  0.00    +0.000 C 
ATOM     16  C   UNL     1      -0.081   9.139  19.833  0.00  0.00    +0.000 C 
ENDBRANCH   1   7
BRANCH   3  17
ATOM     17  C   UNL     1       4.901   5.928  17.369  0.00  0.00    +0.000 A 
ATOM     18  C   UNL     1       5.858   5.537  18.310  0.00  0.00    +0.000 A 
ATOM     19  C   UNL     1       6.965   4.790  17.913  0.00  0.00    +0.000 A 
ATOM     20  C   UNL     1       7.083   4.447  16.577  0.00  0.00    +0.000 A 
ATOM     21  N   UNL     1       6.165   4.764  15.642  0.00  0.00    +0.000 NA
ATOM     22  C   UNL     1       5.090   5.475  16.062  0.00  0.00    +0.000 A 
ENDBRANCH   3  17
BRANCH   4  23
ATOM     23  C   UNL     1       2.260   5.083  19.001  0.00  0.00    +0.000 A 
ATOM     24  C   UNL     1       1.764   4.164  18.061  0.00  0.00    +0.000 A 
ATOM     25  C   UNL     1       1.326   2.906  18.475  0.00  0.00    +0.000 A 
ATOM     26  C   UNL     1       1.400   2.551  19.820  0.00  0.00    +0.000 A 
ATOM     27  C   UNL     1       1.923   3.448  20.751  0.00  0.00    +0.000 A 
ATOM     28  C   UNL     1       2.365   4.710  20.346  0.00  0.00    +0.000 A 
ENDBRANCH   4  23
TORSDOF 3
ENDMDL
MODEL 4
REMARK VINA RESULT:      -8.8      1.035      3.558
REMARK  Name = 
REMARK  3 active torsions:
REMARK  status: ('A' for Active; 'I' for Inactive)
REMARK    1  A    between atoms: C_2  and  C_3
REMARK    2  A    between atoms: C_5  and  C_6
REMARK    3  A    between atoms: N_12  and  C_13
REMARK                            x       y       z     vdW  Elec       q    Type
REMARK                         _______ _______ _______ _____ _____    ______ ____
ROOT
ATOM      1  C   UNL     1       2.407   8.359  18.135  0.00  0.00    +0.000 A 
ATOM      2  C   UNL     1       1.827   7.267  18.823  0.00  0.00    +0.000 A 
ATOM      3  C   UNL     1       2.612   6.157  18.549  0.00  0.00    +0.000 A 
ATOM      4  N   UNL     1       3.682   6.654  17.804  0.00  0.00    +0.000 N 
ATOM      5  N   UNL     1       3.511   7.960  17.493  0.00  0.00    +0.000 NA
ENDROOT
BRANCH   1   7
ATOM      6  O   UNL     1       2.577  10.630  17.597  0.00  0.00    +0.000 OA
ATOM      7  C   UNL     1       1.918   9.754  18.164  0.00  0.00    +0.000 C 
ATOM      8  N   UNL     1       0.721  10.063  18.829  0.00  0.00    +0.000 N 
ATOM      9  C   UNL     1       0.167  11.405  18.684  0.00  0.00    +0.000 C 
ATOM     10  C   UNL     1       0.154  12.121  20.030  0.00  0.00    +0.000 C 
ATOM     11  C   UNL     1      -0.599  11.289  21.066  0.00  0.00    +0.000 C 
ATOM     12  C   UNL     1      -0.011   9.872  21.128  0.00  0.00    +0.000 C 
ATOM     13  C   UNL     1       1.311   9.718  21.949  0.00  0.00    +0.000 C 
ATOM     14  C   UNL     1       0.444   9.399  23.183  0.00  0.00    +0.000 C 
ATOM     15  C   UNL     1      -0.674   8.972  22.216  0.00  0.00    +0.000 C 
ATOM     16  C   UNL     1      -0.001   9.190  19.755  0.00  0.00    +0.000 C 
ENDBRANCH   1   7
BRANCH   3  17
ATOM     17  C   UNL     1       2.356   4.761  18.919  0.00  0.00    +0.000 A 
ATOM     18  C   UNL     1       1.538   3.956  18.121  0.00  0.00    +0.000 A 
ATOM     19  C   UNL     1       1.261   2.645  18.501  0.00  0.00    +0.000 A 
ATOM     20  C   UNL     1       1.817   2.168  19.675  0.00  0.00    +0.000 A 
ATOM     21  N   UNL     1       2.646   2.891  20.455  0.00  0.00    +0.000 NA
ATOM     22  C   UNL     1       2.912   4.157  20.049  0.00  0.00    +0.000 A 
ENDBRANCH   3  17
BRANCH   4  23
ATOM     23  C   UNL     1       4.879   6.017  17.367  0.00  0.00    +0.000 A 
ATOM     24  C   UNL     1       5.073   5.811  15.992  0.00  0.00    +0.000 A 
ATOM     25  C   UNL     1       6.220   5.159  15.536  0.00  0.00    +0.000 A 
ATOM     26  C   UNL     1       7.186   4.734  16.445  0.00  0.00    +0.000 A 
ATOM     27  C   UNL     1       7.013   4.968  17.809  0.00  0.00    +0.000 A 
ATOM     28  C   UNL     1       5.868   5.619  18.274  0.00  0.00    +0.000 A 
ENDBRANCH   4  23
TORSDOF 3
ENDMDL
MODEL 5
REMARK VINA RESULT:      -8.7      1.047      3.541
REMARK  Name = 
REMARK  3 active torsions:
REMARK  status: ('A' for Active; 'I' for Inactive)
REMARK    1  A    between atoms: C_2  and  C_3
REMARK    2  A    between atoms: C_5  and  C_6
REMARK    3  A    between atoms: N_12  and  C_13
REMARK                            x       y       z     vdW  Elec       q    Type
REMARK                         _______ _______ _______ _____ _____    ______ ____
ROOT
ATOM      1  C   UNL     1       2.348   8.421  18.071  0.00  0.00    +0.000 A 
ATOM      2  C   UNL     1       1.674   7.316  18.643  0.00  0.00    +0.000 A 
ATOM      3  C   UNL     1       2.437   6.192  18.366  0.00  0.00    +0.000 A 
ATOM      4  N   UNL     1       3.581   6.687  17.739  0.00  0.00    +0.000 N 
ATOM      5  N   UNL     1       3.485   8.015  17.495  0.00  0.00    +0.000 NA
ENDROOT
BRANCH   1   7
ATOM      6  O   UNL     1       2.596  10.700  17.603  0.00  0.00    +0.000 OA
ATOM      7  C   UNL     1       1.909   9.832  18.147  0.00  0.00    +0.000 C 
ATOM      8  N   UNL     1       0.728  10.162  18.830  0.00  0.00    +0.000 N 
ATOM      9  C   UNL     1       0.222  11.528  18.730  0.00  0.00    +0.000 C 
ATOM     10  C   UNL     1       0.243  12.202  20.097  0.00  0.00    +0.000 C 
ATOM     11  C   UNL     1      -0.533  11.366  21.112  0.00  0.00    +0.000 C 
ATOM     12  C   UNL     1       0.003   9.927  21.126  0.00  0.00    +0.000 C 
ATOM     13  C   UNL     1       1.324   9.700  21.933  0.00  0.00    +0.000 C 
ATOM     14  C   UNL     1       0.454   9.376  23.163  0.00  0.00    +0.000 C 
ATOM     15  C   UNL     1      -0.685   9.019  22.191  0.00  0.00    +0.000 C 
ATOM     16  C   UNL     1      -0.019   9.288  19.734  0.00  0.00    +0.000 C 
ENDBRANCH   1   7
BRANCH   3  17
ATOM     17  C   UNL     1       2.101   4.789  18.629  0.00  0.00    +0.000 A 
ATOM     18  C   UNL     1       1.801   4.365  19.927  0.00  0.00    +0.000 A 
ATOM     19  C   UNL     1       1.528   3.022  20.179  0.00  0.00    +0.000 A 
ATOM     20  C   UNL     1       1.558   2.134  19.118  0.00  0.00    +0.000 A 
ATOM     21  N   UNL     1       1.799   2.502  17.844  0.00  0.00    +0.000 NA
ATOM     22  C   UNL     1       2.042   3.818  17.627  0.00  0.00    +0.000 A 
ENDBRANCH   3  17
BRANCH   4  23
ATOM     23  C   UNL     1       4.786   6.027  17.361  0.00  0.00    +0.000 A 
ATOM     24  C   UNL     1       5.606   5.489  18.366  0.00  0.00    +0.000 A 
ATOM     25  C   UNL     1       6.810   4.867  18.029  0.00  0.00    +0.000 A 
ATOM     26  C   UNL     1       7.188   4.760  16.693  0.00  0.00    +0.000 A 
ATOM     27  C   UNL     1       6.359   5.263  15.691  0.00  0.00    +0.000 A 
ATOM     28  C   UNL     1       5.153   5.887  16.018  0.00  0.00    +0.000 A 
ENDBRANCH   4  23
TORSDOF 3
ENDMDL
MODEL 6
REMARK VINA RESULT:      -8.6      1.791      7.265
REMARK  Name = 
REMARK  3 active torsions:
REMARK  status: ('A' for Active; 'I' for Inactive)
REMARK    1  A    between atoms: C_2  and  C_3
REMARK    2  A    between atoms: C_5  and  C_6
REMARK    3  A    between atoms: N_12  and  C_13
REMARK                            x       y       z     vdW  Elec       q    Type
REMARK                         _______ _______ _______ _____ _____    ______ ____
ROOT
ATOM      1  C   UNL     1       2.294   7.922  18.633  0.00  0.00    +0.000 A 
ATOM      2  C   UNL     1       1.516   8.630  17.687  0.00  0.00    +0.000 A 
ATOM      3  C   UNL     1       0.540   9.311  18.397  0.00  0.00    +0.000 A 
ATOM      4  N   UNL     1       0.843   9.069  19.738  0.00  0.00    +0.000 N 
ATOM      5  N   UNL     1       1.849   8.173  19.870  0.00  0.00    +0.000 NA
ENDROOT
BRANCH   1   7
ATOM      6  O   UNL     1       4.239   7.434  17.427  0.00  0.00    +0.000 OA
ATOM      7  C   UNL     1       3.471   7.080  18.325  0.00  0.00    +0.000 C 
ATOM      8  N   UNL     1       3.698   5.901  19.053  0.00  0.00    +0.000 N 
ATOM      9  C   UNL     1       4.959   5.192  18.858  0.00  0.00    +0.000 C 
ATOM     10  C   UNL     1       4.704   3.814  18.259  0.00  0.00    +0.000 C 
ATOM     11  C   UNL     1       3.724   3.030  19.129  0.00  0.00    +0.000 C 
ATOM     12  C   UNL     1       2.446   3.852  19.349  0.00  0.00    +0.000 C 
ATOM     13  C   UNL     1       1.420   3.846  18.168  0.00  0.00    +0.000 C 
ATOM     14  C   UNL     1       0.741   2.633  18.835  0.00  0.00    +0.000 C 
ATOM     15  C   UNL     1       1.355   3.096  20.169  0.00  0.00    +0.000 C 
ATOM     16  C   UNL     1       2.742   5.236  19.938  0.00  0.00    +0.000 C 
ENDBRANCH   1   7
BRANCH   3  17
ATOM     17  C   UNL     1      -0.590  10.079  17.864  0.00  0.00    +0.000 A 
ATOM     18  C   UNL     1      -1.549   9.458  17.057  0.00  0.00    +0.000 A 
ATOM     19  C   UNL     1      -2.595  10.202  16.515  0.00  0.00    +0.000 A 
ATOM     20  C   UNL     1      -2.658  11.555  16.801  0.00  0.00    +0.000 A 
ATOM     21  N   UNL     1      -1.783  12.188  17.608  0.00  0.00    +0.000 NA
ATOM     22  C   UNL     1      -0.787  11.434  18.136  0.00  0.00    +0.000 A 
ENDBRANCH   3  17
BRANCH   4  23
ATOM     23  C   UNL     1       0.288   9.625  20.926  0.00  0.00    +0.000 A 
ATOM     24  C   UNL     1      -0.113   8.758  21.955  0.00  0.00    +0.000 A 
ATOM     25  C   UNL     1      -0.692   9.271  23.117  0.00  0.00    +0.000 A 
ATOM     26  C   UNL     1      -0.851  10.647  23.267  0.00  0.00    +0.000 A 
ATOM     27  C   UNL     1      -0.422  11.512  22.262  0.00  0.00    +0.000 A 
ATOM     28  C   UNL     1       0.158  11.009  21.095  0.00  0.00    +0.000 A 
ENDBRANCH   4  23
TORSDOF 3
ENDMDL
MODEL 7
REMARK VINA RESULT:      -8.5      1.289      3.580
REMARK  Name = 
REMARK  3 active torsions:
REMARK  status: ('A' for Active; 'I' for Inactive)
REMARK    1  A    between atoms: C_2  and  C_3
REMARK    2  A    between atoms: C_5  and  C_6
REMARK    3  A    between atoms: N_12  and  C_13
REMARK                            x       y       z     vdW  Elec       q    Type
REMARK                         _______ _______ _______ _____ _____    ______ ____
ROOT
ATOM      1  C   UNL     1       2.390   8.184  18.417  0.00  0.00    +0.000 A 
ATOM      2  C   UNL     1       2.120   7.244  19.440  0.00  0.00    +0.000 A 
ATOM      3  C   UNL     1       2.904   6.131  19.182  0.00  0.00    +0.000 A 
ATOM      4  N   UNL     1       3.686   6.495  18.084  0.00  0.00    +0.000 N 
ATOM      5  N   UNL     1       3.316   7.697  17.583  0.00  0.00    +0.000 NA
ENDROOT
BRANCH   1   7
ATOM      6  O   UNL     1       2.393  10.398  17.660  0.00  0.00    +0.000 OA
ATOM      7  C   UNL     1       1.797   9.534  18.309  0.00  0.00    +0.000 C 
ATOM      8  N   UNL     1       0.574   9.815  18.939  0.00  0.00    +0.000 N 
ATOM      9  C   UNL     1      -0.078  11.091  18.661  0.00  0.00    +0.000 C 
ATOM     10  C   UNL     1      -0.157  11.933  19.930  0.00  0.00    +0.000 C 
ATOM     11  C   UNL     1      -0.854  11.152  21.042  0.00  0.00    +0.000 C 
ATOM     12  C   UNL     1      -0.162   9.795  21.243  0.00  0.00    +0.000 C 
ATOM     13  C   UNL     1       1.161   9.823  22.078  0.00  0.00    +0.000 C 
ATOM     14  C   UNL     1       0.310   9.563  23.336  0.00  0.00    +0.000 C 
ATOM     15  C   UNL     1      -0.765   8.959  22.414  0.00  0.00    +0.000 C 
ATOM     16  C   UNL     1      -0.088   8.985  19.945  0.00  0.00    +0.000 C 
ENDBRANCH   1   7
BRANCH   3  17
ATOM     17  C   UNL     1       2.890   4.838  19.874  0.00  0.00    +0.000 A 
ATOM     18  C   UNL     1       1.889   4.547  20.806  0.00  0.00    +0.000 A 
ATOM     19  C   UNL     1       1.906   3.336  21.495  0.00  0.00    +0.000 A 
ATOM     20  C   UNL     1       2.927   2.441  21.230  0.00  0.00    +0.000 A 
ATOM     21  N   UNL     1       3.888   2.659  20.309  0.00  0.00    +0.000 NA
ATOM     22  C   UNL     1       3.835   3.837  19.641  0.00  0.00    +0.000 A 
ENDBRANCH   3  17
BRANCH   4  23
ATOM     23  C   UNL     1       4.778   5.824  17.463  0.00  0.00    +0.000 A 
ATOM     24  C   UNL     1       4.511   4.897  16.442  0.00  0.00    +0.000 A 
ATOM     25  C   UNL     1       5.558   4.199  15.839  0.00  0.00    +0.000 A 
ATOM     26  C   UNL     1       6.873   4.438  16.234  0.00  0.00    +0.000 A 
ATOM     27  C   UNL     1       7.144   5.383  17.223  0.00  0.00    +0.000 A 
ATOM     28  C   UNL     1       6.103   6.086  17.832  0.00  0.00    +0.000 A 
ENDBRANCH   4  23
TORSDOF 3
ENDMDL
MODEL 8
REMARK VINA RESULT:      -8.4      1.810      7.430
REMARK  Name = 
REMARK  3 active torsions:
REMARK  status: ('A' for Active; 'I' for Inactive)
REMARK    1  A    between atoms: C_2  and  C_3
REMARK    2  A    between atoms: C_5  and  C_6
REMARK    3  A    between atoms: N_12  and  C_13
REMARK                            x       y       z     vdW  Elec       q    Type
REMARK                         _______ _______ _______ _____ _____    ______ ____
ROOT
ATOM      1  C   UNL     1       2.456   7.963  18.392  0.00  0.00    +0.000 A 
ATOM      2  C   UNL     1       2.127   8.063  19.764  0.00  0.00    +0.000 A 
ATOM      3  C   UNL     1       1.076   8.961  19.862  0.00  0.00    +0.000 A 
ATOM      4  N   UNL     1       0.752   9.273  18.541  0.00  0.00    +0.000 N 
ATOM      5  N   UNL     1       1.634   8.732  17.668  0.00  0.00    +0.000 NA
ENDROOT
BRANCH   1   7
ATOM      6  O   UNL     1       4.075   7.447  16.783  0.00  0.00    +0.000 OA
ATOM      7  C   UNL     1       3.503   7.091  17.817  0.00  0.00    +0.000 C 
ATOM      8  N   UNL     1       3.833   5.882  18.450  0.00  0.00    +0.000 N 
ATOM      9  C   UNL     1       4.994   5.137  17.971  0.00  0.00    +0.000 C 
ATOM     10  C   UNL     1       4.560   3.788  17.408  0.00  0.00    +0.000 C 
ATOM     11  C   UNL     1       3.759   3.011  18.450  0.00  0.00    +0.000 C 
ATOM     12  C   UNL     1       2.592   3.869  18.960  0.00  0.00    +0.000 C 
ATOM     13  C   UNL     1       1.337   3.936  18.028  0.00  0.00    +0.000 C 
ATOM     14  C   UNL     1       0.768   2.727  18.797  0.00  0.00    +0.000 C 
ATOM     15  C   UNL     1       1.673   3.125  19.977  0.00  0.00    +0.000 C 
ATOM     16  C   UNL     1       3.063   5.222  19.504  0.00  0.00    +0.000 C 
ENDBRANCH   1   7
BRANCH   3  17
ATOM     17  C   UNL     1       0.465   9.503  21.081  0.00  0.00    +0.000 A 
ATOM     18  C   UNL     1      -0.229   8.663  21.957  0.00  0.00    +0.000 A 
ATOM     19  C   UNL     1      -0.847   9.191  23.089  0.00  0.00    +0.000 A 
ATOM     20  C   UNL     1      -0.750  10.552  23.318  0.00  0.00    +0.000 A 
ATOM     21  N   UNL     1      -0.056  11.394  22.526  0.00  0.00    +0.000 NA
ATOM     22  C   UNL     1       0.551  10.848  21.443  0.00  0.00    +0.000 A 
ENDBRANCH   3  17
BRANCH   4  23
ATOM     23  C   UNL     1      -0.336  10.022  18.008  0.00  0.00    +0.000 A 
ATOM     24  C   UNL     1      -0.457  11.378  18.354  0.00  0.00    +0.000 A 
ATOM     25  C   UNL     1      -1.531  12.130  17.875  0.00  0.00    +0.000 A 
ATOM     26  C   UNL     1      -2.473  11.541  17.034  0.00  0.00    +0.000 A 
ATOM     27  C   UNL     1      -2.336  10.205  16.661  0.00  0.00    +0.000 A 
ATOM     28  C   UNL     1      -1.264   9.444  17.135  0.00  0.00    +0.000 A 
ENDBRANCH   4  23
TORSDOF 3
ENDMDL
MODEL 9
REMARK VINA RESULT:      -8.4      1.809      7.415
REMARK  Name = 
REMARK  3 active torsions:
REMARK  status: ('A' for Active; 'I' for Inactive)
REMARK    1  A    between atoms: C_2  and  C_3
REMARK    2  A    between atoms: C_5  and  C_6
REMARK    3  A    between atoms: N_12  and  C_13
REMARK                            x       y       z     vdW  Elec       q    Type
REMARK                         _______ _______ _______ _____ _____    ______ ____
ROOT
ATOM      1  C   UNL     1       2.713   7.670  18.316  0.00  0.00    +0.000 A 
ATOM      2  C   UNL     1       2.374   7.507  19.680  0.00  0.00    +0.000 A 
ATOM      3  C   UNL     1       1.461   8.503  19.989  0.00  0.00    +0.000 A 
ATOM      4  N   UNL     1       1.212   9.145  18.775  0.00  0.00    +0.000 N 
ATOM      5  N   UNL     1       2.025   8.691  17.793  0.00  0.00    +0.000 NA
ENDROOT
BRANCH   1   7
ATOM      6  O   UNL     1       4.063   7.206  16.462  0.00  0.00    +0.000 OA
ATOM      7  C   UNL     1       3.637   6.806  17.549  0.00  0.00    +0.000 C 
ATOM      8  N   UNL     1       4.016   5.556  18.062  0.00  0.00    +0.000 N 
ATOM      9  C   UNL     1       5.070   4.811  17.379  0.00  0.00    +0.000 C 
ATOM     10  C   UNL     1       4.515   3.507  16.816  0.00  0.00    +0.000 C 
ATOM     11  C   UNL     1       3.849   2.692  17.923  0.00  0.00    +0.000 C 
ATOM     12  C   UNL     1       2.798   3.549  18.644  0.00  0.00    +0.000 C 
ATOM     13  C   UNL     1       1.423   3.698  17.912  0.00  0.00    +0.000 C 
ATOM     14  C   UNL     1       0.934   2.462  18.692  0.00  0.00    +0.000 C 
ATOM     15  C   UNL     1       2.013   2.771  19.745  0.00  0.00    +0.000 C 
ATOM     16  C   UNL     1       3.387   4.856  19.183  0.00  0.00    +0.000 C 
ENDBRANCH   1   7
BRANCH   3  17
ATOM     17  C   UNL     1       0.908   8.841  21.305  0.00  0.00    +0.000 A 
ATOM     18  C   UNL     1      -0.475   8.892  21.500  0.00  0.00    +0.000 A 
ATOM     19  C   UNL     1      -0.994   9.259  22.739  0.00  0.00    +0.000 A 
ATOM     20  C   UNL     1      -0.111   9.564  23.760  0.00  0.00    +0.000 A 
ATOM     21  N   UNL     1       1.229   9.488  23.632  0.00  0.00    +0.000 NA
ATOM     22  C   UNL     1       1.705   9.109  22.421  0.00  0.00    +0.000 A 
ENDBRANCH   3  17
BRANCH   4  23
ATOM     23  C   UNL     1       0.254  10.143  18.437  0.00  0.00    +0.000 A 
ATOM     24  C   UNL     1      -0.915   9.756  17.761  0.00  0.00    +0.000 A 
ATOM     25  C   UNL     1      -1.857  10.716  17.385  0.00  0.00    +0.000 A 
ATOM     26  C   UNL     1      -1.648  12.057  17.701  0.00  0.00    +0.000 A 
ATOM     27  C   UNL     1      -0.505  12.439  18.402  0.00  0.00    +0.000 A 
ATOM     28  C   UNL     1       0.443  11.486  18.782  0.00  0.00    +0.000 A 
ENDBRANCH   4  23
TORSDOF 3
ENDMDL
