MODEL 1
REMARK VINA RESULT:      -9.4      0.000      0.000
REMARK  Name = 
REMARK  5 active torsions:
REMARK  status: ('A' for Active; 'I' for Inactive)
REMARK    1  A    between atoms: C_2  and  C_4
REMARK    2  A    between atoms: C_7  and  C_9
REMARK    3  A    between atoms: C_13  and  O_14
REMARK    4  A    between atoms: O_14  and  C_15
REMARK    5  A    between atoms: C_15  and  C_16
REMARK                            x       y       z     vdW  Elec       q    Type
REMARK                         _______ _______ _______ _____ _____    ______ ____
ROOT
ATOM      1  C   UNL     1       4.929   4.178  17.656  0.00  0.00    +0.000 C 
ATOM      2  C   UNL     1       3.850   5.067  17.075  0.00  0.00    +0.000 C 
ATOM      3  N   UNL     1       3.131   5.727  18.171  0.00  0.00    +0.000 N 
ATOM      4  C   UNL     1       3.176   7.136  18.183  0.00  0.00    +0.000 C 
ATOM      5  O   UNL     1       3.928   7.775  17.443  0.00  0.00    +0.000 OA
ATOM      6  C   UNL     1       2.645   4.776  19.142  0.00  0.00    +0.000 A 
ATOM      7  C   UNL     1       1.646   4.995  20.091  0.00  0.00    +0.000 A 
ATOM      8  C   UNL     1       1.047   3.949  20.808  0.00  0.00    +0.000 A 
ATOM      9  C   UNL     1       1.538   2.661  20.686  0.00  0.00    +0.000 A 
ATOM     10  C   UNL     1       2.641   2.435  19.880  0.00  0.00    +0.000 A 
ATOM     11  C   UNL     1       3.198   3.473  19.123  0.00  0.00    +0.000 A 
ATOM     12  O   UNL     1       4.321   3.122  18.405  0.00  0.00    +0.000 OA
ENDROOT
BRANCH   4  13
ATOM     13  C   UNL     1       2.304   7.933  19.054  0.00  0.00    +0.000 A 
ATOM     14  C   UNL     1       2.041   7.547  20.369  0.00  0.00    +0.000 A 
ATOM     15  C   UNL     1       1.067   8.236  21.093  0.00  0.00    +0.000 A 
ATOM     16  C   UNL     1       0.354   9.273  20.486  0.00  0.00    +0.000 A 
ATOM     17  C   UNL     1       0.690   9.704  19.201  0.00  0.00    +0.000 A 
ATOM     18  C   UNL     1       1.740   9.089  18.526  0.00  0.00    +0.000 A 
BRANCH  17  19
ATOM     19  O   UNL     1      -0.126  10.650  18.650  0.00  0.00    +0.000 OA
BRANCH  19  20
ATOM     20  C   UNL     1      -1.520  10.529  18.945  0.00  0.00    +0.000 C 
BRANCH  20  21
ATOM     21  C   UNL     1      -2.281  10.535  17.654  0.00  0.00    +0.000 A 
ATOM     22  C   UNL     1      -1.837   9.720  16.606  0.00  0.00    +0.000 A 
ATOM     23  C   UNL     1      -2.572   9.616  15.434  0.00  0.00    +0.000 A 
ATOM     24  C   UNL     1      -3.760  10.339  15.314  0.00  0.00    +0.000 A 
ATOM     25  F   UNL     1      -4.485  10.229  14.188  0.00  0.00    +0.000 F 
ATOM     26  C   UNL     1      -4.215  11.156  16.341  0.00  0.00    +0.000 A 
ATOM     27  C   UNL     1      -3.479  11.259  17.521  0.00  0.00    +0.000 A 
ENDBRANCH  20  21
ENDBRANCH  19  20
ENDBRANCH  17  19
ENDBRANCH   4  13
BRANCH   1  29
ATOM     28  N   UNL     1       6.567   6.037  17.642  0.00  0.00    +0.000 N 
ATOM     29  C   UNL     1       5.991   5.034  18.386  0.00  0.00    +0.000 C 
ATOM     30  O   UNL     1       6.362   4.848  19.541  0.00  0.00    +0.000 OA
ATOM     31  H   UNL     1       7.174   6.654  18.167  0.00  0.00    +0.000 HD
ATOM     32  H   UNL     1       6.055   6.495  16.900  0.00  0.00    +0.000 HD
ENDBRANCH   1  29
TORSDOF 5
ENDMDL
MODEL 2
REMARK VINA RESULT:      -9.3      1.053      1.491
REMARK  Name = 
REMARK  5 active torsions:
REMARK  status: ('A' for Active; 'I' for Inactive)
REMARK    1  A    between atoms: C_2  and  C_4
REMARK    2  A    between atoms: C_7  and  C_9
REMARK    3  A    between atoms: C_13  and  O_14
REMARK    4  A    between atoms: O_14  and  C_15
REMARK    5  A    between atoms: C_15  and  C_16
REMARK                            x       y       z     vdW  Elec       q    Type
REMARK                         _______ _______ _______ _____ _____    ______ ____
ROOT
ATOM      1  C   UNL     1       5.115   4.173  17.826  0.00  0.00    +0.000 C 
ATOM      2  C   UNL     1       4.107   5.014  17.072  0.00  0.00    +0.000 C 
ATOM      3  N   UNL     1       3.266   5.733  18.036  0.00  0.00    +0.000 N 
ATOM      4  C   UNL     1       3.305   7.140  17.964  0.00  0.00    +0.000 C 
ATOM      5  O   UNL     1       4.134   7.739  17.275  0.00  0.00    +0.000 OA
ATOM      6  C   UNL     1       2.676   4.840  19.005  0.00  0.00    +0.000 A 
ATOM      7  C   UNL     1       1.575   5.107  19.819  0.00  0.00    +0.000 A 
ATOM      8  C   UNL     1       0.902   4.101  20.528  0.00  0.00    +0.000 A 
ATOM      9  C   UNL     1       1.408   2.813  20.544  0.00  0.00    +0.000 A 
ATOM     10  C   UNL     1       2.595   2.548  19.883  0.00  0.00    +0.000 A 
ATOM     11  C   UNL     1       3.231   3.543  19.129  0.00  0.00    +0.000 A 
ATOM     12  O   UNL     1       4.429   3.159  18.566  0.00  0.00    +0.000 OA
ENDROOT
BRANCH   4  13
ATOM     13  C   UNL     1       2.337   7.981  18.681  0.00  0.00    +0.000 A 
ATOM     14  C   UNL     1       2.180   7.892  20.063  0.00  0.00    +0.000 A 
ATOM     15  C   UNL     1       1.125   8.577  20.669  0.00  0.00    +0.000 A 
ATOM     16  C   UNL     1       0.233   9.312  19.884  0.00  0.00    +0.000 A 
ATOM     17  C   UNL     1       0.456   9.463  18.514  0.00  0.00    +0.000 A 
ATOM     18  C   UNL     1       1.574   8.872  17.933  0.00  0.00    +0.000 A 
BRANCH  17  19
ATOM     19  O   UNL     1      -0.521  10.108  17.812  0.00  0.00    +0.000 OA
BRANCH  19  20
ATOM     20  C   UNL     1      -1.043  11.299  18.407  0.00  0.00    +0.000 C 
BRANCH  20  21
ATOM     21  C   UNL     1      -2.503  11.392  18.082  0.00  0.00    +0.000 A 
ATOM     22  C   UNL     1      -3.383  11.870  19.059  0.00  0.00    +0.000 A 
ATOM     23  C   UNL     1      -4.723  12.071  18.764  0.00  0.00    +0.000 A 
ATOM     24  C   UNL     1      -5.183  11.786  17.477  0.00  0.00    +0.000 A 
ATOM     25  F   UNL     1      -6.476  11.995  17.180  0.00  0.00    +0.000 F 
ATOM     26  C   UNL     1      -4.326  11.307  16.494  0.00  0.00    +0.000 A 
ATOM     27  C   UNL     1      -2.978  11.107  16.789  0.00  0.00    +0.000 A 
ENDBRANCH  20  21
ENDBRANCH  19  20
ENDBRANCH  17  19
ENDBRANCH   4  13
BRANCH   1  29
ATOM     28  N   UNL     1       6.748   6.035  17.877  0.00  0.00    +0.000 N 
ATOM     29  C   UNL     1       6.085   5.083  18.616  0.00  0.00    +0.000 C 
ATOM     30  O   UNL     1       6.316   4.980  19.817  0.00  0.00    +0.000 OA
ATOM     31  H   UNL     1       7.290   6.691  18.427  0.00  0.00    +0.000 HD
ATOM     32  H   UNL     1       6.329   6.438  17.049  0.00  0.00    +0.000 HD
ENDBRANCH   1  29
TORSDOF 5
ENDMDL
MODEL 3
REMARK VINA RESULT:      -9.3      0.876      1.133
REMARK  Name = 
REMARK  5 active torsions:
REMARK  status: ('A' for Active; 'I' for Inactive)
REMARK    1  A    between atoms: C_2  and  C_4
REMARK    2  A    between atoms: C_7  and  C_9
REMARK    3  A    between atoms: C_13  and  O_14
REMARK    4  A    between atoms: O_14  and  C_15
REMARK    5  A    between atoms: C_15  and  C_16
REMARK                            x       y       z     vdW  Elec       q    Type
REMARK                         _______ _______ _______ _____ _____    ______ ____
ROOT
ATOM      1  C   UNL     1       5.011   4.054  17.757  0.00  0.00    +0.000 C 
ATOM      2  C   UNL     1       3.978   4.935  17.087  0.00  0.00    +0.000 C 
ATOM      3  N   UNL     1       3.210   5.641  18.119  0.00  0.00    +0.000 N 
ATOM      4  C   UNL     1       3.274   7.049  18.085  0.00  0.00    +0.000 C 
ATOM      5  O   UNL     1       4.074   7.653  17.367  0.00  0.00    +0.000 OA
ATOM      6  C   UNL     1       2.658   4.731  19.094  0.00  0.00    +0.000 A 
ATOM      7  C   UNL     1       1.612   4.995  19.979  0.00  0.00    +0.000 A 
ATOM      8  C   UNL     1       0.960   3.982  20.696  0.00  0.00    +0.000 A 
ATOM      9  C   UNL     1       1.439   2.684  20.646  0.00  0.00    +0.000 A 
ATOM     10  C   UNL     1       2.581   2.416  19.910  0.00  0.00    +0.000 A 
ATOM     11  C   UNL     1       3.192   3.421  19.149  0.00  0.00    +0.000 A 
ATOM     12  O   UNL     1       4.348   3.031  18.507  0.00  0.00    +0.000 OA
ENDROOT
BRANCH   4  13
ATOM     13  C   UNL     1       2.367   7.886  18.881  0.00  0.00    +0.000 A 
ATOM     14  C   UNL     1       2.170   7.656  20.242  0.00  0.00    +0.000 A 
ATOM     15  C   UNL     1       1.165   8.360  20.908  0.00  0.00    +0.000 A 
ATOM     16  C   UNL     1       0.359   9.255  20.200  0.00  0.00    +0.000 A 
ATOM     17  C   UNL     1       0.626   9.540  18.860  0.00  0.00    +0.000 A 
ATOM     18  C   UNL     1       1.702   8.921  18.230  0.00  0.00    +0.000 A 
BRANCH  17  19
ATOM     19  O   UNL     1      -0.274  10.344  18.224  0.00  0.00    +0.000 OA
BRANCH  19  20
ATOM     20  C   UNL     1      -1.135   9.703  17.279  0.00  0.00    +0.000 C 
BRANCH  20  21
ATOM     21  C   UNL     1      -2.408  10.490  17.186  0.00  0.00    +0.000 A 
ATOM     22  C   UNL     1      -3.081  10.542  15.960  0.00  0.00    +0.000 A 
ATOM     23  C   UNL     1      -4.314  11.170  15.859  0.00  0.00    +0.000 A 
ATOM     24  C   UNL     1      -4.873  11.751  16.998  0.00  0.00    +0.000 A 
ATOM     25  F   UNL     1      -6.074  12.345  16.909  0.00  0.00    +0.000 F 
ATOM     26  C   UNL     1      -4.219  11.713  18.222  0.00  0.00    +0.000 A 
ATOM     27  C   UNL     1      -2.980  11.080  18.327  0.00  0.00    +0.000 A 
ENDBRANCH  20  21
ENDBRANCH  19  20
ENDBRANCH  17  19
ENDBRANCH   4  13
BRANCH   1  29
ATOM     28  N   UNL     1       6.715   5.852  17.757  0.00  0.00    +0.000 N 
ATOM     29  C   UNL     1       6.043   4.921  18.515  0.00  0.00    +0.000 C 
ATOM     30  O   UNL     1       6.314   4.802  19.706  0.00  0.00    +0.000 OA
ATOM     31  H   UNL     1       7.301   6.483  18.290  0.00  0.00    +0.000 HD
ATOM     32  H   UNL     1       6.282   6.275  16.947  0.00  0.00    +0.000 HD
ENDBRANCH   1  29
TORSDOF 5
ENDMDL
MODEL 4
REMARK VINA RESULT:      -9.2      1.335      1.714
REMARK  Name = 
REMARK  5 active torsions:
REMARK  status: ('A' for Active; 'I' for Inactive)
REMARK    1  A    between atoms: C_2  and  C_4
REMARK    2  A    between atoms: C_7  and  C_9
REMARK    3  A    between atoms: C_13  and  O_14
REMARK    4  A    between atoms: O_14  and  C_15
REMARK    5  A    between atoms: C_15  and  C_16
REMARK                            x       y       z     vdW  Elec       q    Type
REMARK                         _______ _______ _______ _____ _____    ______ ____
ROOT
ATOM      1  C   UNL     1       5.559   3.965  16.722  0.00  0.00    +0.000 C 
ATOM      2  C   UNL     1       4.703   5.076  16.149  0.00  0.00    +0.000 C 
ATOM      3  N   UNL     1       3.808   5.579  17.198  0.00  0.00    +0.000 N 
ATOM      4  C   UNL     1       3.951   6.941  17.533  0.00  0.00    +0.000 C 
ATOM      5  O   UNL     1       4.893   7.623  17.123  0.00  0.00    +0.000 OA
ATOM      6  C   UNL     1       3.050   4.516  17.813  0.00  0.00    +0.000 A 
ATOM      7  C   UNL     1       1.884   4.655  18.566  0.00  0.00    +0.000 A 
ATOM      8  C   UNL     1       1.067   3.563  18.894  0.00  0.00    +0.000 A 
ATOM      9  C   UNL     1       1.478   2.277  18.589  0.00  0.00    +0.000 A 
ATOM     10  C   UNL     1       2.713   2.090  17.991  0.00  0.00    +0.000 A 
ATOM     11  C   UNL     1       3.498   3.188  17.614  0.00  0.00    +0.000 A 
ATOM     12  O   UNL     1       4.724   2.859  17.077  0.00  0.00    +0.000 OA
ENDROOT
BRANCH   4  13
ATOM     13  C   UNL     1       2.967   7.642  18.368  0.00  0.00    +0.000 A 
ATOM     14  C   UNL     1       2.745   7.274  19.694  0.00  0.00    +0.000 A 
ATOM     15  C   UNL     1       1.676   7.848  20.385  0.00  0.00    +0.000 A 
ATOM     16  C   UNL     1       0.833   8.752  19.733  0.00  0.00    +0.000 A 
ATOM     17  C   UNL     1       1.121   9.176  18.434  0.00  0.00    +0.000 A 
ATOM     18  C   UNL     1       2.254   8.688  17.790  0.00  0.00    +0.000 A 
BRANCH  17  19
ATOM     19  O   UNL     1       0.189   9.978  17.842  0.00  0.00    +0.000 OA
BRANCH  19  20
ATOM     20  C   UNL     1      -0.494  10.894  18.702  0.00  0.00    +0.000 C 
BRANCH  20  21
ATOM     21  C   UNL     1      -1.919  10.997  18.250  0.00  0.00    +0.000 A 
ATOM     22  C   UNL     1      -2.821  11.735  19.027  0.00  0.00    +0.000 A 
ATOM     23  C   UNL     1      -4.121  11.943  18.590  0.00  0.00    +0.000 A 
ATOM     24  C   UNL     1      -4.518  11.404  17.366  0.00  0.00    +0.000 A 
ATOM     25  F   UNL     1      -5.771  11.617  16.930  0.00  0.00    +0.000 F 
ATOM     26  C   UNL     1      -3.639  10.665  16.583  0.00  0.00    +0.000 A 
ATOM     27  C   UNL     1      -2.331  10.457  17.020  0.00  0.00    +0.000 A 
ENDBRANCH  20  21
ENDBRANCH  19  20
ENDBRANCH  17  19
ENDBRANCH   4  13
BRANCH   1  29
ATOM     28  N   UNL     1       7.488   5.366  17.393  0.00  0.00    +0.000 N 
ATOM     29  C   UNL     1       6.490   4.523  17.823  0.00  0.00    +0.000 C 
ATOM     30  O   UNL     1       6.415   4.232  19.013  0.00  0.00    +0.000 OA
ATOM     31  H   UNL     1       8.014   5.808  18.138  0.00  0.00    +0.000 HD
ATOM     32  H   UNL     1       7.362   5.948  16.576  0.00  0.00    +0.000 HD
ENDBRANCH   1  29
TORSDOF 5
ENDMDL
MODEL 5
REMARK VINA RESULT:      -9.1      0.603      1.072
REMARK  Name = 
REMARK  5 active torsions:
REMARK  status: ('A' for Active; 'I' for Inactive)
REMARK    1  A    between atoms: C_2  and  C_4
REMARK    2  A    between atoms: C_7  and  C_9
REMARK    3  A    between atoms: C_13  and  O_14
REMARK    4  A    between atoms: O_14  and  C_15
REMARK    5  A    between atoms: C_15  and  C_16
REMARK                            x       y       z     vdW  Elec       q    Type
REMARK                         _______ _______ _______ _____ _____    ______ ____
ROOT
ATOM      1  C   UNL     1       4.887   4.128  17.501  0.00  0.00    +0.000 C 
ATOM      2  C   UNL     1       3.826   5.053  16.942  0.00  0.00    +0.000 C 
ATOM      3  N   UNL     1       3.120   5.699  18.054  0.00  0.00    +0.000 N 
ATOM      4  C   UNL     1       3.193   7.107  18.100  0.00  0.00    +0.000 C 
ATOM      5  O   UNL     1       3.957   7.748  17.375  0.00  0.00    +0.000 OA
ATOM      6  C   UNL     1       2.616   4.736  19.003  0.00  0.00    +0.000 A 
ATOM      7  C   UNL     1       1.622   4.952  19.958  0.00  0.00    +0.000 A 
ATOM      8  C   UNL     1       1.003   3.900  20.649  0.00  0.00    +0.000 A 
ATOM      9  C   UNL     1       1.468   2.606  20.496  0.00  0.00    +0.000 A 
ATOM     10  C   UNL     1       2.566   2.377  19.684  0.00  0.00    +0.000 A 
ATOM     11  C   UNL     1       3.142   3.423  18.951  0.00  0.00    +0.000 A 
ATOM     12  O   UNL     1       4.258   3.066  18.224  0.00  0.00    +0.000 OA
ENDROOT
BRANCH   4  13
ATOM     13  C   UNL     1       2.337   7.899  18.991  0.00  0.00    +0.000 A 
ATOM     14  C   UNL     1       2.068   7.488  20.296  0.00  0.00    +0.000 A 
ATOM     15  C   UNL     1       1.108   8.178  21.038  0.00  0.00    +0.000 A 
ATOM     16  C   UNL     1       0.415   9.243  20.456  0.00  0.00    +0.000 A 
ATOM     17  C   UNL     1       0.758   9.698  19.182  0.00  0.00    +0.000 A 
ATOM     18  C   UNL     1       1.796   9.079  18.491  0.00  0.00    +0.000 A 
BRANCH  17  19
ATOM     19  O   UNL     1      -0.038  10.672  18.655  0.00  0.00    +0.000 OA
BRANCH  19  20
ATOM     20  C   UNL     1      -1.414  10.642  19.046  0.00  0.00    +0.000 C 
BRANCH  20  21
ATOM     21  C   UNL     1      -2.256  10.515  17.812  0.00  0.00    +0.000 A 
ATOM     22  C   UNL     1      -3.407  11.303  17.698  0.00  0.00    +0.000 A 
ATOM     23  C   UNL     1      -4.154  11.294  16.529  0.00  0.00    +0.000 A 
ATOM     24  C   UNL     1      -3.744  10.484  15.470  0.00  0.00    +0.000 A 
ATOM     25  F   UNL     1      -4.454  10.484  14.330  0.00  0.00    +0.000 F 
ATOM     26  C   UNL     1      -2.607   9.691  15.566  0.00  0.00    +0.000 A 
ATOM     27  C   UNL     1      -1.853   9.702  16.739  0.00  0.00    +0.000 A 
ENDBRANCH  20  21
ENDBRANCH  19  20
ENDBRANCH  17  19
ENDBRANCH   4  13
BRANCH   1  29
ATOM     28  N   UNL     1       6.203   4.571  19.552  0.00  0.00    +0.000 N 
ATOM     29  C   UNL     1       5.966   4.945  18.250  0.00  0.00    +0.000 C 
ATOM     30  O   UNL     1       6.573   5.900  17.775  0.00  0.00    +0.000 OA
ATOM     31  H   UNL     1       6.988   5.040  19.988  0.00  0.00    +0.000 HD
ATOM     32  H   UNL     1       6.078   3.612  19.850  0.00  0.00    +0.000 HD
ENDBRANCH   1  29
TORSDOF 5
ENDMDL
MODEL 6
REMARK VINA RESULT:      -8.9      3.841      8.786
REMARK  Name = 
REMARK  5 active torsions:
REMARK  status: ('A' for Active; 'I' for Inactive)
REMARK    1  A    between atoms: C_2  and  C_4
REMARK    2  A    between atoms: C_7  and  C_9
REMARK    3  A    between atoms: C_13  and  O_14
REMARK    4  A    between atoms: O_14  and  C_15
REMARK    5  A    between atoms: C_15  and  C_16
REMARK                            x       y       z     vdW  Elec       q    Type
REMARK                         _______ _______ _______ _____ _____    ______ ____
ROOT
ATOM      1  C   UNL     1      -2.052  13.048  20.740  0.00  0.00    +0.000 C 
ATOM      2  C   UNL     1      -1.567  11.719  21.279  0.00  0.00    +0.000 C 
ATOM      3  N   UNL     1      -0.846  11.006  20.218  0.00  0.00    +0.000 N 
ATOM      4  C   UNL     1       0.506  10.705  20.481  0.00  0.00    +0.000 C 
ATOM      5  O   UNL     1       1.107  11.177  21.450  0.00  0.00    +0.000 OA
ATOM      6  C   UNL     1      -1.634  10.896  19.014  0.00  0.00    +0.000 A 
ATOM      7  C   UNL     1      -1.424  10.004  17.962  0.00  0.00    +0.000 A 
ATOM      8  C   UNL     1      -2.385   9.777  16.966  0.00  0.00    +0.000 A 
ATOM      9  C   UNL     1      -3.533  10.549  16.926  0.00  0.00    +0.000 A 
ATOM     10  C   UNL     1      -3.695  11.561  17.857  0.00  0.00    +0.000 A 
ATOM     11  C   UNL     1      -2.760  11.744  18.884  0.00  0.00    +0.000 A 
ATOM     12  O   UNL     1      -3.017  12.818  19.709  0.00  0.00    +0.000 OA
ENDROOT
BRANCH   4  13
ATOM     13  C   UNL     1       1.275   9.784  19.636  0.00  0.00    +0.000 A 
ATOM     14  C   UNL     1       1.642  10.125  18.334  0.00  0.00    +0.000 A 
ATOM     15  C   UNL     1       2.210   9.150  17.514  0.00  0.00    +0.000 A 
ATOM     16  C   UNL     1       2.374   7.848  17.995  0.00  0.00    +0.000 A 
ATOM     17  C   UNL     1       2.084   7.544  19.327  0.00  0.00    +0.000 A 
ATOM     18  C   UNL     1       1.626   8.550  20.173  0.00  0.00    +0.000 A 
BRANCH  17  19
ATOM     19  O   UNL     1       2.175   6.229  19.679  0.00  0.00    +0.000 OA
BRANCH  19  20
ATOM     20  C   UNL     1       2.311   5.297  18.603  0.00  0.00    +0.000 C 
BRANCH  20  21
ATOM     21  C   UNL     1       3.771   5.110  18.319  0.00  0.00    +0.000 A 
ATOM     22  C   UNL     1       4.689   5.280  19.362  0.00  0.00    +0.000 A 
ATOM     23  C   UNL     1       6.036   5.013  19.166  0.00  0.00    +0.000 A 
ATOM     24  C   UNL     1       6.464   4.576  17.912  0.00  0.00    +0.000 A 
ATOM     25  F   UNL     1       7.765   4.300  17.722  0.00  0.00    +0.000 F 
ATOM     26  C   UNL     1       5.569   4.405  16.863  0.00  0.00    +0.000 A 
ATOM     27  C   UNL     1       4.214   4.670  17.059  0.00  0.00    +0.000 A 
ENDBRANCH  20  21
ENDBRANCH  19  20
ENDBRANCH  17  19
ENDBRANCH   4  13
BRANCH   1  29
ATOM     28  N   UNL     1      -0.815  14.423  19.093  0.00  0.00    +0.000 N 
ATOM     29  C   UNL     1      -0.849  13.952  20.385  0.00  0.00    +0.000 C 
ATOM     30  O   UNL     1       0.065  14.230  21.155  0.00  0.00    +0.000 OA
ATOM     31  H   UNL     1      -0.084  15.102  18.913  0.00  0.00    +0.000 HD
ATOM     32  H   UNL     1      -1.668  14.589  18.576  0.00  0.00    +0.000 HD
ENDBRANCH   1  29
TORSDOF 5
ENDMDL
MODEL 7
REMARK VINA RESULT:      -8.9      3.673      8.673
REMARK  Name = 
REMARK  5 active torsions:
REMARK  status: ('A' for Active; 'I' for Inactive)
REMARK    1  A    between atoms: C_2  and  C_4
REMARK    2  A    between atoms: C_7  and  C_9
REMARK    3  A    between atoms: C_13  and  O_14
REMARK    4  A    between atoms: O_14  and  C_15
REMARK    5  A    between atoms: C_15  and  C_16
REMARK                            x       y       z     vdW  Elec       q    Type
REMARK                         _______ _______ _______ _____ _____    ______ ____
ROOT
ATOM      1  C   UNL     1      -1.965  13.038  20.874  0.00  0.00    +0.000 C 
ATOM      2  C   UNL     1      -1.495  11.693  21.386  0.00  0.00    +0.000 C 
ATOM      3  N   UNL     1      -0.779  10.995  20.312  0.00  0.00    +0.000 N 
ATOM      4  C   UNL     1       0.569  10.674  20.572  0.00  0.00    +0.000 C 
ATOM      5  O   UNL     1       1.172  11.119  21.551  0.00  0.00    +0.000 OA
ATOM      6  C   UNL     1      -1.565  10.919  19.103  0.00  0.00    +0.000 A 
ATOM      7  C   UNL     1      -1.362  10.047  18.034  0.00  0.00    +0.000 A 
ATOM      8  C   UNL     1      -2.323   9.851  17.031  0.00  0.00    +0.000 A 
ATOM      9  C   UNL     1      -3.462  10.636  17.005  0.00  0.00    +0.000 A 
ATOM     10  C   UNL     1      -3.616  11.630  17.957  0.00  0.00    +0.000 A 
ATOM     11  C   UNL     1      -2.682  11.781  18.989  0.00  0.00    +0.000 A 
ATOM     12  O   UNL     1      -2.929  12.840  19.836  0.00  0.00    +0.000 OA
ENDROOT
BRANCH   4  13
ATOM     13  C   UNL     1       1.330   9.762  19.709  0.00  0.00    +0.000 A 
ATOM     14  C   UNL     1       1.813  10.170  18.466  0.00  0.00    +0.000 A 
ATOM     15  C   UNL     1       2.369   9.218  17.611  0.00  0.00    +0.000 A 
ATOM     16  C   UNL     1       2.405   7.875  17.997  0.00  0.00    +0.000 A 
ATOM     17  C   UNL     1       1.999   7.497  19.278  0.00  0.00    +0.000 A 
ATOM     18  C   UNL     1       1.553   8.468  20.169  0.00  0.00    +0.000 A 
BRANCH  17  19
ATOM     19  O   UNL     1       1.971   6.156  19.530  0.00  0.00    +0.000 OA
BRANCH  19  20
ATOM     20  C   UNL     1       3.143   5.604  20.135  0.00  0.00    +0.000 C 
BRANCH  20  21
ATOM     21  C   UNL     1       4.005   5.020  19.056  0.00  0.00    +0.000 A 
ATOM     22  C   UNL     1       3.404   4.235  18.064  0.00  0.00    +0.000 A 
ATOM     23  C   UNL     1       4.147   3.765  16.991  0.00  0.00    +0.000 A 
ATOM     24  C   UNL     1       5.504   4.083  16.917  0.00  0.00    +0.000 A 
ATOM     25  F   UNL     1       6.225   3.645  15.872  0.00  0.00    +0.000 F 
ATOM     26  C   UNL     1       6.119   4.856  17.894  0.00  0.00    +0.000 A 
ATOM     27  C   UNL     1       5.373   5.332  18.971  0.00  0.00    +0.000 A 
ENDBRANCH  20  21
ENDBRANCH  19  20
ENDBRANCH  17  19
ENDBRANCH   4  13
BRANCH   1  29
ATOM     28  N   UNL     1       0.152  14.127  21.561  0.00  0.00    +0.000 N 
ATOM     29  C   UNL     1      -0.751  13.936  20.540  0.00  0.00    +0.000 C 
ATOM     30  O   UNL     1      -0.575  14.500  19.465  0.00  0.00    +0.000 OA
ATOM     31  H   UNL     1       0.993  14.622  21.291  0.00  0.00    +0.000 HD
ATOM     32  H   UNL     1       0.299  13.416  22.265  0.00  0.00    +0.000 HD
ENDBRANCH   1  29
TORSDOF 5
ENDMDL
MODEL 8
REMARK VINA RESULT:      -8.7      1.832      2.318
REMARK  Name = 
REMARK  5 active torsions:
REMARK  status: ('A' for Active; 'I' for Inactive)
REMARK    1  A    between atoms: C_2  and  C_4
REMARK    2  A    between atoms: C_7  and  C_9
REMARK    3  A    between atoms: C_13  and  O_14
REMARK    4  A    between atoms: O_14  and  C_15
REMARK    5  A    between atoms: C_15  and  C_16
REMARK                            x       y       z     vdW  Elec       q    Type
REMARK                         _______ _______ _______ _____ _____    ______ ____
ROOT
ATOM      1  C   UNL     1       5.047   4.317  17.803  0.00  0.00    +0.000 C 
ATOM      2  C   UNL     1       3.999   5.158  17.104  0.00  0.00    +0.000 C 
ATOM      3  N   UNL     1       3.169   5.825  18.113  0.00  0.00    +0.000 N 
ATOM      4  C   UNL     1       3.175   7.235  18.087  0.00  0.00    +0.000 C 
ATOM      5  O   UNL     1       3.972   7.875  17.397  0.00  0.00    +0.000 OA
ATOM      6  C   UNL     1       2.625   4.888  19.067  0.00  0.00    +0.000 A 
ATOM      7  C   UNL     1       1.542   5.103  19.919  0.00  0.00    +0.000 A 
ATOM      8  C   UNL     1       0.911   4.060  20.611  0.00  0.00    +0.000 A 
ATOM      9  C   UNL     1       1.445   2.784  20.571  0.00  0.00    +0.000 A 
ATOM     10  C   UNL     1       2.620   2.568  19.871  0.00  0.00    +0.000 A 
ATOM     11  C   UNL     1       3.213   3.601  19.134  0.00  0.00    +0.000 A 
ATOM     12  O   UNL     1       4.403   3.264  18.527  0.00  0.00    +0.000 OA
ENDROOT
BRANCH   4  13
ATOM     13  C   UNL     1       2.209   8.029  18.856  0.00  0.00    +0.000 A 
ATOM     14  C   UNL     1       2.084   7.885  20.237  0.00  0.00    +0.000 A 
ATOM     15  C   UNL     1       1.032   8.527  20.891  0.00  0.00    +0.000 A 
ATOM     16  C   UNL     1       0.108   9.274  20.155  0.00  0.00    +0.000 A 
ATOM     17  C   UNL     1       0.297   9.481  18.787  0.00  0.00    +0.000 A 
ATOM     18  C   UNL     1       1.413   8.933  18.160  0.00  0.00    +0.000 A 
BRANCH  17  19
ATOM     19  O   UNL     1      -0.706  10.133  18.132  0.00  0.00    +0.000 OA
BRANCH  19  20
ATOM     20  C   UNL     1      -0.694  11.560  18.221  0.00  0.00    +0.000 C 
BRANCH  20  21
ATOM     21  C   UNL     1      -1.933  12.002  18.941  0.00  0.00    +0.000 A 
ATOM     22  C   UNL     1      -3.180  11.717  18.373  0.00  0.00    +0.000 A 
ATOM     23  C   UNL     1      -4.350  12.014  19.057  0.00  0.00    +0.000 A 
ATOM     24  C   UNL     1      -4.266  12.604  20.319  0.00  0.00    +0.000 A 
ATOM     25  F   UNL     1      -5.395  12.878  20.992  0.00  0.00    +0.000 F 
ATOM     26  C   UNL     1      -3.037  12.898  20.897  0.00  0.00    +0.000 A 
ATOM     27  C   UNL     1      -1.860  12.597  20.212  0.00  0.00    +0.000 A 
ENDBRANCH  20  21
ENDBRANCH  19  20
ENDBRANCH  17  19
ENDBRANCH   4  13
BRANCH   1  29
ATOM     28  N   UNL     1       6.621   6.227  17.877  0.00  0.00    +0.000 N 
ATOM     29  C   UNL     1       6.017   5.222  18.596  0.00  0.00    +0.000 C 
ATOM     30  O   UNL     1       6.297   5.075  19.782  0.00  0.00    +0.000 OA
ATOM     31  H   UNL     1       7.163   6.876  18.436  0.00  0.00    +0.000 HD
ATOM     32  H   UNL     1       6.158   6.652  17.085  0.00  0.00    +0.000 HD
ENDBRANCH   1  29
TORSDOF 5
ENDMDL
MODEL 9
REMARK VINA RESULT:      -8.6      2.830      3.728
REMARK  Name = 
REMARK  5 active torsions:
REMARK  status: ('A' for Active; 'I' for Inactive)
REMARK    1  A    between atoms: C_2  and  C_4
REMARK    2  A    between atoms: C_7  and  C_9
REMARK    3  A    between atoms: C_13  and  O_14
REMARK    4  A    between atoms: O_14  and  C_15
REMARK    5  A    between atoms: C_15  and  C_16
REMARK                            x       y       z     vdW  Elec       q    Type
REMARK                         _______ _______ _______ _____ _____    ______ ____
ROOT
ATOM      1  C   UNL     1       4.961   4.010  17.694  0.00  0.00    +0.000 C 
ATOM      2  C   UNL     1       3.929   4.915  17.055  0.00  0.00    +0.000 C 
ATOM      3  N   UNL     1       3.186   5.613  18.111  0.00  0.00    +0.000 N 
ATOM      4  C   UNL     1       3.267   7.020  18.100  0.00  0.00    +0.000 C 
ATOM      5  O   UNL     1       4.064   7.626  17.379  0.00  0.00    +0.000 OA
ATOM      6  C   UNL     1       2.638   4.693  19.079  0.00  0.00    +0.000 A 
ATOM      7  C   UNL     1       1.610   4.955  19.984  0.00  0.00    +0.000 A 
ATOM      8  C   UNL     1       0.956   3.938  20.695  0.00  0.00    +0.000 A 
ATOM      9  C   UNL     1       1.418   2.635  20.615  0.00  0.00    +0.000 A 
ATOM     10  C   UNL     1       2.544   2.366  19.857  0.00  0.00    +0.000 A 
ATOM     11  C   UNL     1       3.157   3.376  19.104  0.00  0.00    +0.000 A 
ATOM     12  O   UNL     1       4.297   2.983  18.436  0.00  0.00    +0.000 OA
ENDROOT
BRANCH   4  13
ATOM     13  C   UNL     1       2.384   7.855  18.923  0.00  0.00    +0.000 A 
ATOM     14  C   UNL     1       2.098   7.525  20.247  0.00  0.00    +0.000 A 
ATOM     15  C   UNL     1       1.114   8.247  20.926  0.00  0.00    +0.000 A 
ATOM     16  C   UNL     1       0.415   9.260  20.264  0.00  0.00    +0.000 A 
ATOM     17  C   UNL     1       0.774   9.636  18.968  0.00  0.00    +0.000 A 
ATOM     18  C   UNL     1       1.833   8.990  18.337  0.00  0.00    +0.000 A 
BRANCH  17  19
ATOM     19  O   UNL     1      -0.029  10.560  18.365  0.00  0.00    +0.000 OA
BRANCH  19  20
ATOM     20  C   UNL     1      -0.318  11.736  19.126  0.00  0.00    +0.000 C 
BRANCH  20  21
ATOM     21  C   UNL     1       0.953  12.511  19.305  0.00  0.00    +0.000 A 
ATOM     22  C   UNL     1       1.609  13.001  18.171  0.00  0.00    +0.000 A 
ATOM     23  C   UNL     1       2.728  13.811  18.299  0.00  0.00    +0.000 A 
ATOM     24  C   UNL     1       3.192  14.127  19.576  0.00  0.00    +0.000 A 
ATOM     25  F   UNL     1       4.265  14.925  19.706  0.00  0.00    +0.000 F 
ATOM     26  C   UNL     1       2.557  13.646  20.714  0.00  0.00    +0.000 A 
ATOM     27  C   UNL     1       1.430  12.834  20.587  0.00  0.00    +0.000 A 
ENDBRANCH  20  21
ENDBRANCH  19  20
ENDBRANCH  17  19
ENDBRANCH   4  13
BRANCH   1  29
ATOM     28  N   UNL     1       6.710   5.765  17.690  0.00  0.00    +0.000 N 
ATOM     29  C   UNL     1       6.016   4.851  18.449  0.00  0.00    +0.000 C 
ATOM     30  O   UNL     1       6.286   4.725  19.640  0.00  0.00    +0.000 OA
ATOM     31  H   UNL     1       7.312   6.381  18.221  0.00  0.00    +0.000 HD
ATOM     32  H   UNL     1       6.285   6.199  16.881  0.00  0.00    +0.000 HD
ENDBRANCH   1  29
TORSDOF 5
ENDMDL
