MODEL 1
REMARK VINA RESULT:      -8.3      0.000      0.000
REMARK  Name = 
REMARK  5 active torsions:
REMARK  status: ('A' for Active; 'I' for Inactive)
REMARK    1  A    between atoms: C_1  and  C_2
REMARK    2  A    between atoms: C_9  and  C_10
REMARK    3  A    between atoms: N_12  and  C_13
REMARK    4  A    between atoms: N_19  and  C_20
REMARK    5  A    between atoms: N_19  and  C_21
REMARK                            x       y       z     vdW  Elec       q    Type
REMARK                         _______ _______ _______ _____ _____    ______ ____
ROOT
ATOM      1  C   UNL     1       1.455   8.834  19.937  0.00  0.00    +0.000 C 
ATOM      2  O   UNL     1       1.343   9.144  21.121  0.00  0.00    +0.000 OA
ATOM      3  N   UNL     1       1.180   9.645  18.850  0.00  0.00    +0.000 N 
ATOM      4  H   UNL     1       1.117   9.203  17.942  0.00  0.00    +0.000 HD
ENDROOT
BRANCH   3   5
ATOM      5  C   UNL     1       0.756  10.994  18.920  0.00  0.00    +0.000 A 
ATOM      6  C   UNL     1      -0.578  11.375  19.054  0.00  0.00    +0.000 A 
ATOM      7  C   UNL     1      -0.937  12.730  19.069  0.00  0.00    +0.000 A 
ATOM      8  C   UNL     1       0.004  13.739  18.939  0.00  0.00    +0.000 A 
ATOM      9  N   UNL     1      -0.395  15.026  18.921  0.00  0.00    +0.000 NA
ATOM     10  C   UNL     1       0.497  16.033  18.761  0.00  0.00    +0.000 A 
ATOM     11  N   UNL     1       0.020  17.329  18.729  0.00  0.00    +0.000 N 
ATOM     12  C   UNL     1       0.833  18.520  18.558  0.00  0.00    +0.000 C 
ATOM     13  C   UNL     1      -1.408  17.569  18.907  0.00  0.00    +0.000 C 
ATOM     14  C   UNL     1       1.846  15.717  18.628  0.00  0.00    +0.000 A 
ATOM     15  C   UNL     1       2.276  14.389  18.664  0.00  0.00    +0.000 A 
ATOM     16  C   UNL     1       1.348  13.363  18.820  0.00  0.00    +0.000 A 
ATOM     17  C   UNL     1       1.723  12.000  18.836  0.00  0.00    +0.000 A 
ENDBRANCH   3   5
BRANCH   1  26
ATOM     18  C   UNL     1       4.284   3.187  17.088  0.00  0.00    +0.000 C 
ATOM     19  C   UNL     1       3.755   2.621  18.373  0.00  0.00    +0.000 C 
ATOM     20  O   UNL     1       3.957   1.431  18.633  0.00  0.00    +0.000 OA
ATOM     21  N   UNL     1       3.079   3.441  19.252  0.00  0.00    +0.000 N 
ATOM     22  C   UNL     1       2.711   2.910  20.575  0.00  0.00    +0.000 C 
ATOM     23  C   UNL     1       1.902   3.987  21.297  0.00  0.00    +0.000 C 
ATOM     24  C   UNL     1       2.085   5.162  20.389  0.00  0.00    +0.000 A 
ATOM     25  C   UNL     1       1.661   6.462  20.628  0.00  0.00    +0.000 A 
ATOM     26  C   UNL     1       1.856   7.430  19.635  0.00  0.00    +0.000 A 
ATOM     27  C   UNL     1       2.465   7.070  18.421  0.00  0.00    +0.000 A 
ATOM     28  C   UNL     1       2.896   5.751  18.202  0.00  0.00    +0.000 A 
ATOM     29  C   UNL     1       2.718   4.801  19.196  0.00  0.00    +0.000 A 
ENDBRANCH   1  26
TORSDOF 2
ENDMDL
MODEL 2
REMARK VINA RESULT:      -8.3      1.055      1.948
REMARK  Name = 
REMARK  5 active torsions:
REMARK  status: ('A' for Active; 'I' for Inactive)
REMARK    1  A    between atoms: C_1  and  C_2
REMARK    2  A    between atoms: C_9  and  C_10
REMARK    3  A    between atoms: N_12  and  C_13
REMARK    4  A    between atoms: N_19  and  C_20
REMARK    5  A    between atoms: N_19  and  C_21
REMARK                            x       y       z     vdW  Elec       q    Type
REMARK                         _______ _______ _______ _____ _____    ______ ____
ROOT
ATOM      1  C   UNL     1       1.775   9.188  18.524  0.00  0.00    +0.000 C 
ATOM      2  O   UNL     1       1.944   9.640  17.393  0.00  0.00    +0.000 OA
ATOM      3  N   UNL     1       1.228   9.864  19.600  0.00  0.00    +0.000 N 
ATOM      4  H   UNL     1       1.337   9.447  20.516  0.00  0.00    +0.000 HD
ENDROOT
BRANCH   3   5
ATOM      5  C   UNL     1       0.730  11.188  19.570  0.00  0.00    +0.000 A 
ATOM      6  C   UNL     1      -0.611  11.510  19.773  0.00  0.00    +0.000 A 
ATOM      7  C   UNL     1      -1.050  12.839  19.683  0.00  0.00    +0.000 A 
ATOM      8  C   UNL     1      -0.184  13.878  19.379  0.00  0.00    +0.000 A 
ATOM      9  N   UNL     1      -0.660  15.133  19.267  0.00  0.00    +0.000 NA
ATOM     10  C   UNL     1       0.154  16.163  18.937  0.00  0.00    +0.000 A 
ATOM     11  N   UNL     1      -0.402  17.422  18.816  0.00  0.00    +0.000 N 
ATOM     12  C   UNL     1       0.323  18.631  18.463  0.00  0.00    +0.000 C 
ATOM     13  C   UNL     1      -1.824  17.603  19.084  0.00  0.00    +0.000 C 
ATOM     14  C   UNL     1       1.506  15.907  18.728  0.00  0.00    +0.000 A 
ATOM     15  C   UNL     1       2.018  14.614  18.859  0.00  0.00    +0.000 A 
ATOM     16  C   UNL     1       1.168  13.562  19.191  0.00  0.00    +0.000 A 
ATOM     17  C   UNL     1       1.625  12.229  19.311  0.00  0.00    +0.000 A 
ENDBRANCH   3   5
BRANCH   1  26
ATOM     18  C   UNL     1       2.687   2.825  21.109  0.00  0.00    +0.000 C 
ATOM     19  C   UNL     1       3.532   2.751  19.869  0.00  0.00    +0.000 C 
ATOM     20  O   UNL     1       4.096   1.688  19.590  0.00  0.00    +0.000 OA
ATOM     21  N   UNL     1       3.642   3.856  19.053  0.00  0.00    +0.000 N 
ATOM     22  C   UNL     1       4.339   3.718  17.764  0.00  0.00    +0.000 C 
ATOM     23  C   UNL     1       4.392   5.100  17.115  0.00  0.00    +0.000 C 
ATOM     24  C   UNL     1       3.487   5.888  18.008  0.00  0.00    +0.000 A 
ATOM     25  C   UNL     1       3.067   7.197  17.810  0.00  0.00    +0.000 A 
ATOM     26  C   UNL     1       2.270   7.807  18.787  0.00  0.00    +0.000 A 
ATOM     27  C   UNL     1       1.919   7.093  19.944  0.00  0.00    +0.000 A 
ATOM     28  C   UNL     1       2.345   5.766  20.123  0.00  0.00    +0.000 A 
ATOM     29  C   UNL     1       3.118   5.160  19.143  0.00  0.00    +0.000 A 
ENDBRANCH   1  26
TORSDOF 2
ENDMDL
MODEL 3
REMARK VINA RESULT:      -8.3      0.519      1.664
REMARK  Name = 
REMARK  5 active torsions:
REMARK  status: ('A' for Active; 'I' for Inactive)
REMARK    1  A    between atoms: C_1  and  C_2
REMARK    2  A    between atoms: C_9  and  C_10
REMARK    3  A    between atoms: N_12  and  C_13
REMARK    4  A    between atoms: N_19  and  C_20
REMARK    5  A    between atoms: N_19  and  C_21
REMARK                            x       y       z     vdW  Elec       q    Type
REMARK                         _______ _______ _______ _____ _____    ______ ____
ROOT
ATOM      1  C   UNL     1       1.484   8.909  19.938  0.00  0.00    +0.000 C 
ATOM      2  O   UNL     1       1.226   9.210  21.101  0.00  0.00    +0.000 OA
ATOM      3  N   UNL     1       1.328   9.722  18.829  0.00  0.00    +0.000 N 
ATOM      4  H   UNL     1       1.381   9.284  17.919  0.00  0.00    +0.000 HD
ENDROOT
BRANCH   3   5
ATOM      5  C   UNL     1       0.878  11.064  18.853  0.00  0.00    +0.000 A 
ATOM      6  C   UNL     1      -0.468  11.423  18.866  0.00  0.00    +0.000 A 
ATOM      7  C   UNL     1      -0.849  12.773  18.841  0.00  0.00    +0.000 A 
ATOM      8  C   UNL     1       0.083  13.797  18.789  0.00  0.00    +0.000 A 
ATOM      9  N   UNL     1      -0.332  15.077  18.728  0.00  0.00    +0.000 NA
ATOM     10  C   UNL     1       0.554  16.097  18.642  0.00  0.00    +0.000 A 
ATOM     11  N   UNL     1       0.061  17.385  18.560  0.00  0.00    +0.000 N 
ATOM     12  C   UNL     1       0.867  18.589  18.455  0.00  0.00    +0.000 C 
ATOM     13  C   UNL     1      -1.381  17.602  18.609  0.00  0.00    +0.000 C 
ATOM     14  C   UNL     1       1.914  15.803  18.632  0.00  0.00    +0.000 A 
ATOM     15  C   UNL     1       2.361  14.482  18.713  0.00  0.00    +0.000 A 
ATOM     16  C   UNL     1       1.439  13.442  18.792  0.00  0.00    +0.000 A 
ATOM     17  C   UNL     1       1.833  12.085  18.850  0.00  0.00    +0.000 A 
ENDBRANCH   3   5
BRANCH   1  26
ATOM     18  C   UNL     1       2.164   2.014  19.989  0.00  0.00    +0.000 C 
ATOM     19  C   UNL     1       3.054   2.377  18.835  0.00  0.00    +0.000 C 
ATOM     20  O   UNL     1       3.606   1.476  18.196  0.00  0.00    +0.000 OA
ATOM     21  N   UNL     1       3.218   3.703  18.493  0.00  0.00    +0.000 N 
ATOM     22  C   UNL     1       3.961   4.031  17.266  0.00  0.00    +0.000 C 
ATOM     23  C   UNL     1       4.068   5.552  17.180  0.00  0.00    +0.000 C 
ATOM     24  C   UNL     1       3.145   5.981  18.277  0.00  0.00    +0.000 A 
ATOM     25  C   UNL     1       2.761   7.283  18.569  0.00  0.00    +0.000 A 
ATOM     26  C   UNL     1       1.940   7.513  19.680  0.00  0.00    +0.000 A 
ATOM     27  C   UNL     1       1.529   6.433  20.478  0.00  0.00    +0.000 A 
ATOM     28  C   UNL     1       1.921   5.120  20.161  0.00  0.00    +0.000 A 
ATOM     29  C   UNL     1       2.718   4.896  19.048  0.00  0.00    +0.000 A 
ENDBRANCH   1  26
TORSDOF 2
ENDMDL
MODEL 4
REMARK VINA RESULT:      -8.3      2.859      3.484
REMARK  Name = 
REMARK  5 active torsions:
REMARK  status: ('A' for Active; 'I' for Inactive)
REMARK    1  A    between atoms: C_1  and  C_2
REMARK    2  A    between atoms: C_9  and  C_10
REMARK    3  A    between atoms: N_12  and  C_13
REMARK    4  A    between atoms: N_19  and  C_20
REMARK    5  A    between atoms: N_19  and  C_21
REMARK                            x       y       z     vdW  Elec       q    Type
REMARK                         _______ _______ _______ _____ _____    ______ ____
ROOT
ATOM      1  C   UNL     1       1.384   8.638  21.130  0.00  0.00    +0.000 C 
ATOM      2  O   UNL     1       1.654   8.690  22.328  0.00  0.00    +0.000 OA
ATOM      3  N   UNL     1       0.740   9.617  20.394  0.00  0.00    +0.000 N 
ATOM      4  H   UNL     1       0.400   9.361  19.476  0.00  0.00    +0.000 HD
ENDROOT
BRANCH   3   5
ATOM      5  C   UNL     1       0.313  10.871  20.893  0.00  0.00    +0.000 A 
ATOM      6  C   UNL     1       0.992  12.064  20.655  0.00  0.00    +0.000 A 
ATOM      7  C   UNL     1       0.543  13.268  21.218  0.00  0.00    +0.000 A 
ATOM      8  C   UNL     1      -0.574  13.322  22.037  0.00  0.00    +0.000 A 
ATOM      9  N   UNL     1      -0.944  14.495  22.585  0.00  0.00    +0.000 NA
ATOM     10  C   UNL     1      -2.010  14.574  23.417  0.00  0.00    +0.000 A 
ATOM     11  N   UNL     1      -2.322  15.804  23.964  0.00  0.00    +0.000 N 
ATOM     12  C   UNL     1      -3.422  16.063  24.877  0.00  0.00    +0.000 C 
ATOM     13  C   UNL     1      -1.527  16.970  23.598  0.00  0.00    +0.000 C 
ATOM     14  C   UNL     1      -2.733  13.416  23.690  0.00  0.00    +0.000 A 
ATOM     15  C   UNL     1      -2.373  12.196  23.114  0.00  0.00    +0.000 A 
ATOM     16  C   UNL     1      -1.270  12.127  22.267  0.00  0.00    +0.000 A 
ATOM     17  C   UNL     1      -0.843  10.915  21.677  0.00  0.00    +0.000 A 
ENDBRANCH   3   5
BRANCH   1  26
ATOM     18  C   UNL     1       4.149   3.951  16.842  0.00  0.00    +0.000 C 
ATOM     19  C   UNL     1       3.403   3.059  17.793  0.00  0.00    +0.000 C 
ATOM     20  O   UNL     1       3.476   1.835  17.649  0.00  0.00    +0.000 OA
ATOM     21  N   UNL     1       2.675   3.618  18.821  0.00  0.00    +0.000 N 
ATOM     22  C   UNL     1       2.086   2.730  19.836  0.00  0.00    +0.000 C 
ATOM     23  C   UNL     1       1.268   3.596  20.792  0.00  0.00    +0.000 C 
ATOM     24  C   UNL     1       1.665   4.974  20.365  0.00  0.00    +0.000 A 
ATOM     25  C   UNL     1       1.311   6.164  20.988  0.00  0.00    +0.000 A 
ATOM     26  C   UNL     1       1.716   7.375  20.411  0.00  0.00    +0.000 A 
ATOM     27  C   UNL     1       2.460   7.365  19.220  0.00  0.00    +0.000 A 
ATOM     28  C   UNL     1       2.816   6.150  18.610  0.00  0.00    +0.000 A 
ATOM     29  C   UNL     1       2.430   4.953  19.195  0.00  0.00    +0.000 A 
ENDBRANCH   1  26
TORSDOF 2
ENDMDL
MODEL 5
REMARK VINA RESULT:      -8.0      3.468     10.494
REMARK  Name = 
REMARK  5 active torsions:
REMARK  status: ('A' for Active; 'I' for Inactive)
REMARK    1  A    between atoms: C_1  and  C_2
REMARK    2  A    between atoms: C_9  and  C_10
REMARK    3  A    between atoms: N_12  and  C_13
REMARK    4  A    between atoms: N_19  and  C_20
REMARK    5  A    between atoms: N_19  and  C_21
REMARK                            x       y       z     vdW  Elec       q    Type
REMARK                         _______ _______ _______ _____ _____    ______ ____
ROOT
ATOM      1  C   UNL     1       0.357  10.396  21.878  0.00  0.00    +0.000 C 
ATOM      2  O   UNL     1       1.037   9.892  22.769  0.00  0.00    +0.000 OA
ATOM      3  N   UNL     1       0.343  10.017  20.547  0.00  0.00    +0.000 N 
ATOM      4  H   UNL     1      -0.102  10.644  19.889  0.00  0.00    +0.000 HD
ENDROOT
BRANCH   3   5
ATOM      5  C   UNL     1       1.088   8.950  19.990  0.00  0.00    +0.000 A 
ATOM      6  C   UNL     1       1.715   9.017  18.747  0.00  0.00    +0.000 A 
ATOM      7  C   UNL     1       2.398   7.907  18.229  0.00  0.00    +0.000 A 
ATOM      8  C   UNL     1       2.470   6.705  18.915  0.00  0.00    +0.000 A 
ATOM      9  N   UNL     1       3.106   5.655  18.360  0.00  0.00    +0.000 NA
ATOM     10  C   UNL     1       3.163   4.458  18.990  0.00  0.00    +0.000 A 
ATOM     11  N   UNL     1       3.811   3.417  18.356  0.00  0.00    +0.000 N 
ATOM     12  C   UNL     1       3.958   2.071  18.884  0.00  0.00    +0.000 C 
ATOM     13  C   UNL     1       4.440   3.650  17.061  0.00  0.00    +0.000 C 
ATOM     14  C   UNL     1       2.562   4.330  20.239  0.00  0.00    +0.000 A 
ATOM     15  C   UNL     1       1.915   5.414  20.836  0.00  0.00    +0.000 A 
ATOM     16  C   UNL     1       1.856   6.638  20.173  0.00  0.00    +0.000 A 
ATOM     17  C   UNL     1       1.192   7.761  20.717  0.00  0.00    +0.000 A 
ENDBRANCH   3   5
BRANCH   1  26
ATOM     18  C   UNL     1      -2.444  16.724  22.214  0.00  0.00    +0.000 C 
ATOM     19  C   UNL     1      -3.424  15.937  23.035  0.00  0.00    +0.000 C 
ATOM     20  O   UNL     1      -4.418  16.509  23.494  0.00  0.00    +0.000 OA
ATOM     21  N   UNL     1      -3.213  14.590  23.240  0.00  0.00    +0.000 N 
ATOM     22  C   UNL     1      -4.263  13.803  23.908  0.00  0.00    +0.000 C 
ATOM     23  C   UNL     1      -3.734  12.380  24.084  0.00  0.00    +0.000 C 
ATOM     24  C   UNL     1      -2.482  12.420  23.267  0.00  0.00    +0.000 A 
ATOM     25  C   UNL     1      -1.657  11.344  22.970  0.00  0.00    +0.000 A 
ATOM     26  C   UNL     1      -0.481  11.573  22.244  0.00  0.00    +0.000 A 
ATOM     27  C   UNL     1      -0.157  12.878  21.838  0.00  0.00    +0.000 A 
ATOM     28  C   UNL     1      -1.010  13.953  22.140  0.00  0.00    +0.000 A 
ATOM     29  C   UNL     1      -2.182  13.718  22.842  0.00  0.00    +0.000 A 
ENDBRANCH   1  26
TORSDOF 2
ENDMDL
MODEL 6
REMARK VINA RESULT:      -7.9      3.333      4.446
REMARK  Name = 
REMARK  5 active torsions:
REMARK  status: ('A' for Active; 'I' for Inactive)
REMARK    1  A    between atoms: C_1  and  C_2
REMARK    2  A    between atoms: C_9  and  C_10
REMARK    3  A    between atoms: N_12  and  C_13
REMARK    4  A    between atoms: N_19  and  C_20
REMARK    5  A    between atoms: N_19  and  C_21
REMARK                            x       y       z     vdW  Elec       q    Type
REMARK                         _______ _______ _______ _____ _____    ______ ____
ROOT
ATOM      1  C   UNL     1       1.490   8.359  19.111  0.00  0.00    +0.000 C 
ATOM      2  O   UNL     1       1.114   8.179  20.267  0.00  0.00    +0.000 OA
ATOM      3  N   UNL     1       0.907   9.206  18.185  0.00  0.00    +0.000 N 
ATOM      4  H   UNL     1       1.189   9.104  17.218  0.00  0.00    +0.000 HD
ENDROOT
BRANCH   3   5
ATOM      5  C   UNL     1      -0.208  10.044  18.427  0.00  0.00    +0.000 A 
ATOM      6  C   UNL     1      -0.216  11.053  19.388  0.00  0.00    +0.000 A 
ATOM      7  C   UNL     1      -1.370  11.818  19.612  0.00  0.00    +0.000 A 
ATOM      8  C   UNL     1      -2.543  11.600  18.907  0.00  0.00    +0.000 A 
ATOM      9  N   UNL     1      -3.636  12.336  19.185  0.00  0.00    +0.000 NA
ATOM     10  C   UNL     1      -4.806  12.122  18.537  0.00  0.00    +0.000 A 
ATOM     11  N   UNL     1      -5.896  12.897  18.886  0.00  0.00    +0.000 N 
ATOM     12  C   UNL     1      -7.222  12.795  18.300  0.00  0.00    +0.000 C 
ATOM     13  C   UNL     1      -5.740  13.934  19.899  0.00  0.00    +0.000 C 
ATOM     14  C   UNL     1      -4.860  11.132  17.561  0.00  0.00    +0.000 A 
ATOM     15  C   UNL     1      -3.730  10.373  17.249  0.00  0.00    +0.000 A 
ATOM     16  C   UNL     1      -2.535  10.597  17.928  0.00  0.00    +0.000 A 
ATOM     17  C   UNL     1      -1.367   9.842  17.673  0.00  0.00    +0.000 A 
ENDBRANCH   3   5
BRANCH   1  26
ATOM     18  C   UNL     1       7.207   6.162  15.872  0.00  0.00    +0.000 C 
ATOM     19  C   UNL     1       7.017   5.069  16.883  0.00  0.00    +0.000 C 
ATOM     20  O   UNL     1       7.846   4.156  16.942  0.00  0.00    +0.000 OA
ATOM     21  N   UNL     1       5.941   5.117  17.744  0.00  0.00    +0.000 N 
ATOM     22  C   UNL     1       5.860   4.128  18.831  0.00  0.00    +0.000 C 
ATOM     23  C   UNL     1       4.538   4.353  19.564  0.00  0.00    +0.000 C 
ATOM     24  C   UNL     1       4.074   5.641  18.961  0.00  0.00    +0.000 A 
ATOM     25  C   UNL     1       2.970   6.385  19.355  0.00  0.00    +0.000 A 
ATOM     26  C   UNL     1       2.639   7.538  18.632  0.00  0.00    +0.000 A 
ATOM     27  C   UNL     1       3.418   7.914  17.526  0.00  0.00    +0.000 A 
ATOM     28  C   UNL     1       4.538   7.154  17.149  0.00  0.00    +0.000 A 
ATOM     29  C   UNL     1       4.873   6.024  17.880  0.00  0.00    +0.000 A 
ENDBRANCH   1  26
TORSDOF 2
ENDMDL
MODEL 7
REMARK VINA RESULT:      -7.9      3.303      3.902
REMARK  Name = 
REMARK  5 active torsions:
REMARK  status: ('A' for Active; 'I' for Inactive)
REMARK    1  A    between atoms: C_1  and  C_2
REMARK    2  A    between atoms: C_9  and  C_10
REMARK    3  A    between atoms: N_12  and  C_13
REMARK    4  A    between atoms: N_19  and  C_20
REMARK    5  A    between atoms: N_19  and  C_21
REMARK                            x       y       z     vdW  Elec       q    Type
REMARK                         _______ _______ _______ _____ _____    ______ ____
ROOT
ATOM      1  C   UNL     1       1.356   8.324  20.470  0.00  0.00    +0.000 C 
ATOM      2  O   UNL     1       1.277   7.977  21.646  0.00  0.00    +0.000 OA
ATOM      3  N   UNL     1       0.737   9.421  19.898  0.00  0.00    +0.000 N 
ATOM      4  H   UNL     1       0.720   9.472  18.887  0.00  0.00    +0.000 HD
ENDROOT
BRANCH   3   5
ATOM      5  C   UNL     1      -0.069  10.360  20.586  0.00  0.00    +0.000 A 
ATOM      6  C   UNL     1       0.070  10.643  21.943  0.00  0.00    +0.000 A 
ATOM      7  C   UNL     1      -0.792  11.549  22.577  0.00  0.00    +0.000 A 
ATOM      8  C   UNL     1      -1.817  12.186  21.895  0.00  0.00    +0.000 A 
ATOM      9  N   UNL     1      -2.643  13.019  22.556  0.00  0.00    +0.000 NA
ATOM     10  C   UNL     1      -3.674  13.629  21.924  0.00  0.00    +0.000 A 
ATOM     11  N   UNL     1      -4.498  14.454  22.666  0.00  0.00    +0.000 N 
ATOM     12  C   UNL     1      -5.649  15.176  22.150  0.00  0.00    +0.000 C 
ATOM     13  C   UNL     1      -4.208  14.670  24.079  0.00  0.00    +0.000 C 
ATOM     14  C   UNL     1      -3.862  13.391  20.566  0.00  0.00    +0.000 A 
ATOM     15  C   UNL     1      -3.003  12.544  19.863  0.00  0.00    +0.000 A 
ATOM     16  C   UNL     1      -1.951  11.917  20.526  0.00  0.00    +0.000 A 
ATOM     17  C   UNL     1      -1.066  11.029  19.871  0.00  0.00    +0.000 A 
ENDBRANCH   3   5
BRANCH   1  26
ATOM     18  C   UNL     1       5.392   5.944  15.366  0.00  0.00    +0.000 C 
ATOM     19  C   UNL     1       5.258   4.714  16.217  0.00  0.00    +0.000 C 
ATOM     20  O   UNL     1       5.861   3.688  15.888  0.00  0.00    +0.000 OA
ATOM     21  N   UNL     1       4.489   4.758  17.361  0.00  0.00    +0.000 N 
ATOM     22  C   UNL     1       4.499   3.597  18.266  0.00  0.00    +0.000 C 
ATOM     23  C   UNL     1       3.502   3.877  19.390  0.00  0.00    +0.000 C 
ATOM     24  C   UNL     1       3.173   5.317  19.150  0.00  0.00    +0.000 A 
ATOM     25  C   UNL     1       2.398   6.132  19.964  0.00  0.00    +0.000 A 
ATOM     26  C   UNL     1       2.134   7.444  19.551  0.00  0.00    +0.000 A 
ATOM     27  C   UNL     1       2.646   7.906  18.328  0.00  0.00    +0.000 A 
ATOM     28  C   UNL     1       3.437   7.069  17.522  0.00  0.00    +0.000 A 
ATOM     29  C   UNL     1       3.712   5.777  17.945  0.00  0.00    +0.000 A 
ENDBRANCH   1  26
TORSDOF 2
ENDMDL
MODEL 8
REMARK VINA RESULT:      -7.9      1.865      2.643
REMARK  Name = 
REMARK  5 active torsions:
REMARK  status: ('A' for Active; 'I' for Inactive)
REMARK    1  A    between atoms: C_1  and  C_2
REMARK    2  A    between atoms: C_9  and  C_10
REMARK    3  A    between atoms: N_12  and  C_13
REMARK    4  A    between atoms: N_19  and  C_20
REMARK    5  A    between atoms: N_19  and  C_21
REMARK                            x       y       z     vdW  Elec       q    Type
REMARK                         _______ _______ _______ _____ _____    ______ ____
ROOT
ATOM      1  C   UNL     1       1.343   8.649  20.625  0.00  0.00    +0.000 C 
ATOM      2  O   UNL     1       1.391   8.790  21.845  0.00  0.00    +0.000 OA
ATOM      3  N   UNL     1       0.896   9.586  19.711  0.00  0.00    +0.000 N 
ATOM      4  H   UNL     1       0.717   9.268  18.767  0.00  0.00    +0.000 HD
ENDROOT
BRANCH   3   5
ATOM      5  C   UNL     1       0.451  10.893  20.026  0.00  0.00    +0.000 A 
ATOM      6  C   UNL     1       1.313  11.957  20.283  0.00  0.00    +0.000 A 
ATOM      7  C   UNL     1       0.809  13.217  20.638  0.00  0.00    +0.000 A 
ATOM      8  C   UNL     1      -0.551  13.454  20.760  0.00  0.00    +0.000 A 
ATOM      9  N   UNL     1      -0.985  14.672  21.140  0.00  0.00    +0.000 NA
ATOM     10  C   UNL     1      -2.305  14.924  21.302  0.00  0.00    +0.000 A 
ATOM     11  N   UNL     1      -2.682  16.187  21.715  0.00  0.00    +0.000 N 
ATOM     12  C   UNL     1      -4.049  16.624  21.944  0.00  0.00    +0.000 C 
ATOM     13  C   UNL     1      -1.660  17.206  21.922  0.00  0.00    +0.000 C 
ATOM     14  C   UNL     1      -3.218  13.903  21.054  0.00  0.00    +0.000 A 
ATOM     15  C   UNL     1      -2.784  12.641  20.641  0.00  0.00    +0.000 A 
ATOM     16  C   UNL     1      -1.423  12.392  20.487  0.00  0.00    +0.000 A 
ATOM     17  C   UNL     1      -0.925  11.127  20.098  0.00  0.00    +0.000 A 
ENDBRANCH   3   5
BRANCH   1  26
ATOM     18  C   UNL     1       4.334   3.569  16.984  0.00  0.00    +0.000 C 
ATOM     19  C   UNL     1       3.623   2.777  18.042  0.00  0.00    +0.000 C 
ATOM     20  O   UNL     1       3.750   1.549  18.060  0.00  0.00    +0.000 OA
ATOM     21  N   UNL     1       2.865   3.433  18.989  0.00  0.00    +0.000 N 
ATOM     22  C   UNL     1       2.308   2.659  20.111  0.00  0.00    +0.000 C 
ATOM     23  C   UNL     1       1.448   3.606  20.946  0.00  0.00    +0.000 C 
ATOM     24  C   UNL     1       1.787   4.932  20.343  0.00  0.00    +0.000 A 
ATOM     25  C   UNL     1       1.378   6.176  20.805  0.00  0.00    +0.000 A 
ATOM     26  C   UNL     1       1.734   7.318  20.077  0.00  0.00    +0.000 A 
ATOM     27  C   UNL     1       2.484   7.186  18.897  0.00  0.00    +0.000 A 
ATOM     28  C   UNL     1       2.897   5.919  18.450  0.00  0.00    +0.000 A 
ATOM     29  C   UNL     1       2.559   4.793  19.186  0.00  0.00    +0.000 A 
ENDBRANCH   1  26
TORSDOF 2
ENDMDL
MODEL 9
REMARK VINA RESULT:      -7.9      2.728      3.274
REMARK  Name = 
REMARK  5 active torsions:
REMARK  status: ('A' for Active; 'I' for Inactive)
REMARK    1  A    between atoms: C_1  and  C_2
REMARK    2  A    between atoms: C_9  and  C_10
REMARK    3  A    between atoms: N_12  and  C_13
REMARK    4  A    between atoms: N_19  and  C_20
REMARK    5  A    between atoms: N_19  and  C_21
REMARK                            x       y       z     vdW  Elec       q    Type
REMARK                         _______ _______ _______ _____ _____    ______ ____
ROOT
ATOM      1  C   UNL     1       1.285   8.525  21.123  0.00  0.00    +0.000 C 
ATOM      2  O   UNL     1       2.099   9.003  21.910  0.00  0.00    +0.000 OA
ATOM      3  N   UNL     1       0.012   9.006  20.873  0.00  0.00    +0.000 N 
ATOM      4  H   UNL     1      -0.621   8.403  20.362  0.00  0.00    +0.000 HD
ENDROOT
BRANCH   3   5
ATOM      5  C   UNL     1      -0.559  10.162  21.457  0.00  0.00    +0.000 A 
ATOM      6  C   UNL     1      -0.905  10.251  22.804  0.00  0.00    +0.000 A 
ATOM      7  C   UNL     1      -1.512  11.408  23.312  0.00  0.00    +0.000 A 
ATOM      8  C   UNL     1      -1.802  12.498  22.506  0.00  0.00    +0.000 A 
ATOM      9  N   UNL     1      -2.420  13.573  23.032  0.00  0.00    +0.000 NA
ATOM     10  C   UNL     1      -2.747  14.638  22.263  0.00  0.00    +0.000 A 
ATOM     11  N   UNL     1      -3.400  15.699  22.861  0.00  0.00    +0.000 N 
ATOM     12  C   UNL     1      -3.829  16.911  22.184  0.00  0.00    +0.000 C 
ATOM     13  C   UNL     1      -3.674  15.654  24.293  0.00  0.00    +0.000 C 
ATOM     14  C   UNL     1      -2.421  14.613  20.910  0.00  0.00    +0.000 A 
ATOM     15  C   UNL     1      -1.764  13.513  20.354  0.00  0.00    +0.000 A 
ATOM     16  C   UNL     1      -1.441  12.420  21.154  0.00  0.00    +0.000 A 
ATOM     17  C   UNL     1      -0.800  11.269  20.640  0.00  0.00    +0.000 A 
ENDBRANCH   3   5
BRANCH   1  26
ATOM     18  C   UNL     1       4.283   3.897  16.928  0.00  0.00    +0.000 C 
ATOM     19  C   UNL     1       3.550   2.990  17.872  0.00  0.00    +0.000 C 
ATOM     20  O   UNL     1       3.666   1.767  17.741  0.00  0.00    +0.000 OA
ATOM     21  N   UNL     1       2.784   3.532  18.882  0.00  0.00    +0.000 N 
ATOM     22  C   UNL     1       2.205   2.633  19.894  0.00  0.00    +0.000 C 
ATOM     23  C   UNL     1       1.341   3.480  20.827  0.00  0.00    +0.000 C 
ATOM     24  C   UNL     1       1.700   4.867  20.395  0.00  0.00    +0.000 A 
ATOM     25  C   UNL     1       1.296   6.049  21.001  0.00  0.00    +0.000 A 
ATOM     26  C   UNL     1       1.672   7.268  20.421  0.00  0.00    +0.000 A 
ATOM     27  C   UNL     1       2.438   7.273  19.244  0.00  0.00    +0.000 A 
ATOM     28  C   UNL     1       2.846   6.065  18.651  0.00  0.00    +0.000 A 
ATOM     29  C   UNL     1       2.488   4.862  19.240  0.00  0.00    +0.000 A 
ENDBRANCH   1  26
TORSDOF 2
ENDMDL
