MODEL 1
REMARK VINA RESULT:      -9.0      0.000      0.000
REMARK  Name = 
REMARK  5 active torsions:
REMARK  status: ('A' for Active; 'I' for Inactive)
REMARK    1  A    between atoms: C_1  and  C_2
REMARK    2  A    between atoms: C_4  and  C_5
REMARK    3  A    between atoms: C_9  and  N_10
REMARK    4  A    between atoms: C_11  and  C_13
REMARK    5  A    between atoms: N_22  and  C_23
REMARK                            x       y       z     vdW  Elec       q    Type
REMARK                         _______ _______ _______ _____ _____    ______ ____
ROOT
ATOM      1  N   UNL     1       2.378   7.214  19.504  0.00  0.00    +0.000 N 
ATOM      2  C   UNL     1       2.285   5.873  19.816  0.00  0.00    +0.000 C 
ATOM      3  O   UNL     1       1.612   5.372  20.711  0.00  0.00    +0.000 OA
ATOM      4  H   UNL     1       3.039   7.481  18.785  0.00  0.00    +0.000 HD
ENDROOT
BRANCH   2   5
ATOM      5  C   UNL     1       3.060   4.945  18.965  0.00  0.00    +0.000 A 
ATOM      6  C   UNL     1       2.375   4.165  18.017  0.00  0.00    +0.000 A 
ATOM      7  C   UNL     1       3.073   3.419  17.051  0.00  0.00    +0.000 A 
ATOM      8  C   UNL     1       4.467   3.471  16.993  0.00  0.00    +0.000 A 
ATOM      9  C   UNL     1       5.112   4.249  17.933  0.00  0.00    +0.000 A 
ATOM     10  C   UNL     1       4.441   4.940  18.924  0.00  0.00    +0.000 A 
ATOM     11  O   UNL     1       5.301   5.686  19.718  0.00  0.00    +0.000 OA
ATOM     12  C   UNL     1       6.544   5.497  19.096  0.00  0.00    +0.000 A 
ATOM     13  O   UNL     1       7.557   6.080  19.453  0.00  0.00    +0.000 OA
ATOM     14  N   UNL     1       6.435   4.607  18.048  0.00  0.00    +0.000 N 
ATOM     15  C   UNL     1       7.433   4.381  17.041  0.00  0.00    +0.000 C 
ENDBRANCH   2   5
BRANCH   1  20
ATOM     16  C   UNL     1      -0.016  10.034  19.561  0.00  0.00    +0.000 A 
ATOM     17  C   UNL     1      -0.130  10.278  20.936  0.00  0.00    +0.000 A 
ATOM     18  C   UNL     1       0.601   9.522  21.848  0.00  0.00    +0.000 A 
ATOM     19  C   UNL     1       1.452   8.516  21.394  0.00  0.00    +0.000 A 
ATOM     20  C   UNL     1       1.582   8.255  20.028  0.00  0.00    +0.000 A 
ATOM     21  C   UNL     1       0.848   9.023  19.116  0.00  0.00    +0.000 A 
BRANCH  16  25
ATOM     22  C   UNL     1      -3.103  11.144  15.897  0.00  0.00    +0.000 C 
ATOM     23  C   UNL     1      -2.154  11.207  17.026  0.00  0.00    +0.000 A 
ATOM     24  N   UNL     1      -1.662  10.203  17.716  0.00  0.00    +0.000 NA
ATOM     25  C   UNL     1      -0.819  10.809  18.623  0.00  0.00    +0.000 A 
ATOM     26  N   UNL     1      -0.789  12.150  18.524  0.00  0.00    +0.000 NA
ATOM     27  N   UNL     1      -1.632  12.371  17.503  0.00  0.00    +0.000 N 
ATOM     28  H   UNL     1      -1.793  13.320  17.189  0.00  0.00    +0.000 HD
ENDBRANCH  16  25
ENDBRANCH   1  20
TORSDOF 3
ENDMDL
MODEL 2
REMARK VINA RESULT:      -8.8      2.715      8.163
REMARK  Name = 
REMARK  5 active torsions:
REMARK  status: ('A' for Active; 'I' for Inactive)
REMARK    1  A    between atoms: C_1  and  C_2
REMARK    2  A    between atoms: C_4  and  C_5
REMARK    3  A    between atoms: C_9  and  N_10
REMARK    4  A    between atoms: C_11  and  C_13
REMARK    5  A    between atoms: N_22  and  C_23
REMARK                            x       y       z     vdW  Elec       q    Type
REMARK                         _______ _______ _______ _____ _____    ______ ____
ROOT
ATOM      1  N   UNL     1       1.914   7.549  19.997  0.00  0.00    +0.000 N 
ATOM      2  C   UNL     1       1.616   8.428  18.976  0.00  0.00    +0.000 C 
ATOM      3  O   UNL     1       1.920   8.313  17.794  0.00  0.00    +0.000 OA
ATOM      4  H   UNL     1       1.661   7.823  20.938  0.00  0.00    +0.000 HD
ENDROOT
BRANCH   2   5
ATOM      5  C   UNL     1       0.825   9.622  19.347  0.00  0.00    +0.000 A 
ATOM      6  C   UNL     1       0.155  10.330  18.334  0.00  0.00    +0.000 A 
ATOM      7  C   UNL     1      -0.767  11.345  18.647  0.00  0.00    +0.000 A 
ATOM      8  C   UNL     1      -1.062  11.642  19.979  0.00  0.00    +0.000 A 
ATOM      9  C   UNL     1      -0.393  10.927  20.951  0.00  0.00    +0.000 A 
ATOM     10  C   UNL     1       0.558   9.968  20.658  0.00  0.00    +0.000 A 
ATOM     11  O   UNL     1       1.055   9.356  21.799  0.00  0.00    +0.000 OA
ATOM     12  C   UNL     1       0.280   9.922  22.821  0.00  0.00    +0.000 A 
ATOM     13  O   UNL     1       0.357   9.562  23.987  0.00  0.00    +0.000 OA
ATOM     14  N   UNL     1      -0.563  10.890  22.316  0.00  0.00    +0.000 N 
ATOM     15  C   UNL     1      -1.665  11.483  23.018  0.00  0.00    +0.000 C 
ENDBRANCH   2   5
BRANCH   1  20
ATOM     16  C   UNL     1       4.215   4.882  18.864  0.00  0.00    +0.000 A 
ATOM     17  C   UNL     1       3.734   3.775  19.577  0.00  0.00    +0.000 A 
ATOM     18  C   UNL     1       2.635   3.905  20.421  0.00  0.00    +0.000 A 
ATOM     19  C   UNL     1       2.005   5.141  20.559  0.00  0.00    +0.000 A 
ATOM     20  C   UNL     1       2.466   6.258  19.858  0.00  0.00    +0.000 A 
ATOM     21  C   UNL     1       3.569   6.119  19.006  0.00  0.00    +0.000 A 
BRANCH  16  25
ATOM     22  C   UNL     1       7.052   4.614  14.856  0.00  0.00    +0.000 C 
ATOM     23  C   UNL     1       6.546   4.629  16.243  0.00  0.00    +0.000 A 
ATOM     24  N   UNL     1       5.323   4.882  16.648  0.00  0.00    +0.000 NA
ATOM     25  C   UNL     1       5.392   4.737  18.016  0.00  0.00    +0.000 A 
ATOM     26  N   UNL     1       6.618   4.420  18.467  0.00  0.00    +0.000 NA
ATOM     27  N   UNL     1       7.323   4.348  17.327  0.00  0.00    +0.000 N 
ATOM     28  H   UNL     1       8.303   4.101  17.364  0.00  0.00    +0.000 HD
ENDBRANCH  16  25
ENDBRANCH   1  20
TORSDOF 3
ENDMDL
MODEL 3
REMARK VINA RESULT:      -8.7      2.650      8.228
REMARK  Name = 
REMARK  5 active torsions:
REMARK  status: ('A' for Active; 'I' for Inactive)
REMARK    1  A    between atoms: C_1  and  C_2
REMARK    2  A    between atoms: C_4  and  C_5
REMARK    3  A    between atoms: C_9  and  N_10
REMARK    4  A    between atoms: C_11  and  C_13
REMARK    5  A    between atoms: N_22  and  C_23
REMARK                            x       y       z     vdW  Elec       q    Type
REMARK                         _______ _______ _______ _____ _____    ______ ____
ROOT
ATOM      1  N   UNL     1       3.022   7.355  18.420  0.00  0.00    +0.000 N 
ATOM      2  C   UNL     1       2.108   7.492  19.443  0.00  0.00    +0.000 C 
ATOM      3  O   UNL     1       1.851   6.668  20.314  0.00  0.00    +0.000 OA
ATOM      4  H   UNL     1       3.065   8.095  17.730  0.00  0.00    +0.000 HD
ENDROOT
BRANCH   2   5
ATOM      5  C   UNL     1       1.382   8.779  19.509  0.00  0.00    +0.000 A 
ATOM      6  C   UNL     1       0.885   9.336  18.317  0.00  0.00    +0.000 A 
ATOM      7  C   UNL     1       0.020  10.444  18.340  0.00  0.00    +0.000 A 
ATOM      8  C   UNL     1      -0.392  10.990  19.557  0.00  0.00    +0.000 A 
ATOM      9  C   UNL     1       0.108  10.420  20.710  0.00  0.00    +0.000 A 
ATOM     10  C   UNL     1       1.003   9.368  20.700  0.00  0.00    +0.000 A 
ATOM     11  O   UNL     1       1.323   8.939  21.980  0.00  0.00    +0.000 OA
ATOM     12  C   UNL     1       0.490   9.724  22.790  0.00  0.00    +0.000 A 
ATOM     13  O   UNL     1       0.411   9.572  24.001  0.00  0.00    +0.000 OA
ATOM     14  N   UNL     1      -0.212  10.636  22.030  0.00  0.00    +0.000 N 
ATOM     15  C   UNL     1      -1.332  11.411  22.484  0.00  0.00    +0.000 C 
ENDBRANCH   2   5
BRANCH   1  20
ATOM     16  C   UNL     1       5.550   5.191  16.802  0.00  0.00    +0.000 A 
ATOM     17  C   UNL     1       5.956   4.384  17.873  0.00  0.00    +0.000 A 
ATOM     18  C   UNL     1       5.381   4.542  19.130  0.00  0.00    +0.000 A 
ATOM     19  C   UNL     1       4.393   5.506  19.328  0.00  0.00    +0.000 A 
ATOM     20  C   UNL     1       3.972   6.321  18.275  0.00  0.00    +0.000 A 
ATOM     21  C   UNL     1       4.551   6.153  17.011  0.00  0.00    +0.000 A 
BRANCH  16  25
ATOM     22  C   UNL     1       6.518   3.591  12.253  0.00  0.00    +0.000 C 
ATOM     23  C   UNL     1       6.548   4.295  13.550  0.00  0.00    +0.000 A 
ATOM     24  N   UNL     1       5.680   4.205  14.532  0.00  0.00    +0.000 NA
ATOM     25  C   UNL     1       6.192   5.040  15.501  0.00  0.00    +0.000 A 
ATOM     26  N   UNL     1       7.334   5.652  15.143  0.00  0.00    +0.000 NA
ATOM     27  N   UNL     1       7.540   5.156  13.913  0.00  0.00    +0.000 N 
ATOM     28  H   UNL     1       8.363   5.438  13.395  0.00  0.00    +0.000 HD
ENDBRANCH  16  25
ENDBRANCH   1  20
TORSDOF 3
ENDMDL
MODEL 4
REMARK VINA RESULT:      -8.6      2.846      7.986
REMARK  Name = 
REMARK  5 active torsions:
REMARK  status: ('A' for Active; 'I' for Inactive)
REMARK    1  A    between atoms: C_1  and  C_2
REMARK    2  A    between atoms: C_4  and  C_5
REMARK    3  A    between atoms: C_9  and  N_10
REMARK    4  A    between atoms: C_11  and  C_13
REMARK    5  A    between atoms: N_22  and  C_23
REMARK                            x       y       z     vdW  Elec       q    Type
REMARK                         _______ _______ _______ _____ _____    ______ ____
ROOT
ATOM      1  N   UNL     1       1.971   7.775  19.512  0.00  0.00    +0.000 N 
ATOM      2  C   UNL     1       1.701   8.807  18.638  0.00  0.00    +0.000 C 
ATOM      3  O   UNL     1       2.133   8.937  17.498  0.00  0.00    +0.000 OA
ATOM      4  H   UNL     1       1.601   7.849  20.452  0.00  0.00    +0.000 HD
ENDROOT
BRANCH   2   5
ATOM      5  C   UNL     1       0.774   9.853  19.123  0.00  0.00    +0.000 A 
ATOM      6  C   UNL     1      -0.075  10.485  18.197  0.00  0.00    +0.000 A 
ATOM      7  C   UNL     1      -1.109  11.336  18.627  0.00  0.00    +0.000 A 
ATOM      8  C   UNL     1      -1.335  11.538  19.989  0.00  0.00    +0.000 A 
ATOM      9  C   UNL     1      -0.489  10.901  20.873  0.00  0.00    +0.000 A 
ATOM     10  C   UNL     1       0.566  10.110  20.465  0.00  0.00    +0.000 A 
ATOM     11  O   UNL     1       1.242   9.542  21.535  0.00  0.00    +0.000 OA
ATOM     12  C   UNL     1       0.478   9.947  22.638  0.00  0.00    +0.000 A 
ATOM     13  O   UNL     1       0.703   9.563  23.777  0.00  0.00    +0.000 OA
ATOM     14  N   UNL     1      -0.539  10.792  22.244  0.00  0.00    +0.000 N 
ATOM     15  C   UNL     1      -1.656  11.186  23.055  0.00  0.00    +0.000 C 
ENDBRANCH   2   5
BRANCH   1  20
ATOM     16  C   UNL     1       4.149   5.404  17.687  0.00  0.00    +0.000 A 
ATOM     17  C   UNL     1       4.132   4.294  18.541  0.00  0.00    +0.000 A 
ATOM     18  C   UNL     1       3.385   4.319  19.715  0.00  0.00    +0.000 A 
ATOM     19  C   UNL     1       2.646   5.454  20.045  0.00  0.00    +0.000 A 
ATOM     20  C   UNL     1       2.647   6.573  19.209  0.00  0.00    +0.000 A 
ATOM     21  C   UNL     1       3.396   6.539  18.027  0.00  0.00    +0.000 A 
BRANCH  16  25
ATOM     22  C   UNL     1       6.258   3.824  13.535  0.00  0.00    +0.000 C 
ATOM     23  C   UNL     1       5.842   4.622  14.705  0.00  0.00    +0.000 A 
ATOM     24  N   UNL     1       4.949   4.306  15.616  0.00  0.00    +0.000 NA
ATOM     25  C   UNL     1       4.969   5.376  16.483  0.00  0.00    +0.000 A 
ATOM     26  N   UNL     1       5.831   6.345  16.128  0.00  0.00    +0.000 NA
ATOM     27  N   UNL     1       6.374   5.839  15.010  0.00  0.00    +0.000 N 
ATOM     28  H   UNL     1       7.090   6.363  14.524  0.00  0.00    +0.000 HD
ENDBRANCH  16  25
ENDBRANCH   1  20
TORSDOF 3
ENDMDL
MODEL 5
REMARK VINA RESULT:      -8.6      1.214      1.547
REMARK  Name = 
REMARK  5 active torsions:
REMARK  status: ('A' for Active; 'I' for Inactive)
REMARK    1  A    between atoms: C_1  and  C_2
REMARK    2  A    between atoms: C_4  and  C_5
REMARK    3  A    between atoms: C_9  and  N_10
REMARK    4  A    between atoms: C_11  and  C_13
REMARK    5  A    between atoms: N_22  and  C_23
REMARK                            x       y       z     vdW  Elec       q    Type
REMARK                         _______ _______ _______ _____ _____    ______ ____
ROOT
ATOM      1  N   UNL     1       2.240   7.261  19.683  0.00  0.00    +0.000 N 
ATOM      2  C   UNL     1       2.164   5.906  19.927  0.00  0.00    +0.000 C 
ATOM      3  O   UNL     1       1.554   5.356  20.838  0.00  0.00    +0.000 OA
ATOM      4  H   UNL     1       2.851   7.568  18.935  0.00  0.00    +0.000 HD
ENDROOT
BRANCH   2   5
ATOM      5  C   UNL     1       2.876   5.025  18.975  0.00  0.00    +0.000 A 
ATOM      6  C   UNL     1       2.135   4.376  17.973  0.00  0.00    +0.000 A 
ATOM      7  C   UNL     1       2.777   3.692  16.925  0.00  0.00    +0.000 A 
ATOM      8  C   UNL     1       4.170   3.679  16.842  0.00  0.00    +0.000 A 
ATOM      9  C   UNL     1       4.871   4.329  17.838  0.00  0.00    +0.000 A 
ATOM     10  C   UNL     1       4.254   4.955  18.904  0.00  0.00    +0.000 A 
ATOM     11  O   UNL     1       5.165   5.576  19.746  0.00  0.00    +0.000 OA
ATOM     12  C   UNL     1       6.385   5.386  19.082  0.00  0.00    +0.000 A 
ATOM     13  O   UNL     1       7.434   5.879  19.471  0.00  0.00    +0.000 OA
ATOM     14  N   UNL     1       6.213   4.607  17.957  0.00  0.00    +0.000 N 
ATOM     15  C   UNL     1       7.180   4.429  16.912  0.00  0.00    +0.000 C 
ENDBRANCH   2   5
BRANCH   1  20
ATOM     16  C   UNL     1       0.331  10.405  20.086  0.00  0.00    +0.000 A 
ATOM     17  C   UNL     1      -0.108  10.299  21.412  0.00  0.00    +0.000 A 
ATOM     18  C   UNL     1       0.242   9.195  22.183  0.00  0.00    +0.000 A 
ATOM     19  C   UNL     1       1.036   8.188  21.636  0.00  0.00    +0.000 A 
ATOM     20  C   UNL     1       1.486   8.272  20.317  0.00  0.00    +0.000 A 
ATOM     21  C   UNL     1       1.135   9.388  19.548  0.00  0.00    +0.000 A 
BRANCH  16  25
ATOM     22  C   UNL     1      -0.206  15.037  18.521  0.00  0.00    +0.000 C 
ATOM     23  C   UNL     1      -0.270  13.569  18.672  0.00  0.00    +0.000 A 
ATOM     24  N   UNL     1       0.342  12.828  19.568  0.00  0.00    +0.000 NA
ATOM     25  C   UNL     1      -0.078  11.549  19.279  0.00  0.00    +0.000 A 
ATOM     26  N   UNL     1      -0.914  11.476  18.228  0.00  0.00    +0.000 NA
ATOM     27  N   UNL     1      -1.024  12.765  17.872  0.00  0.00    +0.000 N 
ATOM     28  H   UNL     1      -1.624  13.016  17.096  0.00  0.00    +0.000 HD
ENDBRANCH  16  25
ENDBRANCH   1  20
TORSDOF 3
ENDMDL
MODEL 6
REMARK VINA RESULT:      -8.6      1.281      1.349
REMARK  Name = 
REMARK  5 active torsions:
REMARK  status: ('A' for Active; 'I' for Inactive)
REMARK    1  A    between atoms: C_1  and  C_2
REMARK    2  A    between atoms: C_4  and  C_5
REMARK    3  A    between atoms: C_9  and  N_10
REMARK    4  A    between atoms: C_11  and  C_13
REMARK    5  A    between atoms: N_22  and  C_23
REMARK                            x       y       z     vdW  Elec       q    Type
REMARK                         _______ _______ _______ _____ _____    ______ ____
ROOT
ATOM      1  N   UNL     1       2.329   7.094  19.745  0.00  0.00    +0.000 N 
ATOM      2  C   UNL     1       2.084   5.771  20.052  0.00  0.00    +0.000 C 
ATOM      3  O   UNL     1       1.297   5.346  20.891  0.00  0.00    +0.000 OA
ATOM      4  H   UNL     1       3.068   7.289  19.081  0.00  0.00    +0.000 HD
ENDROOT
BRANCH   2   5
ATOM      5  C   UNL     1       2.834   4.764  19.270  0.00  0.00    +0.000 A 
ATOM      6  C   UNL     1       2.429   3.420  19.336  0.00  0.00    +0.000 A 
ATOM      7  C   UNL     1       2.971   2.457  18.466  0.00  0.00    +0.000 A 
ATOM      8  C   UNL     1       3.898   2.830  17.492  0.00  0.00    +0.000 A 
ATOM      9  C   UNL     1       4.273   4.157  17.449  0.00  0.00    +0.000 A 
ATOM     10  C   UNL     1       3.792   5.102  18.334  0.00  0.00    +0.000 A 
ATOM     11  O   UNL     1       4.278   6.373  18.061  0.00  0.00    +0.000 OA
ATOM     12  C   UNL     1       5.014   6.180  16.883  0.00  0.00    +0.000 A 
ATOM     13  O   UNL     1       5.529   7.101  16.266  0.00  0.00    +0.000 OA
ATOM     14  N   UNL     1       5.040   4.844  16.537  0.00  0.00    +0.000 N 
ATOM     15  C   UNL     1       5.471   4.321  15.272  0.00  0.00    +0.000 C 
ENDBRANCH   2   5
BRANCH   1  20
ATOM     16  C   UNL     1       0.076  10.026  19.622  0.00  0.00    +0.000 A 
ATOM     17  C   UNL     1       0.005  10.382  20.975  0.00  0.00    +0.000 A 
ATOM     18  C   UNL     1       0.717   9.664  21.931  0.00  0.00    +0.000 A 
ATOM     19  C   UNL     1       1.509   8.584  21.542  0.00  0.00    +0.000 A 
ATOM     20  C   UNL     1       1.596   8.211  20.199  0.00  0.00    +0.000 A 
ATOM     21  C   UNL     1       0.881   8.942  19.242  0.00  0.00    +0.000 A 
BRANCH  16  25
ATOM     22  C   UNL     1      -2.939  10.995  15.860  0.00  0.00    +0.000 C 
ATOM     23  C   UNL     1      -2.013  11.101  17.004  0.00  0.00    +0.000 A 
ATOM     24  N   UNL     1      -1.533  10.124  17.741  0.00  0.00    +0.000 NA
ATOM     25  C   UNL     1      -0.709  10.764  18.640  0.00  0.00    +0.000 A 
ATOM     26  N   UNL     1      -0.677  12.100  18.491  0.00  0.00    +0.000 NA
ATOM     27  N   UNL     1      -1.500  12.283  17.447  0.00  0.00    +0.000 N 
ATOM     28  H   UNL     1      -1.655  13.219  17.095  0.00  0.00    +0.000 HD
ENDBRANCH  16  25
ENDBRANCH   1  20
TORSDOF 3
ENDMDL
MODEL 7
REMARK VINA RESULT:      -8.5      2.280      3.160
REMARK  Name = 
REMARK  5 active torsions:
REMARK  status: ('A' for Active; 'I' for Inactive)
REMARK    1  A    between atoms: C_1  and  C_2
REMARK    2  A    between atoms: C_4  and  C_5
REMARK    3  A    between atoms: C_9  and  N_10
REMARK    4  A    between atoms: C_11  and  C_13
REMARK    5  A    between atoms: N_22  and  C_23
REMARK                            x       y       z     vdW  Elec       q    Type
REMARK                         _______ _______ _______ _____ _____    ______ ____
ROOT
ATOM      1  N   UNL     1       1.709   8.711  18.186  0.00  0.00    +0.000 N 
ATOM      2  C   UNL     1       2.208   7.638  18.895  0.00  0.00    +0.000 C 
ATOM      3  O   UNL     1       2.123   7.452  20.103  0.00  0.00    +0.000 OA
ATOM      4  H   UNL     1       1.929   8.763  17.199  0.00  0.00    +0.000 HD
ENDROOT
BRANCH   2   5
ATOM      5  C   UNL     1       2.897   6.593  18.106  0.00  0.00    +0.000 A 
ATOM      6  C   UNL     1       4.106   6.917  17.466  0.00  0.00    +0.000 A 
ATOM      7  C   UNL     1       4.902   5.920  16.874  0.00  0.00    +0.000 A 
ATOM      8  C   UNL     1       4.522   4.579  16.947  0.00  0.00    +0.000 A 
ATOM      9  C   UNL     1       3.333   4.291  17.586  0.00  0.00    +0.000 A 
ATOM     10  C   UNL     1       2.513   5.266  18.120  0.00  0.00    +0.000 A 
ATOM     11  O   UNL     1       1.400   4.728  18.751  0.00  0.00    +0.000 OA
ATOM     12  C   UNL     1       1.629   3.347  18.666  0.00  0.00    +0.000 A 
ATOM     13  O   UNL     1       0.903   2.522  19.200  0.00  0.00    +0.000 OA
ATOM     14  N   UNL     1       2.770   3.086  17.936  0.00  0.00    +0.000 N 
ATOM     15  C   UNL     1       3.443   1.820  17.868  0.00  0.00    +0.000 C 
ENDBRANCH   2   5
BRANCH   1  20
ATOM     16  C   UNL     1      -1.238  10.941  18.377  0.00  0.00    +0.000 A 
ATOM     17  C   UNL     1      -1.016  11.597  19.595  0.00  0.00    +0.000 A 
ATOM     18  C   UNL     1       0.120  11.316  20.349  0.00  0.00    +0.000 A 
ATOM     19  C   UNL     1       1.045  10.379  19.890  0.00  0.00    +0.000 A 
ATOM     20  C   UNL     1       0.845   9.713  18.679  0.00  0.00    +0.000 A 
ATOM     21  C   UNL     1      -0.297  10.005  17.923  0.00  0.00    +0.000 A 
BRANCH  16  25
ATOM     22  C   UNL     1      -5.922  12.018  17.335  0.00  0.00    +0.000 C 
ATOM     23  C   UNL     1      -4.488  11.680  17.252  0.00  0.00    +0.000 A 
ATOM     24  N   UNL     1      -3.630  11.573  18.241  0.00  0.00    +0.000 NA
ATOM     25  C   UNL     1      -2.453  11.217  17.620  0.00  0.00    +0.000 A 
ATOM     26  N   UNL     1      -2.554  11.117  16.283  0.00  0.00    +0.000 NA
ATOM     27  N   UNL     1      -3.849  11.404  16.080  0.00  0.00    +0.000 N 
ATOM     28  H   UNL     1      -4.221  11.386  15.139  0.00  0.00    +0.000 HD
ENDBRANCH  16  25
ENDBRANCH   1  20
TORSDOF 3
ENDMDL
MODEL 8
REMARK VINA RESULT:      -8.5      2.006      2.374
REMARK  Name = 
REMARK  5 active torsions:
REMARK  status: ('A' for Active; 'I' for Inactive)
REMARK    1  A    between atoms: C_1  and  C_2
REMARK    2  A    between atoms: C_4  and  C_5
REMARK    3  A    between atoms: C_9  and  N_10
REMARK    4  A    between atoms: C_11  and  C_13
REMARK    5  A    between atoms: N_22  and  C_23
REMARK                            x       y       z     vdW  Elec       q    Type
REMARK                         _______ _______ _______ _____ _____    ______ ____
ROOT
ATOM      1  N   UNL     1       2.107   8.271  17.856  0.00  0.00    +0.000 N 
ATOM      2  C   UNL     1       2.347   7.295  18.801  0.00  0.00    +0.000 C 
ATOM      3  O   UNL     1       2.184   7.389  20.012  0.00  0.00    +0.000 OA
ATOM      4  H   UNL     1       2.367   8.068  16.898  0.00  0.00    +0.000 HD
ENDROOT
BRANCH   2   5
ATOM      5  C   UNL     1       2.830   5.992  18.293  0.00  0.00    +0.000 A 
ATOM      6  C   UNL     1       1.924   4.919  18.217  0.00  0.00    +0.000 A 
ATOM      7  C   UNL     1       2.269   3.725  17.560  0.00  0.00    +0.000 A 
ATOM      8  C   UNL     1       3.511   3.598  16.935  0.00  0.00    +0.000 A 
ATOM      9  C   UNL     1       4.377   4.669  17.022  0.00  0.00    +0.000 A 
ATOM     10  C   UNL     1       4.073   5.826  17.714  0.00  0.00    +0.000 A 
ATOM     11  O   UNL     1       5.081   6.775  17.618  0.00  0.00    +0.000 OA
ATOM     12  C   UNL     1       5.992   6.176  16.736  0.00  0.00    +0.000 A 
ATOM     13  O   UNL     1       6.988   6.751  16.322  0.00  0.00    +0.000 OA
ATOM     14  N   UNL     1       5.586   4.898  16.408  0.00  0.00    +0.000 N 
ATOM     15  C   UNL     1       6.126   4.102  15.344  0.00  0.00    +0.000 C 
ENDBRANCH   2   5
BRANCH   1  20
ATOM     16  C   UNL     1      -0.665  10.700  18.183  0.00  0.00    +0.000 A 
ATOM     17  C   UNL     1       0.020  11.856  18.578  0.00  0.00    +0.000 A 
ATOM     18  C   UNL     1       1.405  11.841  18.719  0.00  0.00    +0.000 A 
ATOM     19  C   UNL     1       2.117  10.669  18.465  0.00  0.00    +0.000 A 
ATOM     20  C   UNL     1       1.456   9.504  18.070  0.00  0.00    +0.000 A 
ATOM     21  C   UNL     1       0.064   9.529  17.924  0.00  0.00    +0.000 A 
BRANCH  16  25
ATOM     22  C   UNL     1      -5.333  12.187  18.609  0.00  0.00    +0.000 C 
ATOM     23  C   UNL     1      -4.103  11.428  18.306  0.00  0.00    +0.000 A 
ATOM     24  N   UNL     1      -2.860  11.800  18.510  0.00  0.00    +0.000 NA
ATOM     25  C   UNL     1      -2.119  10.722  18.079  0.00  0.00    +0.000 A 
ATOM     26  N   UNL     1      -2.862   9.708  17.603  0.00  0.00    +0.000 NA
ATOM     27  N   UNL     1      -4.109  10.176  17.767  0.00  0.00    +0.000 N 
ATOM     28  H   UNL     1      -4.896   9.597  17.503  0.00  0.00    +0.000 HD
ENDBRANCH  16  25
ENDBRANCH   1  20
TORSDOF 3
ENDMDL
MODEL 9
REMARK VINA RESULT:      -8.4      2.779      8.198
REMARK  Name = 
REMARK  5 active torsions:
REMARK  status: ('A' for Active; 'I' for Inactive)
REMARK    1  A    between atoms: C_1  and  C_2
REMARK    2  A    between atoms: C_4  and  C_5
REMARK    3  A    between atoms: C_9  and  N_10
REMARK    4  A    between atoms: C_11  and  C_13
REMARK    5  A    between atoms: N_22  and  C_23
REMARK                            x       y       z     vdW  Elec       q    Type
REMARK                         _______ _______ _______ _____ _____    ______ ____
ROOT
ATOM      1  N   UNL     1       1.595   6.838  20.943  0.00  0.00    +0.000 N 
ATOM      2  C   UNL     1       1.476   8.024  20.249  0.00  0.00    +0.000 C 
ATOM      3  O   UNL     1       1.922   8.270  19.133  0.00  0.00    +0.000 OA
ATOM      4  H   UNL     1       1.240   6.815  21.891  0.00  0.00    +0.000 HD
ENDROOT
BRANCH   2   5
ATOM      5  C   UNL     1       0.712   9.102  20.913  0.00  0.00    +0.000 A 
ATOM      6  C   UNL     1       0.059   8.818  22.126  0.00  0.00    +0.000 A 
ATOM      7  C   UNL     1      -0.510   9.845  22.899  0.00  0.00    +0.000 A 
ATOM      8  C   UNL     1      -0.403  11.176  22.492  0.00  0.00    +0.000 A 
ATOM      9  C   UNL     1       0.247  11.424  21.301  0.00  0.00    +0.000 A 
ATOM     10  C   UNL     1       0.760  10.420  20.502  0.00  0.00    +0.000 A 
ATOM     11  O   UNL     1       1.408  10.920  19.381  0.00  0.00    +0.000 OA
ATOM     12  C   UNL     1       1.356  12.307  19.583  0.00  0.00    +0.000 A 
ATOM     13  O   UNL     1       1.913  13.104  18.842  0.00  0.00    +0.000 OA
ATOM     14  N   UNL     1       0.629  12.609  20.716  0.00  0.00    +0.000 N 
ATOM     15  C   UNL     1       0.590  13.890  21.362  0.00  0.00    +0.000 C 
ENDBRANCH   2   5
BRANCH   1  20
ATOM     16  C   UNL     1       3.865   4.480  19.217  0.00  0.00    +0.000 A 
ATOM     17  C   UNL     1       3.245   3.252  19.478  0.00  0.00    +0.000 A 
ATOM     18  C   UNL     1       2.062   3.201  20.211  0.00  0.00    +0.000 A 
ATOM     19  C   UNL     1       1.489   4.379  20.687  0.00  0.00    +0.000 A 
ATOM     20  C   UNL     1       2.089   5.616  20.439  0.00  0.00    +0.000 A 
ATOM     21  C   UNL     1       3.275   5.660  19.697  0.00  0.00    +0.000 A 
BRANCH  16  25
ATOM     22  C   UNL     1       7.071   4.667  15.492  0.00  0.00    +0.000 C 
ATOM     23  C   UNL     1       6.442   4.590  16.825  0.00  0.00    +0.000 A 
ATOM     24  N   UNL     1       5.163   4.668  17.115  0.00  0.00    +0.000 NA
ATOM     25  C   UNL     1       5.124   4.512  18.482  0.00  0.00    +0.000 A 
ATOM     26  N   UNL     1       6.335   4.356  19.046  0.00  0.00    +0.000 NA
ATOM     27  N   UNL     1       7.146   4.400  17.977  0.00  0.00    +0.000 N 
ATOM     28  H   UNL     1       8.143   4.287  18.105  0.00  0.00    +0.000 HD
ENDBRANCH  16  25
ENDBRANCH   1  20
TORSDOF 3
ENDMDL
