MODEL 1
REMARK VINA RESULT:      -8.4      0.000      0.000
REMARK  Name = 
REMARK  5 active torsions:
REMARK  status: ('A' for Active; 'I' for Inactive)
REMARK    1  A    between atoms: C_1  and  C_2
REMARK    2  A    between atoms: C_4  and  C_5
REMARK    3  A    between atoms: C_9  and  N_10
REMARK    4  A    between atoms: C_11  and  C_13
REMARK    5  A    between atoms: C_13  and  C_14
REMARK                            x       y       z     vdW  Elec       q    Type
REMARK                         _______ _______ _______ _____ _____    ______ ____
ROOT
ATOM      1  C   UNL     1       0.693   9.182  20.329  0.00  0.00    +0.000 A 
ATOM      2  C   UNL     1       0.591   9.862  19.108  0.00  0.00    +0.000 A 
ATOM      3  C   UNL     1       1.292   9.422  17.993  0.00  0.00    +0.000 A 
ATOM      4  C   UNL     1       2.123   8.308  18.090  0.00  0.00    +0.000 A 
ATOM      5  C   UNL     1       2.266   7.622  19.299  0.00  0.00    +0.000 A 
ATOM      6  C   UNL     1       1.518   8.046  20.411  0.00  0.00    +0.000 A 
ENDROOT
BRANCH   1  10
ATOM      7  C   UNL     1      -1.828  12.260  23.228  0.00  0.00    +0.000 C 
ATOM      8  C   UNL     1      -1.106  11.094  22.680  0.00  0.00    +0.000 A 
ATOM      9  N   UNL     1      -0.627  10.944  21.467  0.00  0.00    +0.000 NA
ATOM     10  C   UNL     1      -0.024   9.702  21.490  0.00  0.00    +0.000 A 
ATOM     11  N   UNL     1      -0.135   9.074  22.672  0.00  0.00    +0.000 NA
ATOM     12  N   UNL     1      -0.812   9.976  23.404  0.00  0.00    +0.000 N 
ATOM     13  H   UNL     1      -1.027   9.771  24.374  0.00  0.00    +0.000 HD
ENDBRANCH   1  10
BRANCH   5  14
ATOM     14  N   UNL     1       3.157   6.535  19.464  0.00  0.00    +0.000 N 
ATOM     15  C   UNL     1       2.860   5.197  19.245  0.00  0.00    +0.000 C 
ATOM     16  O   UNL     1       1.774   4.737  18.902  0.00  0.00    +0.000 OA
ATOM     17  H   UNL     1       4.130   6.777  19.605  0.00  0.00    +0.000 HD
BRANCH  15  18
ATOM     18  C   UNL     1       4.063   4.274  19.371  0.00  0.00    +0.000 C 
BRANCH  18  19
ATOM     19  C   UNL     1       5.009   4.433  18.204  0.00  0.00    +0.000 A 
ATOM     20  C   UNL     1       6.382   4.647  18.429  0.00  0.00    +0.000 A 
ATOM     21  C   UNL     1       7.279   4.696  17.359  0.00  0.00    +0.000 A 
ATOM     22  C   UNL     1       6.804   4.548  16.062  0.00  0.00    +0.000 A 
ATOM     23  F   UNL     1       7.669   4.560  15.039  0.00  0.00    +0.000 F 
ATOM     24  C   UNL     1       5.445   4.378  15.827  0.00  0.00    +0.000 A 
ATOM     25  F   UNL     1       4.987   4.242  14.575  0.00  0.00    +0.000 F 
ATOM     26  C   UNL     1       4.543   4.325  16.888  0.00  0.00    +0.000 A 
ENDBRANCH  18  19
ENDBRANCH  15  18
ENDBRANCH   5  14
TORSDOF 4
ENDMDL
MODEL 2
REMARK VINA RESULT:      -8.4      0.719      1.415
REMARK  Name = 
REMARK  5 active torsions:
REMARK  status: ('A' for Active; 'I' for Inactive)
REMARK    1  A    between atoms: C_1  and  C_2
REMARK    2  A    between atoms: C_4  and  C_5
REMARK    3  A    between atoms: C_9  and  N_10
REMARK    4  A    between atoms: C_11  and  C_13
REMARK    5  A    between atoms: C_13  and  C_14
REMARK                            x       y       z     vdW  Elec       q    Type
REMARK                         _______ _______ _______ _____ _____    ______ ____
ROOT
ATOM      1  C   UNL     1       0.727   9.175  20.417  0.00  0.00    +0.000 A 
ATOM      2  C   UNL     1       0.765   9.871  19.202  0.00  0.00    +0.000 A 
ATOM      3  C   UNL     1       1.497   9.381  18.128  0.00  0.00    +0.000 A 
ATOM      4  C   UNL     1       2.219   8.197  18.263  0.00  0.00    +0.000 A 
ATOM      5  C   UNL     1       2.222   7.491  19.469  0.00  0.00    +0.000 A 
ATOM      6  C   UNL     1       1.443   7.969  20.536  0.00  0.00    +0.000 A 
ENDROOT
BRANCH   1  10
ATOM      7  C   UNL     1      -1.715  12.433  23.184  0.00  0.00    +0.000 C 
ATOM      8  C   UNL     1      -1.056  11.215  22.670  0.00  0.00    +0.000 A 
ATOM      9  N   UNL     1      -0.516  11.032  21.488  0.00  0.00    +0.000 NA
ATOM     10  C   UNL     1      -0.016   9.745  21.537  0.00  0.00    +0.000 A 
ATOM     11  N   UNL     1      -0.250   9.124  22.704  0.00  0.00    +0.000 NA
ATOM     12  N   UNL     1      -0.897  10.074  23.401  0.00  0.00    +0.000 N 
ATOM     13  H   UNL     1      -1.187   9.883  24.354  0.00  0.00    +0.000 HD
ENDBRANCH   1  10
BRANCH   5  14
ATOM     14  N   UNL     1       3.003   6.328  19.676  0.00  0.00    +0.000 N 
ATOM     15  C   UNL     1       2.614   5.026  19.396  0.00  0.00    +0.000 C 
ATOM     16  O   UNL     1       1.526   4.668  18.953  0.00  0.00    +0.000 OA
ATOM     17  H   UNL     1       3.977   6.484  19.902  0.00  0.00    +0.000 HD
BRANCH  15  18
ATOM     18  C   UNL     1       3.721   4.001  19.594  0.00  0.00    +0.000 C 
BRANCH  18  19
ATOM     19  C   UNL     1       4.760   4.088  18.501  0.00  0.00    +0.000 A 
ATOM     20  C   UNL     1       4.448   3.675  17.192  0.00  0.00    +0.000 A 
ATOM     21  C   UNL     1       5.368   3.844  16.154  0.00  0.00    +0.000 A 
ATOM     22  C   UNL     1       6.607   4.411  16.425  0.00  0.00    +0.000 A 
ATOM     23  F   UNL     1       7.475   4.605  15.423  0.00  0.00    +0.000 F 
ATOM     24  C   UNL     1       6.940   4.784  17.722  0.00  0.00    +0.000 A 
ATOM     25  F   UNL     1       8.138   5.325  17.983  0.00  0.00    +0.000 F 
ATOM     26  C   UNL     1       6.028   4.622  18.762  0.00  0.00    +0.000 A 
ENDBRANCH  18  19
ENDBRANCH  15  18
ENDBRANCH   5  14
TORSDOF 4
ENDMDL
MODEL 3
REMARK VINA RESULT:      -8.2      3.822      5.432
REMARK  Name = 
REMARK  5 active torsions:
REMARK  status: ('A' for Active; 'I' for Inactive)
REMARK    1  A    between atoms: C_1  and  C_2
REMARK    2  A    between atoms: C_4  and  C_5
REMARK    3  A    between atoms: C_9  and  N_10
REMARK    4  A    between atoms: C_11  and  C_13
REMARK    5  A    between atoms: C_13  and  C_14
REMARK                            x       y       z     vdW  Elec       q    Type
REMARK                         _______ _______ _______ _____ _____    ______ ____
ROOT
ATOM      1  C   UNL     1      -1.248  10.930  18.472  0.00  0.00    +0.000 A 
ATOM      2  C   UNL     1      -1.157  11.987  19.389  0.00  0.00    +0.000 A 
ATOM      3  C   UNL     1      -0.209  11.965  20.403  0.00  0.00    +0.000 A 
ATOM      4  C   UNL     1       0.649  10.873  20.528  0.00  0.00    +0.000 A 
ATOM      5  C   UNL     1       0.568   9.792  19.645  0.00  0.00    +0.000 A 
ATOM      6  C   UNL     1      -0.364   9.843  18.595  0.00  0.00    +0.000 A 
ENDROOT
BRANCH   1  10
ATOM      7  C   UNL     1      -3.619  10.118  14.236  0.00  0.00    +0.000 C 
ATOM      8  C   UNL     1      -3.241  10.574  15.589  0.00  0.00    +0.000 A 
ATOM      9  N   UNL     1      -2.173  10.248  16.277  0.00  0.00    +0.000 NA
ATOM     10  C   UNL     1      -2.288  10.970  17.449  0.00  0.00    +0.000 A 
ATOM     11  N   UNL     1      -3.405  11.714  17.512  0.00  0.00    +0.000 NA
ATOM     12  N   UNL     1      -3.981  11.453  16.326  0.00  0.00    +0.000 N 
ATOM     13  H   UNL     1      -4.855  11.907  16.085  0.00  0.00    +0.000 HD
ENDBRANCH   1  10
BRANCH   5  14
ATOM     14  N   UNL     1       1.364   8.629  19.782  0.00  0.00    +0.000 N 
ATOM     15  C   UNL     1       2.207   8.101  18.815  0.00  0.00    +0.000 C 
ATOM     16  O   UNL     1       2.379   8.537  17.679  0.00  0.00    +0.000 OA
ATOM     17  H   UNL     1       1.432   8.246  20.717  0.00  0.00    +0.000 HD
BRANCH  15  18
ATOM     18  C   UNL     1       3.037   6.923  19.303  0.00  0.00    +0.000 C 
BRANCH  18  19
ATOM     19  C   UNL     1       2.286   5.620  19.164  0.00  0.00    +0.000 A 
ATOM     20  C   UNL     1       2.094   5.045  17.894  0.00  0.00    +0.000 A 
ATOM     21  C   UNL     1       1.489   3.792  17.763  0.00  0.00    +0.000 A 
ATOM     22  C   UNL     1       1.059   3.120  18.901  0.00  0.00    +0.000 A 
ATOM     23  F   UNL     1       0.511   1.903  18.778  0.00  0.00    +0.000 F 
ATOM     24  C   UNL     1       1.206   3.698  20.155  0.00  0.00    +0.000 A 
ATOM     25  F   UNL     1       0.786   3.051  21.251  0.00  0.00    +0.000 F 
ATOM     26  C   UNL     1       1.811   4.945  20.295  0.00  0.00    +0.000 A 
ENDBRANCH  18  19
ENDBRANCH  15  18
ENDBRANCH   5  14
TORSDOF 4
ENDMDL
MODEL 4
REMARK VINA RESULT:      -7.8      3.711      5.379
REMARK  Name = 
REMARK  5 active torsions:
REMARK  status: ('A' for Active; 'I' for Inactive)
REMARK    1  A    between atoms: C_1  and  C_2
REMARK    2  A    between atoms: C_4  and  C_5
REMARK    3  A    between atoms: C_9  and  N_10
REMARK    4  A    between atoms: C_11  and  C_13
REMARK    5  A    between atoms: C_13  and  C_14
REMARK                            x       y       z     vdW  Elec       q    Type
REMARK                         _______ _______ _______ _____ _____    ______ ____
ROOT
ATOM      1  C   UNL     1      -1.476  11.019  18.058  0.00  0.00    +0.000 A 
ATOM      2  C   UNL     1      -1.329  12.253  18.705  0.00  0.00    +0.000 A 
ATOM      3  C   UNL     1      -0.324  12.444  19.645  0.00  0.00    +0.000 A 
ATOM      4  C   UNL     1       0.534  11.394  19.967  0.00  0.00    +0.000 A 
ATOM      5  C   UNL     1       0.399  10.143  19.357  0.00  0.00    +0.000 A 
ATOM      6  C   UNL     1      -0.591   9.972  18.375  0.00  0.00    +0.000 A 
ENDROOT
BRANCH   1  10
ATOM      7  C   UNL     1      -3.883   9.992  13.889  0.00  0.00    +0.000 C 
ATOM      8  C   UNL     1      -3.534  10.385  15.270  0.00  0.00    +0.000 A 
ATOM      9  N   UNL     1      -2.355  10.338  15.844  0.00  0.00    +0.000 NA
ATOM     10  C   UNL     1      -2.572  10.844  17.110  0.00  0.00    +0.000 A 
ATOM     11  N   UNL     1      -3.852  11.181  17.340  0.00  0.00    +0.000 NA
ATOM     12  N   UNL     1      -4.433  10.891  16.163  0.00  0.00    +0.000 N 
ATOM     13  H   UNL     1      -5.423  11.068  16.038  0.00  0.00    +0.000 HD
ENDBRANCH   1  10
BRANCH   5  14
ATOM     14  N   UNL     1       1.196   9.028  19.710  0.00  0.00    +0.000 N 
ATOM     15  C   UNL     1       1.978   8.279  18.842  0.00  0.00    +0.000 C 
ATOM     16  O   UNL     1       2.085   8.442  17.629  0.00  0.00    +0.000 OA
ATOM     17  H   UNL     1       1.317   8.866  20.702  0.00  0.00    +0.000 HD
BRANCH  15  18
ATOM     18  C   UNL     1       2.830   7.228  19.538  0.00  0.00    +0.000 C 
BRANCH  18  19
ATOM     19  C   UNL     1       2.267   5.839  19.343  0.00  0.00    +0.000 A 
ATOM     20  C   UNL     1       1.495   5.239  20.354  0.00  0.00    +0.000 A 
ATOM     21  C   UNL     1       0.888   3.998  20.144  0.00  0.00    +0.000 A 
ATOM     22  C   UNL     1       1.066   3.348  18.929  0.00  0.00    +0.000 A 
ATOM     23  F   UNL     1       0.455   2.174  18.715  0.00  0.00    +0.000 F 
ATOM     24  C   UNL     1       1.860   3.913  17.940  0.00  0.00    +0.000 A 
ATOM     25  F   UNL     1       2.036   3.282  16.771  0.00  0.00    +0.000 F 
ATOM     26  C   UNL     1       2.467   5.151  18.139  0.00  0.00    +0.000 A 
ENDBRANCH  18  19
ENDBRANCH  15  18
ENDBRANCH   5  14
TORSDOF 4
ENDMDL
MODEL 5
REMARK VINA RESULT:      -7.8      3.986      8.464
REMARK  Name = 
REMARK  5 active torsions:
REMARK  status: ('A' for Active; 'I' for Inactive)
REMARK    1  A    between atoms: C_1  and  C_2
REMARK    2  A    between atoms: C_4  and  C_5
REMARK    3  A    between atoms: C_9  and  N_10
REMARK    4  A    between atoms: C_11  and  C_13
REMARK    5  A    between atoms: C_13  and  C_14
REMARK                            x       y       z     vdW  Elec       q    Type
REMARK                         _______ _______ _______ _____ _____    ______ ____
ROOT
ATOM      1  C   UNL     1       3.741   4.505  19.156  0.00  0.00    +0.000 A 
ATOM      2  C   UNL     1       3.050   3.303  19.362  0.00  0.00    +0.000 A 
ATOM      3  C   UNL     1       1.851   3.288  20.063  0.00  0.00    +0.000 A 
ATOM      4  C   UNL     1       1.338   4.473  20.587  0.00  0.00    +0.000 A 
ATOM      5  C   UNL     1       2.015   5.684  20.420  0.00  0.00    +0.000 A 
ATOM      6  C   UNL     1       3.203   5.699  19.671  0.00  0.00    +0.000 A 
ENDROOT
BRANCH   1  10
ATOM      7  C   UNL     1       7.018   4.529  15.483  0.00  0.00    +0.000 C 
ATOM      8  C   UNL     1       6.369   4.486  16.809  0.00  0.00    +0.000 A 
ATOM      9  N   UNL     1       5.095   4.635  17.085  0.00  0.00    +0.000 NA
ATOM     10  C   UNL     1       5.021   4.473  18.454  0.00  0.00    +0.000 A 
ATOM     11  N   UNL     1       6.212   4.250  19.032  0.00  0.00    +0.000 NA
ATOM     12  N   UNL     1       7.041   4.254  17.974  0.00  0.00    +0.000 N 
ATOM     13  H   UNL     1       8.031   4.086  18.115  0.00  0.00    +0.000 HD
ENDBRANCH   1  10
BRANCH   5  14
ATOM     14  N   UNL     1       1.572   6.897  21.001  0.00  0.00    +0.000 N 
ATOM     15  C   UNL     1       1.548   8.138  20.379  0.00  0.00    +0.000 C 
ATOM     16  O   UNL     1       1.931   8.390  19.239  0.00  0.00    +0.000 OA
ATOM     17  H   UNL     1       1.094   6.814  21.889  0.00  0.00    +0.000 HD
BRANCH  15  18
ATOM     18  C   UNL     1       0.889   9.227  21.211  0.00  0.00    +0.000 C 
BRANCH  18  19
ATOM     19  C   UNL     1       0.382  10.356  20.345  0.00  0.00    +0.000 A 
ATOM     20  C   UNL     1       1.083  11.575  20.286  0.00  0.00    +0.000 A 
ATOM     21  C   UNL     1       0.679  12.587  19.413  0.00  0.00    +0.000 A 
ATOM     22  C   UNL     1      -0.438  12.392  18.610  0.00  0.00    +0.000 A 
ATOM     23  F   UNL     1      -0.804  13.350  17.748  0.00  0.00    +0.000 F 
ATOM     24  C   UNL     1      -1.161  11.209  18.691  0.00  0.00    +0.000 A 
ATOM     25  F   UNL     1      -2.242  11.023  17.920  0.00  0.00    +0.000 F 
ATOM     26  C   UNL     1      -0.764  10.192  19.556  0.00  0.00    +0.000 A 
ENDBRANCH  18  19
ENDBRANCH  15  18
ENDBRANCH   5  14
TORSDOF 4
ENDMDL
MODEL 6
REMARK VINA RESULT:      -7.8      4.310      9.070
REMARK  Name = 
REMARK  5 active torsions:
REMARK  status: ('A' for Active; 'I' for Inactive)
REMARK    1  A    between atoms: C_1  and  C_2
REMARK    2  A    between atoms: C_4  and  C_5
REMARK    3  A    between atoms: C_9  and  N_10
REMARK    4  A    between atoms: C_11  and  C_13
REMARK    5  A    between atoms: C_13  and  C_14
REMARK                            x       y       z     vdW  Elec       q    Type
REMARK                         _______ _______ _______ _____ _____    ______ ____
ROOT
ATOM      1  C   UNL     1       4.378   6.228  17.462  0.00  0.00    +0.000 A 
ATOM      2  C   UNL     1       4.225   5.415  18.593  0.00  0.00    +0.000 A 
ATOM      3  C   UNL     1       3.284   5.725  19.566  0.00  0.00    +0.000 A 
ATOM      4  C   UNL     1       2.497   6.868  19.432  0.00  0.00    +0.000 A 
ATOM      5  C   UNL     1       2.642   7.713  18.328  0.00  0.00    +0.000 A 
ATOM      6  C   UNL     1       3.564   7.367  17.326  0.00  0.00    +0.000 A 
ENDROOT
BRANCH   1  10
ATOM      7  C   UNL     1       6.639   4.066  13.662  0.00  0.00    +0.000 C 
ATOM      8  C   UNL     1       6.314   4.908  14.831  0.00  0.00    +0.000 A 
ATOM      9  N   UNL     1       5.163   5.008  15.454  0.00  0.00    +0.000 NA
ATOM     10  C   UNL     1       5.409   5.893  16.484  0.00  0.00    +0.000 A 
ATOM     11  N   UNL     1       6.669   6.357  16.503  0.00  0.00    +0.000 NA
ATOM     12  N   UNL     1       7.219   5.714  15.458  0.00  0.00    +0.000 N 
ATOM     13  H   UNL     1       8.198   5.862  15.240  0.00  0.00    +0.000 HD
ENDBRANCH   1  10
BRANCH   5  14
ATOM     14  N   UNL     1       1.921   8.924  18.189  0.00  0.00    +0.000 N 
ATOM     15  C   UNL     1       1.109   9.504  19.154  0.00  0.00    +0.000 C 
ATOM     16  O   UNL     1       0.862   9.050  20.269  0.00  0.00    +0.000 OA
ATOM     17  H   UNL     1       2.143   9.481  17.374  0.00  0.00    +0.000 HD
BRANCH  15  18
ATOM     18  C   UNL     1       0.578  10.875  18.763  0.00  0.00    +0.000 C 
BRANCH  18  19
ATOM     19  C   UNL     1      -0.894  10.824  18.427  0.00  0.00    +0.000 A 
ATOM     20  C   UNL     1      -1.808  11.642  19.119  0.00  0.00    +0.000 A 
ATOM     21  C   UNL     1      -3.154  11.676  18.749  0.00  0.00    +0.000 A 
ATOM     22  C   UNL     1      -3.594  10.880  17.698  0.00  0.00    +0.000 A 
ATOM     23  F   UNL     1      -4.878  10.939  17.320  0.00  0.00    +0.000 F 
ATOM     24  C   UNL     1      -2.708  10.039  17.036  0.00  0.00    +0.000 A 
ATOM     25  F   UNL     1      -3.135   9.267  16.027  0.00  0.00    +0.000 F 
ATOM     26  C   UNL     1      -1.363  10.000  17.396  0.00  0.00    +0.000 A 
ENDBRANCH  18  19
ENDBRANCH  15  18
ENDBRANCH   5  14
TORSDOF 4
ENDMDL
MODEL 7
REMARK VINA RESULT:      -7.7      3.299      4.721
REMARK  Name = 
REMARK  5 active torsions:
REMARK  status: ('A' for Active; 'I' for Inactive)
REMARK    1  A    between atoms: C_1  and  C_2
REMARK    2  A    between atoms: C_4  and  C_5
REMARK    3  A    between atoms: C_9  and  N_10
REMARK    4  A    between atoms: C_11  and  C_13
REMARK    5  A    between atoms: C_13  and  C_14
REMARK                            x       y       z     vdW  Elec       q    Type
REMARK                         _______ _______ _______ _____ _____    ______ ____
ROOT
ATOM      1  C   UNL     1      -0.648  10.308  19.249  0.00  0.00    +0.000 A 
ATOM      2  C   UNL     1      -0.688  10.778  20.569  0.00  0.00    +0.000 A 
ATOM      3  C   UNL     1       0.220  10.315  21.513  0.00  0.00    +0.000 A 
ATOM      4  C   UNL     1       1.167   9.358  21.153  0.00  0.00    +0.000 A 
ATOM      5  C   UNL     1       1.217   8.850  19.852  0.00  0.00    +0.000 A 
ATOM      6  C   UNL     1       0.326   9.358  18.892  0.00  0.00    +0.000 A 
ENDROOT
BRANCH   1  10
ATOM      7  C   UNL     1      -3.327  10.693  15.138  0.00  0.00    +0.000 C 
ATOM      8  C   UNL     1      -2.756  10.888  16.486  0.00  0.00    +0.000 A 
ATOM      9  N   UNL     1      -1.845  10.157  17.085  0.00  0.00    +0.000 NA
ATOM     10  C   UNL     1      -1.648  10.785  18.298  0.00  0.00    +0.000 A 
ATOM     11  N   UNL     1      -2.424  11.867  18.474  0.00  0.00    +0.000 NA
ATOM     12  N   UNL     1      -3.104  11.914  17.315  0.00  0.00    +0.000 N 
ATOM     13  H   UNL     1      -3.769  12.662  17.156  0.00  0.00    +0.000 HD
ENDBRANCH   1  10
BRANCH   5  14
ATOM     14  N   UNL     1       2.109   7.822  19.463  0.00  0.00    +0.000 N 
ATOM     15  C   UNL     1       2.737   7.710  18.231  0.00  0.00    +0.000 C 
ATOM     16  O   UNL     1       2.601   8.465  17.271  0.00  0.00    +0.000 OA
ATOM     17  H   UNL     1       2.427   7.208  20.203  0.00  0.00    +0.000 HD
BRANCH  15  18
ATOM     18  C   UNL     1       3.746   6.574  18.158  0.00  0.00    +0.000 C 
BRANCH  18  19
ATOM     19  C   UNL     1       3.124   5.253  18.547  0.00  0.00    +0.000 A 
ATOM     20  C   UNL     1       2.006   4.763  17.846  0.00  0.00    +0.000 A 
ATOM     21  C   UNL     1       1.486   3.499  18.131  0.00  0.00    +0.000 A 
ATOM     22  C   UNL     1       2.070   2.729  19.129  0.00  0.00    +0.000 A 
ATOM     23  F   UNL     1       1.592   1.502  19.379  0.00  0.00    +0.000 F 
ATOM     24  C   UNL     1       3.147   3.222  19.855  0.00  0.00    +0.000 A 
ATOM     25  F   UNL     1       3.706   2.480  20.822  0.00  0.00    +0.000 F 
ATOM     26  C   UNL     1       3.675   4.480  19.576  0.00  0.00    +0.000 A 
ENDBRANCH  18  19
ENDBRANCH  15  18
ENDBRANCH   5  14
TORSDOF 4
ENDMDL
MODEL 8
REMARK VINA RESULT:      -7.7      4.008      8.672
REMARK  Name = 
REMARK  5 active torsions:
REMARK  status: ('A' for Active; 'I' for Inactive)
REMARK    1  A    between atoms: C_1  and  C_2
REMARK    2  A    between atoms: C_4  and  C_5
REMARK    3  A    between atoms: C_9  and  N_10
REMARK    4  A    between atoms: C_11  and  C_13
REMARK    5  A    between atoms: C_13  and  C_14
REMARK                            x       y       z     vdW  Elec       q    Type
REMARK                         _______ _______ _______ _____ _____    ______ ____
ROOT
ATOM      1  C   UNL     1       6.692   4.936  16.811  0.00  0.00    +0.000 A 
ATOM      2  C   UNL     1       7.874   4.804  17.554  0.00  0.00    +0.000 A 
ATOM      3  C   UNL     1       7.867   4.975  18.932  0.00  0.00    +0.000 A 
ATOM      4  C   UNL     1       6.680   5.304  19.585  0.00  0.00    +0.000 A 
ATOM      5  C   UNL     1       5.489   5.467  18.870  0.00  0.00    +0.000 A 
ATOM      6  C   UNL     1       5.496   5.247  17.483  0.00  0.00    +0.000 A 
ENDROOT
BRANCH   1  10
ATOM      7  C   UNL     1       5.809   3.226  12.281  0.00  0.00    +0.000 C 
ATOM      8  C   UNL     1       6.317   3.991  13.438  0.00  0.00    +0.000 A 
ATOM      9  N   UNL     1       5.951   3.884  14.694  0.00  0.00    +0.000 NA
ATOM     10  C   UNL     1       6.749   4.793  15.360  0.00  0.00    +0.000 A 
ATOM     11  N   UNL     1       7.579   5.471  14.550  0.00  0.00    +0.000 NA
ATOM     12  N   UNL     1       7.292   4.940  13.349  0.00  0.00    +0.000 N 
ATOM     13  H   UNL     1       7.797   5.259  12.529  0.00  0.00    +0.000 HD
ENDBRANCH   1  10
BRANCH   5  14
ATOM     14  N   UNL     1       4.279   5.877  19.480  0.00  0.00    +0.000 N 
ATOM     15  C   UNL     1       3.141   5.099  19.637  0.00  0.00    +0.000 C 
ATOM     16  O   UNL     1       2.988   3.943  19.249  0.00  0.00    +0.000 OA
ATOM     17  H   UNL     1       4.309   6.760  19.975  0.00  0.00    +0.000 HD
BRANCH  15  18
ATOM     18  C   UNL     1       2.048   5.770  20.455  0.00  0.00    +0.000 C 
BRANCH  18  19
ATOM     19  C   UNL     1       1.803   7.189  19.996  0.00  0.00    +0.000 A 
ATOM     20  C   UNL     1       2.077   7.561  18.667  0.00  0.00    +0.000 A 
ATOM     21  C   UNL     1       1.761   8.841  18.207  0.00  0.00    +0.000 A 
ATOM     22  C   UNL     1       1.187   9.758  19.079  0.00  0.00    +0.000 A 
ATOM     23  F   UNL     1       0.853  10.975  18.627  0.00  0.00    +0.000 F 
ATOM     24  C   UNL     1       0.952   9.414  20.404  0.00  0.00    +0.000 A 
ATOM     25  F   UNL     1       0.404  10.301  21.245  0.00  0.00    +0.000 F 
ATOM     26  C   UNL     1       1.260   8.138  20.871  0.00  0.00    +0.000 A 
ENDBRANCH  18  19
ENDBRANCH  15  18
ENDBRANCH   5  14
TORSDOF 4
ENDMDL
MODEL 9
REMARK VINA RESULT:      -7.7      1.879      2.223
REMARK  Name = 
REMARK  5 active torsions:
REMARK  status: ('A' for Active; 'I' for Inactive)
REMARK    1  A    between atoms: C_1  and  C_2
REMARK    2  A    between atoms: C_4  and  C_5
REMARK    3  A    between atoms: C_9  and  N_10
REMARK    4  A    between atoms: C_11  and  C_13
REMARK    5  A    between atoms: C_13  and  C_14
REMARK                            x       y       z     vdW  Elec       q    Type
REMARK                         _______ _______ _______ _____ _____    ______ ____
ROOT
ATOM      1  C   UNL     1       0.656   9.232  20.201  0.00  0.00    +0.000 A 
ATOM      2  C   UNL     1       0.518  10.054  19.074  0.00  0.00    +0.000 A 
ATOM      3  C   UNL     1       1.152   9.732  17.881  0.00  0.00    +0.000 A 
ATOM      4  C   UNL     1       1.952   8.593  17.805  0.00  0.00    +0.000 A 
ATOM      5  C   UNL     1       2.130   7.765  18.917  0.00  0.00    +0.000 A 
ATOM      6  C   UNL     1       1.448   8.073  20.107  0.00  0.00    +0.000 A 
ENDROOT
BRANCH   1  10
ATOM      7  C   UNL     1      -1.932  11.874  23.449  0.00  0.00    +0.000 C 
ATOM      8  C   UNL     1      -1.117  10.833  22.791  0.00  0.00    +0.000 A 
ATOM      9  N   UNL     1      -0.765  10.768  21.528  0.00  0.00    +0.000 NA
ATOM     10  C   UNL     1       0.011   9.628  21.449  0.00  0.00    +0.000 A 
ATOM     11  N   UNL     1       0.129   8.978  22.618  0.00  0.00    +0.000 NA
ATOM     12  N   UNL     1      -0.582   9.762  23.446  0.00  0.00    +0.000 N 
ATOM     13  H   UNL     1      -0.652   9.518  24.428  0.00  0.00    +0.000 HD
ENDBRANCH   1  10
BRANCH   5  14
ATOM     14  N   UNL     1       2.994   6.644  18.909  0.00  0.00    +0.000 N 
ATOM     15  C   UNL     1       2.738   5.422  18.303  0.00  0.00    +0.000 C 
ATOM     16  O   UNL     1       1.713   5.105  17.703  0.00  0.00    +0.000 OA
ATOM     17  H   UNL     1       3.936   6.808  19.242  0.00  0.00    +0.000 HD
BRANCH  15  18
ATOM     18  C   UNL     1       3.914   4.459  18.344  0.00  0.00    +0.000 C 
BRANCH  18  19
ATOM     19  C   UNL     1       5.234   5.195  18.318  0.00  0.00    +0.000 A 
ATOM     20  C   UNL     1       5.498   6.141  17.311  0.00  0.00    +0.000 A 
ATOM     21  C   UNL     1       6.672   6.897  17.335  0.00  0.00    +0.000 A 
ATOM     22  C   UNL     1       7.593   6.697  18.356  0.00  0.00    +0.000 A 
ATOM     23  F   UNL     1       8.702   7.447  18.399  0.00  0.00    +0.000 F 
ATOM     24  C   UNL     1       7.360   5.736  19.332  0.00  0.00    +0.000 A 
ATOM     25  F   UNL     1       8.252   5.540  20.314  0.00  0.00    +0.000 F 
ATOM     26  C   UNL     1       6.191   4.980  19.318  0.00  0.00    +0.000 A 
ENDBRANCH  18  19
ENDBRANCH  15  18
ENDBRANCH   5  14
TORSDOF 4
ENDMDL
