MODEL 1
REMARK VINA RESULT:      -8.5      0.000      0.000
REMARK  Name = 
REMARK  3 active torsions:
REMARK  status: ('A' for Active; 'I' for Inactive)
REMARK    1  A    between atoms: C_1  and  C_2
REMARK    2  A    between atoms: N_4  and  C_5
REMARK    3  A    between atoms: N_16  and  C_17
REMARK                            x       y       z     vdW  Elec       q    Type
REMARK                         _______ _______ _______ _____ _____    ______ ____
ROOT
ATOM      1  C   UNL     1       5.531   6.974  16.409  0.00  0.00    +0.000 C 
ATOM      2  C   UNL     1       4.355   6.762  17.283  0.00  0.00    +0.000 A 
ATOM      3  C   UNL     1       3.973   5.522  17.727  0.00  0.00    +0.000 A 
ATOM      4  N   UNL     1       2.812   5.667  18.441  0.00  0.00    +0.000 N 
ATOM      5  N   UNL     1       2.409   6.959  18.466  0.00  0.00    +0.000 NA
ATOM      6  C   UNL     1       3.350   7.632  17.793  0.00  0.00    +0.000 A 
ATOM      7  N   UNL     1       3.310   9.005  17.639  0.00  0.00    +0.000 N 
ATOM      8  C   UNL     1       2.211   9.821  17.808  0.00  0.00    +0.000 C 
ATOM      9  O   UNL     1       2.357  11.039  17.643  0.00  0.00    +0.000 OA
ATOM     10  N   UNL     1       1.031   9.211  18.127  0.00  0.00    +0.000 N 
ATOM     11  H   UNL     1       4.143   9.484  17.339  0.00  0.00    +0.000 HD
ATOM     12  H   UNL     1       1.169   8.354  18.665  0.00  0.00    +0.000 HD
ENDROOT
BRANCH  10  13
ATOM     13  C   UNL     1      -0.186   9.899  18.255  0.00  0.00    +0.000 A 
ATOM     14  C   UNL     1      -0.402  10.690  19.399  0.00  0.00    +0.000 A 
ATOM     15  C   UNL     1      -1.587  11.420  19.550  0.00  0.00    +0.000 A 
ATOM     16  C   UNL     1      -2.537  11.295  18.559  0.00  0.00    +0.000 A 
ATOM     17  C   UNL     1      -2.353  10.486  17.442  0.00  0.00    +0.000 A 
ATOM     18  C   UNL     1      -1.175   9.780  17.269  0.00  0.00    +0.000 A 
ATOM     19  C   UNL     1      -3.564  10.569  16.561  0.00  0.00    +0.000 C 
ATOM     20  C   UNL     1      -4.453  11.555  17.329  0.00  0.00    +0.000 C 
ATOM     21  O   UNL     1      -5.557  11.952  16.998  0.00  0.00    +0.000 OA
ATOM     22  N   UNL     1      -3.774  11.919  18.485  0.00  0.00    +0.000 N 
ATOM     23  H   UNL     1      -4.150  12.568  19.159  0.00  0.00    +0.000 HD
ENDBRANCH  10  13
BRANCH   4  24
ATOM     24  C   UNL     1       2.080   4.631  19.081  0.00  0.00    +0.000 A 
ATOM     25  C   UNL     1       2.074   4.563  20.486  0.00  0.00    +0.000 A 
ATOM     26  C   UNL     1       1.386   3.544  21.133  0.00  0.00    +0.000 A 
ATOM     27  C   UNL     1       0.702   2.589  20.391  0.00  0.00    +0.000 A 
ATOM     28  C   UNL     1       0.698   2.655  18.996  0.00  0.00    +0.000 A 
ATOM     29  C   UNL     1       1.378   3.681  18.334  0.00  0.00    +0.000 A 
ENDBRANCH   4  24
TORSDOF 2
ENDMDL
MODEL 2
REMARK VINA RESULT:      -8.4      0.483      1.057
REMARK  Name = 
REMARK  3 active torsions:
REMARK  status: ('A' for Active; 'I' for Inactive)
REMARK    1  A    between atoms: C_1  and  C_2
REMARK    2  A    between atoms: N_4  and  C_5
REMARK    3  A    between atoms: N_16  and  C_17
REMARK                            x       y       z     vdW  Elec       q    Type
REMARK                         _______ _______ _______ _____ _____    ______ ____
ROOT
ATOM      1  C   UNL     1       5.300   6.694  16.076  0.00  0.00    +0.000 C 
ATOM      2  C   UNL     1       4.262   6.577  17.126  0.00  0.00    +0.000 A 
ATOM      3  C   UNL     1       3.925   5.383  17.710  0.00  0.00    +0.000 A 
ATOM      4  N   UNL     1       2.886   5.611  18.573  0.00  0.00    +0.000 N 
ATOM      5  N   UNL     1       2.517   6.913  18.566  0.00  0.00    +0.000 NA
ATOM      6  C   UNL     1       3.362   7.510  17.715  0.00  0.00    +0.000 A 
ATOM      7  N   UNL     1       3.327   8.871  17.471  0.00  0.00    +0.000 N 
ATOM      8  C   UNL     1       2.283   9.729  17.740  0.00  0.00    +0.000 C 
ATOM      9  O   UNL     1       2.427  10.929  17.470  0.00  0.00    +0.000 OA
ATOM     10  N   UNL     1       1.151   9.178  18.272  0.00  0.00    +0.000 N 
ATOM     11  H   UNL     1       4.116   9.302  17.019  0.00  0.00    +0.000 HD
ATOM     12  H   UNL     1       1.349   8.356  18.844  0.00  0.00    +0.000 HD
ENDROOT
BRANCH  10  13
ATOM     13  C   UNL     1      -0.019   9.911  18.528  0.00  0.00    +0.000 A 
ATOM     14  C   UNL     1      -0.064  10.749  19.658  0.00  0.00    +0.000 A 
ATOM     15  C   UNL     1      -1.198  11.523  19.931  0.00  0.00    +0.000 A 
ATOM     16  C   UNL     1      -2.271  11.395  19.075  0.00  0.00    +0.000 A 
ATOM     17  C   UNL     1      -2.256  10.540  17.977  0.00  0.00    +0.000 A 
ATOM     18  C   UNL     1      -1.131   9.790  17.682  0.00  0.00    +0.000 A 
ATOM     19  C   UNL     1      -3.568  10.632  17.255  0.00  0.00    +0.000 C 
ATOM     20  C   UNL     1      -4.322  11.674  18.091  0.00  0.00    +0.000 C 
ATOM     21  O   UNL     1      -5.447  12.095  17.889  0.00  0.00    +0.000 OA
ATOM     22  N   UNL     1      -3.489  12.056  19.136  0.00  0.00    +0.000 N 
ATOM     23  H   UNL     1      -3.756  12.740  19.826  0.00  0.00    +0.000 HD
ENDBRANCH  10  13
BRANCH   4  24
ATOM     24  C   UNL     1       2.236   4.644  19.387  0.00  0.00    +0.000 A 
ATOM     25  C   UNL     1       1.325   3.751  18.796  0.00  0.00    +0.000 A 
ATOM     26  C   UNL     1       0.659   2.814  19.575  0.00  0.00    +0.000 A 
ATOM     27  C   UNL     1       0.893   2.758  20.944  0.00  0.00    +0.000 A 
ATOM     28  C   UNL     1       1.802   3.638  21.536  0.00  0.00    +0.000 A 
ATOM     29  C   UNL     1       2.486   4.578  20.761  0.00  0.00    +0.000 A 
ENDBRANCH   4  24
TORSDOF 2
ENDMDL
MODEL 3
REMARK VINA RESULT:      -8.1      1.007      1.693
REMARK  Name = 
REMARK  3 active torsions:
REMARK  status: ('A' for Active; 'I' for Inactive)
REMARK    1  A    between atoms: C_1  and  C_2
REMARK    2  A    between atoms: N_4  and  C_5
REMARK    3  A    between atoms: N_16  and  C_17
REMARK                            x       y       z     vdW  Elec       q    Type
REMARK                         _______ _______ _______ _____ _____    ______ ____
ROOT
ATOM      1  C   UNL     1       5.502   7.067  16.379  0.00  0.00    +0.000 C 
ATOM      2  C   UNL     1       4.315   6.824  17.230  0.00  0.00    +0.000 A 
ATOM      3  C   UNL     1       3.910   5.568  17.601  0.00  0.00    +0.000 A 
ATOM      4  N   UNL     1       2.745   5.691  18.313  0.00  0.00    +0.000 N 
ATOM      5  N   UNL     1       2.362   6.985  18.408  0.00  0.00    +0.000 NA
ATOM      6  C   UNL     1       3.320   7.680  17.782  0.00  0.00    +0.000 A 
ATOM      7  N   UNL     1       3.303   9.060  17.706  0.00  0.00    +0.000 N 
ATOM      8  C   UNL     1       2.216   9.883  17.912  0.00  0.00    +0.000 C 
ATOM      9  O   UNL     1       2.382  11.106  17.818  0.00  0.00    +0.000 OA
ATOM     10  N   UNL     1       1.023   9.275  18.187  0.00  0.00    +0.000 N 
ATOM     11  H   UNL     1       4.145   9.542  17.440  0.00  0.00    +0.000 HD
ATOM     12  H   UNL     1       1.143   8.387  18.676  0.00  0.00    +0.000 HD
ENDROOT
BRANCH  10  13
ATOM     13  C   UNL     1      -0.184   9.974  18.345  0.00  0.00    +0.000 A 
ATOM     14  C   UNL     1      -1.182   9.838  17.361  0.00  0.00    +0.000 A 
ATOM     15  C   UNL     1      -2.413  10.491  17.497  0.00  0.00    +0.000 A 
ATOM     16  C   UNL     1      -2.583  11.296  18.602  0.00  0.00    +0.000 A 
ATOM     17  C   UNL     1      -1.591  11.472  19.562  0.00  0.00    +0.000 A 
ATOM     18  C   UNL     1      -0.380  10.811  19.452  0.00  0.00    +0.000 A 
ATOM     19  C   UNL     1      -2.086  12.402  20.628  0.00  0.00    +0.000 C 
ATOM     20  C   UNL     1      -3.509  12.715  20.146  0.00  0.00    +0.000 C 
ATOM     21  O   UNL     1      -4.324  13.434  20.697  0.00  0.00    +0.000 OA
ATOM     22  N   UNL     1      -3.706  12.032  18.952  0.00  0.00    +0.000 N 
ATOM     23  H   UNL     1      -4.571  12.070  18.437  0.00  0.00    +0.000 HD
ENDBRANCH  10  13
BRANCH   4  24
ATOM     24  C   UNL     1       1.992   4.633  18.888  0.00  0.00    +0.000 A 
ATOM     25  C   UNL     1       1.754   4.634  20.274  0.00  0.00    +0.000 A 
ATOM     26  C   UNL     1       1.041   3.596  20.862  0.00  0.00    +0.000 A 
ATOM     27  C   UNL     1       0.562   2.553  20.079  0.00  0.00    +0.000 A 
ATOM     28  C   UNL     1       0.788   2.549  18.701  0.00  0.00    +0.000 A 
ATOM     29  C   UNL     1       1.495   3.593  18.096  0.00  0.00    +0.000 A 
ENDBRANCH   4  24
TORSDOF 2
ENDMDL
MODEL 4
REMARK VINA RESULT:      -8.0      1.190      2.095
REMARK  Name = 
REMARK  3 active torsions:
REMARK  status: ('A' for Active; 'I' for Inactive)
REMARK    1  A    between atoms: C_1  and  C_2
REMARK    2  A    between atoms: N_4  and  C_5
REMARK    3  A    between atoms: N_16  and  C_17
REMARK                            x       y       z     vdW  Elec       q    Type
REMARK                         _______ _______ _______ _____ _____    ______ ____
ROOT
ATOM      1  C   UNL     1       5.338   6.676  16.109  0.00  0.00    +0.000 C 
ATOM      2  C   UNL     1       4.294   6.569  17.154  0.00  0.00    +0.000 A 
ATOM      3  C   UNL     1       3.948   5.379  17.740  0.00  0.00    +0.000 A 
ATOM      4  N   UNL     1       2.905   5.615  18.597  0.00  0.00    +0.000 N 
ATOM      5  N   UNL     1       2.543   6.919  18.582  0.00  0.00    +0.000 NA
ATOM      6  C   UNL     1       3.396   7.509  17.734  0.00  0.00    +0.000 A 
ATOM      7  N   UNL     1       3.370   8.868  17.485  0.00  0.00    +0.000 N 
ATOM      8  C   UNL     1       2.328   9.734  17.745  0.00  0.00    +0.000 C 
ATOM      9  O   UNL     1       2.481  10.931  17.470  0.00  0.00    +0.000 OA
ATOM     10  N   UNL     1       1.190   9.191  18.272  0.00  0.00    +0.000 N 
ATOM     11  H   UNL     1       4.163   9.294  17.035  0.00  0.00    +0.000 HD
ATOM     12  H   UNL     1       1.381   8.370  18.848  0.00  0.00    +0.000 HD
ENDROOT
BRANCH  10  13
ATOM     13  C   UNL     1       0.023   9.930  18.519  0.00  0.00    +0.000 A 
ATOM     14  C   UNL     1      -1.016   9.897  17.570  0.00  0.00    +0.000 A 
ATOM     15  C   UNL     1      -2.211  10.592  17.792  0.00  0.00    +0.000 A 
ATOM     16  C   UNL     1      -2.303  11.335  18.949  0.00  0.00    +0.000 A 
ATOM     17  C   UNL     1      -1.269  11.409  19.878  0.00  0.00    +0.000 A 
ATOM     18  C   UNL     1      -0.094  10.705  19.681  0.00  0.00    +0.000 A 
ATOM     19  C   UNL     1      -1.682  12.294  21.016  0.00  0.00    +0.000 C 
ATOM     20  C   UNL     1      -3.106  12.696  20.610  0.00  0.00    +0.000 C 
ATOM     21  O   UNL     1      -3.868  13.414  21.234  0.00  0.00    +0.000 OA
ATOM     22  N   UNL     1      -3.379  12.095  19.387  0.00  0.00    +0.000 N 
ATOM     23  H   UNL     1      -4.259  12.202  18.909  0.00  0.00    +0.000 HD
ENDBRANCH  10  13
BRANCH   4  24
ATOM     24  C   UNL     1       2.246   4.655  19.410  0.00  0.00    +0.000 A 
ATOM     25  C   UNL     1       1.319   3.777  18.821  0.00  0.00    +0.000 A 
ATOM     26  C   UNL     1       0.644   2.846  19.601  0.00  0.00    +0.000 A 
ATOM     27  C   UNL     1       0.884   2.783  20.968  0.00  0.00    +0.000 A 
ATOM     28  C   UNL     1       1.808   3.648  21.559  0.00  0.00    +0.000 A 
ATOM     29  C   UNL     1       2.501   4.581  20.783  0.00  0.00    +0.000 A 
ENDBRANCH   4  24
TORSDOF 2
ENDMDL
MODEL 5
REMARK VINA RESULT:      -8.0      2.886      8.357
REMARK  Name = 
REMARK  3 active torsions:
REMARK  status: ('A' for Active; 'I' for Inactive)
REMARK    1  A    between atoms: C_1  and  C_2
REMARK    2  A    between atoms: N_4  and  C_5
REMARK    3  A    between atoms: N_16  and  C_17
REMARK                            x       y       z     vdW  Elec       q    Type
REMARK                         _______ _______ _______ _____ _____    ______ ____
ROOT
ATOM      1  C   UNL     1      -2.185  12.720  23.059  0.00  0.00    +0.000 C 
ATOM      2  C   UNL     1      -1.904  12.127  21.732  0.00  0.00    +0.000 A 
ATOM      3  C   UNL     1      -2.750  12.267  20.661  0.00  0.00    +0.000 A 
ATOM      4  N   UNL     1      -2.239  11.537  19.620  0.00  0.00    +0.000 N 
ATOM      5  N   UNL     1      -1.095  10.908  19.975  0.00  0.00    +0.000 NA
ATOM      6  C   UNL     1      -0.869  11.282  21.241  0.00  0.00    +0.000 A 
ATOM      7  N   UNL     1       0.247  10.871  21.945  0.00  0.00    +0.000 N 
ATOM      8  C   UNL     1       1.068   9.807  21.640  0.00  0.00    +0.000 C 
ATOM      9  O   UNL     1       2.040   9.589  22.375  0.00  0.00    +0.000 OA
ATOM     10  N   UNL     1       0.728   9.056  20.550  0.00  0.00    +0.000 N 
ATOM     11  H   UNL     1       0.492  11.358  22.791  0.00  0.00    +0.000 HD
ATOM     12  H   UNL     1       0.248   9.604  19.835  0.00  0.00    +0.000 HD
ENDROOT
BRANCH  10  13
ATOM     13  C   UNL     1       1.421   7.899  20.161  0.00  0.00    +0.000 A 
ATOM     14  C   UNL     1       2.201   7.935  18.989  0.00  0.00    +0.000 A 
ATOM     15  C   UNL     1       2.936   6.815  18.584  0.00  0.00    +0.000 A 
ATOM     16  C   UNL     1       2.827   5.676  19.353  0.00  0.00    +0.000 A 
ATOM     17  C   UNL     1       2.029   5.613  20.491  0.00  0.00    +0.000 A 
ATOM     18  C   UNL     1       1.320   6.723  20.916  0.00  0.00    +0.000 A 
ATOM     19  C   UNL     1       2.129   4.244  21.096  0.00  0.00    +0.000 C 
ATOM     20  C   UNL     1       3.111   3.545  20.147  0.00  0.00    +0.000 C 
ATOM     21  O   UNL     1       3.518   2.400  20.233  0.00  0.00    +0.000 OA
ATOM     22  N   UNL     1       3.458   4.456  19.157  0.00  0.00    +0.000 N 
ATOM     23  H   UNL     1       4.102   4.236  18.413  0.00  0.00    +0.000 HD
ENDBRANCH  10  13
BRANCH   4  24
ATOM     24  C   UNL     1      -2.801  11.413  18.321  0.00  0.00    +0.000 A 
ATOM     25  C   UNL     1      -4.168  11.683  18.136  0.00  0.00    +0.000 A 
ATOM     26  C   UNL     1      -4.745  11.545  16.879  0.00  0.00    +0.000 A 
ATOM     27  C   UNL     1      -3.969  11.136  15.802  0.00  0.00    +0.000 A 
ATOM     28  C   UNL     1      -2.609  10.871  15.977  0.00  0.00    +0.000 A 
ATOM     29  C   UNL     1      -2.015  11.018  17.234  0.00  0.00    +0.000 A 
ENDBRANCH   4  24
TORSDOF 2
ENDMDL
MODEL 6
REMARK VINA RESULT:      -7.9      2.871      8.303
REMARK  Name = 
REMARK  3 active torsions:
REMARK  status: ('A' for Active; 'I' for Inactive)
REMARK    1  A    between atoms: C_1  and  C_2
REMARK    2  A    between atoms: N_4  and  C_5
REMARK    3  A    between atoms: N_16  and  C_17
REMARK                            x       y       z     vdW  Elec       q    Type
REMARK                         _______ _______ _______ _____ _____    ______ ____
ROOT
ATOM      1  C   UNL     1      -2.200  12.764  22.637  0.00  0.00    +0.000 C 
ATOM      2  C   UNL     1      -1.891  12.083  21.359  0.00  0.00    +0.000 A 
ATOM      3  C   UNL     1      -2.715  12.144  20.265  0.00  0.00    +0.000 A 
ATOM      4  N   UNL     1      -2.181  11.347  19.286  0.00  0.00    +0.000 N 
ATOM      5  N   UNL     1      -1.041  10.751  19.706  0.00  0.00    +0.000 NA
ATOM      6  C   UNL     1      -0.842  11.212  20.947  0.00  0.00    +0.000 A 
ATOM      7  N   UNL     1       0.262  10.858  21.699  0.00  0.00    +0.000 N 
ATOM      8  C   UNL     1       1.094   9.779  21.485  0.00  0.00    +0.000 C 
ATOM      9  O   UNL     1       2.052   9.618  22.252  0.00  0.00    +0.000 OA
ATOM     10  N   UNL     1       0.778   8.953  20.442  0.00  0.00    +0.000 N 
ATOM     11  H   UNL     1       0.488  11.402  22.515  0.00  0.00    +0.000 HD
ATOM     12  H   UNL     1       0.309   9.448  19.682  0.00  0.00    +0.000 HD
ENDROOT
BRANCH  10  13
ATOM     13  C   UNL     1       1.484   7.776  20.147  0.00  0.00    +0.000 A 
ATOM     14  C   UNL     1       2.322   7.751  19.016  0.00  0.00    +0.000 A 
ATOM     15  C   UNL     1       3.070   6.610  18.705  0.00  0.00    +0.000 A 
ATOM     16  C   UNL     1       2.917   5.512  19.524  0.00  0.00    +0.000 A 
ATOM     17  C   UNL     1       2.063   5.509  20.622  0.00  0.00    +0.000 A 
ATOM     18  C   UNL     1       1.338   6.640  20.955  0.00  0.00    +0.000 A 
ATOM     19  C   UNL     1       2.124   4.172  21.299  0.00  0.00    +0.000 C 
ATOM     20  C   UNL     1       3.150   3.422  20.438  0.00  0.00    +0.000 C 
ATOM     21  O   UNL     1       3.545   2.282  20.601  0.00  0.00    +0.000 OA
ATOM     22  N   UNL     1       3.551   4.282  19.421  0.00  0.00    +0.000 N 
ATOM     23  H   UNL     1       4.229   4.023  18.723  0.00  0.00    +0.000 HD
ENDBRANCH  10  13
BRANCH   4  24
ATOM     24  C   UNL     1      -2.717  11.131  17.988  0.00  0.00    +0.000 A 
ATOM     25  C   UNL     1      -1.986  10.364  17.064  0.00  0.00    +0.000 A 
ATOM     26  C   UNL     1      -2.479  10.160  15.781  0.00  0.00    +0.000 A 
ATOM     27  C   UNL     1      -3.696  10.716  15.409  0.00  0.00    +0.000 A 
ATOM     28  C   UNL     1      -4.430  11.474  16.324  0.00  0.00    +0.000 A 
ATOM     29  C   UNL     1      -3.951  11.677  17.621  0.00  0.00    +0.000 A 
ENDBRANCH   4  24
TORSDOF 2
ENDMDL
MODEL 7
REMARK VINA RESULT:      -7.9      2.860      8.181
REMARK  Name = 
REMARK  3 active torsions:
REMARK  status: ('A' for Active; 'I' for Inactive)
REMARK    1  A    between atoms: C_1  and  C_2
REMARK    2  A    between atoms: N_4  and  C_5
REMARK    3  A    between atoms: N_16  and  C_17
REMARK                            x       y       z     vdW  Elec       q    Type
REMARK                         _______ _______ _______ _____ _____    ______ ____
ROOT
ATOM      1  C   UNL     1      -2.127  12.841  22.670  0.00  0.00    +0.000 C 
ATOM      2  C   UNL     1      -1.839  12.152  21.391  0.00  0.00    +0.000 A 
ATOM      3  C   UNL     1      -2.673  12.222  20.305  0.00  0.00    +0.000 A 
ATOM      4  N   UNL     1      -2.159  11.415  19.324  0.00  0.00    +0.000 N 
ATOM      5  N   UNL     1      -1.024  10.804  19.735  0.00  0.00    +0.000 NA
ATOM      6  C   UNL     1      -0.807  11.265  20.973  0.00  0.00    +0.000 A 
ATOM      7  N   UNL     1       0.299  10.897  21.716  0.00  0.00    +0.000 N 
ATOM      8  C   UNL     1       1.113   9.807  21.497  0.00  0.00    +0.000 C 
ATOM      9  O   UNL     1       2.076   9.634  22.256  0.00  0.00    +0.000 OA
ATOM     10  N   UNL     1       0.777   8.983  20.460  0.00  0.00    +0.000 N 
ATOM     11  H   UNL     1       0.540  11.441  22.528  0.00  0.00    +0.000 HD
ATOM     12  H   UNL     1       0.308   9.481  19.702  0.00  0.00    +0.000 HD
ENDROOT
BRANCH  10  13
ATOM     13  C   UNL     1       1.464   7.795  20.162  0.00  0.00    +0.000 A 
ATOM     14  C   UNL     1       1.276   6.674  20.993  0.00  0.00    +0.000 A 
ATOM     15  C   UNL     1       1.915   5.460  20.712  0.00  0.00    +0.000 A 
ATOM     16  C   UNL     1       2.757   5.427  19.622  0.00  0.00    +0.000 A 
ATOM     17  C   UNL     1       2.983   6.538  18.815  0.00  0.00    +0.000 A 
ATOM     18  C   UNL     1       2.337   7.736  19.067  0.00  0.00    +0.000 A 
ATOM     19  C   UNL     1       3.945   6.175  17.723  0.00  0.00    +0.000 C 
ATOM     20  C   UNL     1       4.219   4.694  18.015  0.00  0.00    +0.000 C 
ATOM     21  O   UNL     1       4.944   3.947  17.383  0.00  0.00    +0.000 OA
ATOM     22  N   UNL     1       3.488   4.348  19.146  0.00  0.00    +0.000 N 
ATOM     23  H   UNL     1       3.495   3.420  19.539  0.00  0.00    +0.000 HD
ENDBRANCH  10  13
BRANCH   4  24
ATOM     24  C   UNL     1      -2.709  11.202  18.031  0.00  0.00    +0.000 A 
ATOM     25  C   UNL     1      -4.007  11.665  17.753  0.00  0.00    +0.000 A 
ATOM     26  C   UNL     1      -4.575  11.447  16.505  0.00  0.00    +0.000 A 
ATOM     27  C   UNL     1      -3.860  10.767  15.527  0.00  0.00    +0.000 A 
ATOM     28  C   UNL     1      -2.567  10.310  15.793  0.00  0.00    +0.000 A 
ATOM     29  C   UNL     1      -1.981  10.533  17.043  0.00  0.00    +0.000 A 
ENDBRANCH   4  24
TORSDOF 2
ENDMDL
MODEL 8
REMARK VINA RESULT:      -7.6      3.275      7.782
REMARK  Name = 
REMARK  3 active torsions:
REMARK  status: ('A' for Active; 'I' for Inactive)
REMARK    1  A    between atoms: C_1  and  C_2
REMARK    2  A    between atoms: N_4  and  C_5
REMARK    3  A    between atoms: N_16  and  C_17
REMARK                            x       y       z     vdW  Elec       q    Type
REMARK                         _______ _______ _______ _____ _____    ______ ____
ROOT
ATOM      1  C   UNL     1       2.573  13.417  17.871  0.00  0.00    +0.000 C 
ATOM      2  C   UNL     1       1.747  12.443  18.622  0.00  0.00    +0.000 A 
ATOM      3  C   UNL     1       0.927  12.807  19.658  0.00  0.00    +0.000 A 
ATOM      4  N   UNL     1       0.373  11.668  20.181  0.00  0.00    +0.000 N 
ATOM      5  N   UNL     1       0.814  10.565  19.532  0.00  0.00    +0.000 NA
ATOM      6  C   UNL     1       1.623  11.026  18.570  0.00  0.00    +0.000 A 
ATOM      7  N   UNL     1       2.239  10.189  17.659  0.00  0.00    +0.000 N 
ATOM      8  C   UNL     1       2.422   8.828  17.782  0.00  0.00    +0.000 C 
ATOM      9  O   UNL     1       2.986   8.227  16.858  0.00  0.00    +0.000 OA
ATOM     10  N   UNL     1       1.981   8.248  18.938  0.00  0.00    +0.000 N 
ATOM     11  H   UNL     1       2.637  10.589  16.825  0.00  0.00    +0.000 HD
ATOM     12  H   UNL     1       1.175   8.734  19.335  0.00  0.00    +0.000 HD
ENDROOT
BRANCH  10  13
ATOM     13  C   UNL     1       2.165   6.889  19.241  0.00  0.00    +0.000 A 
ATOM     14  C   UNL     1       1.778   6.417  20.510  0.00  0.00    +0.000 A 
ATOM     15  C   UNL     1       1.913   5.063  20.841  0.00  0.00    +0.000 A 
ATOM     16  C   UNL     1       2.472   4.234  19.893  0.00  0.00    +0.000 A 
ATOM     17  C   UNL     1       2.896   4.694  18.649  0.00  0.00    +0.000 A 
ATOM     18  C   UNL     1       2.743   6.025  18.301  0.00  0.00    +0.000 A 
ATOM     19  C   UNL     1       3.456   3.550  17.858  0.00  0.00    +0.000 C 
ATOM     20  C   UNL     1       3.273   2.371  18.823  0.00  0.00    +0.000 C 
ATOM     21  O   UNL     1       3.576   1.209  18.620  0.00  0.00    +0.000 OA
ATOM     22  N   UNL     1       2.700   2.869  19.987  0.00  0.00    +0.000 N 
ATOM     23  H   UNL     1       2.473   2.285  20.777  0.00  0.00    +0.000 HD
ENDBRANCH  10  13
BRANCH   4  24
ATOM     24  C   UNL     1      -0.541  11.595  21.266  0.00  0.00    +0.000 A 
ATOM     25  C   UNL     1      -1.613  12.503  21.323  0.00  0.00    +0.000 A 
ATOM     26  C   UNL     1      -2.505  12.466  22.387  0.00  0.00    +0.000 A 
ATOM     27  C   UNL     1      -2.337  11.530  23.400  0.00  0.00    +0.000 A 
ATOM     28  C   UNL     1      -1.279  10.621  23.347  0.00  0.00    +0.000 A 
ATOM     29  C   UNL     1      -0.381  10.641  22.276  0.00  0.00    +0.000 A 
ENDBRANCH   4  24
TORSDOF 2
ENDMDL
MODEL 9
REMARK VINA RESULT:      -7.6      3.339      7.973
REMARK  Name = 
REMARK  3 active torsions:
REMARK  status: ('A' for Active; 'I' for Inactive)
REMARK    1  A    between atoms: C_1  and  C_2
REMARK    2  A    between atoms: N_4  and  C_5
REMARK    3  A    between atoms: N_16  and  C_17
REMARK                            x       y       z     vdW  Elec       q    Type
REMARK                         _______ _______ _______ _____ _____    ______ ____
ROOT
ATOM      1  C   UNL     1       2.463  13.371  17.720  0.00  0.00    +0.000 C 
ATOM      2  C   UNL     1       1.679  12.423  18.545  0.00  0.00    +0.000 A 
ATOM      3  C   UNL     1       0.855  12.830  19.563  0.00  0.00    +0.000 A 
ATOM      4  N   UNL     1       0.347  11.711  20.169  0.00  0.00    +0.000 N 
ATOM      5  N   UNL     1       0.823  10.582  19.594  0.00  0.00    +0.000 NA
ATOM      6  C   UNL     1       1.606  11.002  18.594  0.00  0.00    +0.000 A 
ATOM      7  N   UNL     1       2.246  10.126  17.737  0.00  0.00    +0.000 N 
ATOM      8  C   UNL     1       2.479   8.785  17.953  0.00  0.00    +0.000 C 
ATOM      9  O   UNL     1       3.056   8.141  17.068  0.00  0.00    +0.000 OA
ATOM     10  N   UNL     1       2.068   8.271  19.152  0.00  0.00    +0.000 N 
ATOM     11  H   UNL     1       2.622  10.481  16.873  0.00  0.00    +0.000 HD
ATOM     12  H   UNL     1       1.249   8.755  19.522  0.00  0.00    +0.000 HD
ENDROOT
BRANCH  10  13
ATOM     13  C   UNL     1       2.304   6.945  19.546  0.00  0.00    +0.000 A 
ATOM     14  C   UNL     1       1.372   6.311  20.391  0.00  0.00    +0.000 A 
ATOM     15  C   UNL     1       1.552   4.978  20.780  0.00  0.00    +0.000 A 
ATOM     16  C   UNL     1       2.689   4.338  20.338  0.00  0.00    +0.000 A 
ATOM     17  C   UNL     1       3.639   4.965  19.536  0.00  0.00    +0.000 A 
ATOM     18  C   UNL     1       3.459   6.273  19.123  0.00  0.00    +0.000 A 
ATOM     19  C   UNL     1       4.749   4.003  19.233  0.00  0.00    +0.000 C 
ATOM     20  C   UNL     1       4.285   2.736  19.963  0.00  0.00    +0.000 C 
ATOM     21  O   UNL     1       4.862   1.664  20.001  0.00  0.00    +0.000 OA
ATOM     22  N   UNL     1       3.078   3.030  20.586  0.00  0.00    +0.000 N 
ATOM     23  H   UNL     1       2.564   2.353  21.128  0.00  0.00    +0.000 HD
ENDBRANCH  10  13
BRANCH   4  24
ATOM     24  C   UNL     1      -0.555  11.681  21.266  0.00  0.00    +0.000 A 
ATOM     25  C   UNL     1      -0.392  10.702  22.262  0.00  0.00    +0.000 A 
ATOM     26  C   UNL     1      -1.277  10.638  23.332  0.00  0.00    +0.000 A 
ATOM     27  C   UNL     1      -2.327  11.544  23.417  0.00  0.00    +0.000 A 
ATOM     28  C   UNL     1      -2.491  12.523  22.435  0.00  0.00    +0.000 A 
ATOM     29  C   UNL     1      -1.601  12.604  21.360  0.00  0.00    +0.000 A 
ENDBRANCH   4  24
TORSDOF 2
ENDMDL
