MODEL 1
REMARK VINA RESULT:      -8.5      0.000      0.000
REMARK  Name = 
REMARK  7 active torsions:
REMARK  status: ('A' for Active; 'I' for Inactive)
REMARK    1  A    between atoms: C_1  and  C_2
REMARK    2  A    between atoms: C_4  and  C_5
REMARK    3  A    between atoms: C_9  and  C_10
REMARK    4  A    between atoms: N_12  and  C_13
REMARK    5  A    between atoms: C_13  and  C_14
REMARK    6  A    between atoms: C_13  and  C_15
REMARK    7  A    between atoms: N_17  and  C_18
REMARK                            x       y       z     vdW  Elec       q    Type
REMARK                         _______ _______ _______ _____ _____    ______ ____
ROOT
ATOM      1  C   UNL     1       3.600   3.708  17.529  0.00  0.00    +0.000 C 
ATOM      2  O   UNL     1       2.665   3.281  16.863  0.00  0.00    +0.000 OA
ATOM      3  N   UNL     1       3.588   3.752  18.903  0.00  0.00    +0.000 N 
ATOM      4  H   UNL     1       4.270   4.334  19.386  0.00  0.00    +0.000 HD
ENDROOT
BRANCH   1   9
ATOM      5  C   UNL     1       6.670   5.841  16.944  0.00  0.00    +0.000 A 
ATOM      6  C   UNL     1       7.120   5.342  15.714  0.00  0.00    +0.000 A 
ATOM      7  C   UNL     1       6.428   4.315  15.066  0.00  0.00    +0.000 A 
ATOM      8  C   UNL     1       5.280   3.769  15.644  0.00  0.00    +0.000 A 
ATOM      9  C   UNL     1       4.817   4.260  16.871  0.00  0.00    +0.000 A 
ATOM     10  C   UNL     1       5.501   5.304  17.506  0.00  0.00    +0.000 A 
BRANCH   5  14
ATOM     11  C   UNL     1       8.807  10.157  18.041  0.00  0.00    +0.000 C 
ATOM     12  C   UNL     1       8.318   8.763  18.043  0.00  0.00    +0.000 A 
ATOM     13  N   UNL     1       7.534   8.170  17.170  0.00  0.00    +0.000 NA
ATOM     14  C   UNL     1       7.424   6.878  17.646  0.00  0.00    +0.000 A 
ATOM     15  N   UNL     1       8.107   6.665  18.780  0.00  0.00    +0.000 NA
ATOM     16  N   UNL     1       8.661   7.862  19.007  0.00  0.00    +0.000 N 
ATOM     17  H   UNL     1       9.260   7.986  19.815  0.00  0.00    +0.000 HD
ENDBRANCH   5  14
ENDBRANCH   1   9
BRANCH   3  18
ATOM     18  C   UNL     1       2.413   3.379  19.690  0.00  0.00    +0.000 C 
ATOM     19  C   UNL     1       2.843   2.650  20.957  0.00  0.00    +0.000 C 
BRANCH  18  20
ATOM     20  C   UNL     1       1.638   4.684  19.992  0.00  0.00    +0.000 C 
ATOM     21  O   UNL     1       0.521   4.629  20.513  0.00  0.00    +0.000 OA
ATOM     22  N   UNL     1       2.295   5.850  19.628  0.00  0.00    +0.000 N 
ATOM     23  H   UNL     1       3.121   5.762  19.050  0.00  0.00    +0.000 HD
BRANCH  22  24
ATOM     24  C   UNL     1       1.837   7.167  19.855  0.00  0.00    +0.000 A 
ATOM     25  C   UNL     1       1.338   7.604  21.085  0.00  0.00    +0.000 A 
ATOM     26  C   UNL     1       0.882   8.915  21.244  0.00  0.00    +0.000 A 
ATOM     27  C   UNL     1       0.916   9.803  20.174  0.00  0.00    +0.000 A 
ATOM     28  C   UNL     1       1.430   9.386  18.948  0.00  0.00    +0.000 A 
ATOM     29  C   UNL     1       1.901   8.076  18.792  0.00  0.00    +0.000 A 
ENDBRANCH  22  24
ENDBRANCH  18  20
ENDBRANCH   3  18
TORSDOF 5
ENDMDL
MODEL 2
REMARK VINA RESULT:      -8.2      2.907      7.672
REMARK  Name = 
REMARK  7 active torsions:
REMARK  status: ('A' for Active; 'I' for Inactive)
REMARK    1  A    between atoms: C_1  and  C_2
REMARK    2  A    between atoms: C_4  and  C_5
REMARK    3  A    between atoms: C_9  and  C_10
REMARK    4  A    between atoms: N_12  and  C_13
REMARK    5  A    between atoms: C_13  and  C_14
REMARK    6  A    between atoms: C_13  and  C_15
REMARK    7  A    between atoms: N_17  and  C_18
REMARK                            x       y       z     vdW  Elec       q    Type
REMARK                         _______ _______ _______ _____ _____    ______ ____
ROOT
ATOM      1  C   UNL     1       3.196   5.856  19.180  0.00  0.00    +0.000 C 
ATOM      2  O   UNL     1       3.186   5.258  20.249  0.00  0.00    +0.000 OA
ATOM      3  N   UNL     1       3.841   5.388  18.061  0.00  0.00    +0.000 N 
ATOM      4  H   UNL     1       4.026   6.027  17.291  0.00  0.00    +0.000 HD
ENDROOT
BRANCH   1   9
ATOM      5  C   UNL     1       1.100   8.891  20.028  0.00  0.00    +0.000 A 
ATOM      6  C   UNL     1       1.262   9.667  18.871  0.00  0.00    +0.000 A 
ATOM      7  C   UNL     1       2.046   9.208  17.810  0.00  0.00    +0.000 A 
ATOM      8  C   UNL     1       2.686   7.969  17.894  0.00  0.00    +0.000 A 
ATOM      9  C   UNL     1       2.531   7.182  19.041  0.00  0.00    +0.000 A 
ATOM     10  C   UNL     1       1.726   7.636  20.094  0.00  0.00    +0.000 A 
BRANCH   5  14
ATOM     11  C   UNL     1      -1.340  11.932  23.059  0.00  0.00    +0.000 C 
ATOM     12  C   UNL     1      -0.705  10.766  22.413  0.00  0.00    +0.000 A 
ATOM     13  N   UNL     1      -0.095  10.707  21.249  0.00  0.00    +0.000 NA
ATOM     14  C   UNL     1       0.323   9.394  21.158  0.00  0.00    +0.000 A 
ATOM     15  N   UNL     1      -0.016   8.650  22.221  0.00  0.00    +0.000 NA
ATOM     16  N   UNL     1      -0.658   9.533  22.994  0.00  0.00    +0.000 N 
ATOM     17  H   UNL     1      -1.019   9.236  23.893  0.00  0.00    +0.000 HD
ENDBRANCH   5  14
ENDBRANCH   1   9
BRANCH   3  18
ATOM     18  C   UNL     1       4.657   4.173  18.076  0.00  0.00    +0.000 C 
ATOM     19  C   UNL     1       3.771   2.947  17.893  0.00  0.00    +0.000 C 
BRANCH  18  20
ATOM     20  C   UNL     1       5.707   4.320  16.949  0.00  0.00    +0.000 C 
ATOM     21  O   UNL     1       6.899   4.458  17.234  0.00  0.00    +0.000 OA
ATOM     22  N   UNL     1       5.190   4.286  15.663  0.00  0.00    +0.000 N 
ATOM     23  H   UNL     1       4.185   4.347  15.559  0.00  0.00    +0.000 HD
BRANCH  22  24
ATOM     24  C   UNL     1       5.939   4.330  14.465  0.00  0.00    +0.000 A 
ATOM     25  C   UNL     1       7.064   5.140  14.294  0.00  0.00    +0.000 A 
ATOM     26  C   UNL     1       7.753   5.155  13.078  0.00  0.00    +0.000 A 
ATOM     27  C   UNL     1       7.322   4.362  12.019  0.00  0.00    +0.000 A 
ATOM     28  C   UNL     1       6.213   3.534  12.184  0.00  0.00    +0.000 A 
ATOM     29  C   UNL     1       5.531   3.508  13.407  0.00  0.00    +0.000 A 
ENDBRANCH  22  24
ENDBRANCH  18  20
ENDBRANCH   3  18
TORSDOF 5
ENDMDL
MODEL 3
REMARK VINA RESULT:      -8.1      2.445      7.330
REMARK  Name = 
REMARK  7 active torsions:
REMARK  status: ('A' for Active; 'I' for Inactive)
REMARK    1  A    between atoms: C_1  and  C_2
REMARK    2  A    between atoms: C_4  and  C_5
REMARK    3  A    between atoms: C_9  and  C_10
REMARK    4  A    between atoms: N_12  and  C_13
REMARK    5  A    between atoms: C_13  and  C_14
REMARK    6  A    between atoms: C_13  and  C_15
REMARK    7  A    between atoms: N_17  and  C_18
REMARK                            x       y       z     vdW  Elec       q    Type
REMARK                         _______ _______ _______ _____ _____    ______ ____
ROOT
ATOM      1  C   UNL     1       5.234   4.890  19.035  0.00  0.00    +0.000 C 
ATOM      2  O   UNL     1       5.848   3.835  19.138  0.00  0.00    +0.000 OA
ATOM      3  N   UNL     1       5.780   6.029  18.493  0.00  0.00    +0.000 N 
ATOM      4  H   UNL     1       5.324   6.924  18.656  0.00  0.00    +0.000 HD
ENDROOT
BRANCH   1   9
ATOM      5  C   UNL     1       2.011   6.476  20.225  0.00  0.00    +0.000 A 
ATOM      6  C   UNL     1       1.229   5.342  20.486  0.00  0.00    +0.000 A 
ATOM      7  C   UNL     1       1.743   4.059  20.284  0.00  0.00    +0.000 A 
ATOM      8  C   UNL     1       3.047   3.893  19.809  0.00  0.00    +0.000 A 
ATOM      9  C   UNL     1       3.841   5.016  19.546  0.00  0.00    +0.000 A 
ATOM     10  C   UNL     1       3.329   6.300  19.772  0.00  0.00    +0.000 A 
BRANCH   5  14
ATOM     11  C   UNL     1      -0.355  10.374  22.121  0.00  0.00    +0.000 C 
ATOM     12  C   UNL     1       0.414   9.446  21.267  0.00  0.00    +0.000 A 
ATOM     13  N   UNL     1       0.799   8.218  21.535  0.00  0.00    +0.000 NA
ATOM     14  C   UNL     1       1.454   7.817  20.387  0.00  0.00    +0.000 A 
ATOM     15  N   UNL     1       1.488   8.758  19.433  0.00  0.00    +0.000 NA
ATOM     16  N   UNL     1       0.827   9.770  20.009  0.00  0.00    +0.000 N 
ATOM     17  H   UNL     1       0.686  10.630  19.491  0.00  0.00    +0.000 HD
ENDBRANCH   5  14
ENDBRANCH   1   9
BRANCH   3  18
ATOM     18  C   UNL     1       7.181   6.107  18.076  0.00  0.00    +0.000 C 
ATOM     19  C   UNL     1       8.090   5.683  19.223  0.00  0.00    +0.000 C 
BRANCH  18  20
ATOM     20  C   UNL     1       7.334   5.200  16.832  0.00  0.00    +0.000 C 
ATOM     21  O   UNL     1       8.020   4.177  16.898  0.00  0.00    +0.000 OA
ATOM     22  N   UNL     1       6.660   5.641  15.703  0.00  0.00    +0.000 N 
ATOM     23  H   UNL     1       6.280   6.579  15.719  0.00  0.00    +0.000 HD
BRANCH  22  24
ATOM     24  C   UNL     1       6.582   4.964  14.465  0.00  0.00    +0.000 A 
ATOM     25  C   UNL     1       5.562   4.064  14.146  0.00  0.00    +0.000 A 
ATOM     26  C   UNL     1       5.550   3.409  12.911  0.00  0.00    +0.000 A 
ATOM     27  C   UNL     1       6.558   3.647  11.982  0.00  0.00    +0.000 A 
ATOM     28  C   UNL     1       7.570   4.558  12.280  0.00  0.00    +0.000 A 
ATOM     29  C   UNL     1       7.575   5.224  13.512  0.00  0.00    +0.000 A 
ENDBRANCH  22  24
ENDBRANCH  18  20
ENDBRANCH   3  18
TORSDOF 5
ENDMDL
MODEL 4
REMARK VINA RESULT:      -8.1      2.452      7.236
REMARK  Name = 
REMARK  7 active torsions:
REMARK  status: ('A' for Active; 'I' for Inactive)
REMARK    1  A    between atoms: C_1  and  C_2
REMARK    2  A    between atoms: C_4  and  C_5
REMARK    3  A    between atoms: C_9  and  C_10
REMARK    4  A    between atoms: N_12  and  C_13
REMARK    5  A    between atoms: C_13  and  C_14
REMARK    6  A    between atoms: C_13  and  C_15
REMARK    7  A    between atoms: N_17  and  C_18
REMARK                            x       y       z     vdW  Elec       q    Type
REMARK                         _______ _______ _______ _____ _____    ______ ____
ROOT
ATOM      1  C   UNL     1       5.266   4.937  19.044  0.00  0.00    +0.000 C 
ATOM      2  O   UNL     1       5.891   3.896  19.208  0.00  0.00    +0.000 OA
ATOM      3  N   UNL     1       5.804   6.053  18.449  0.00  0.00    +0.000 N 
ATOM      4  H   UNL     1       5.335   6.949  18.562  0.00  0.00    +0.000 HD
ENDROOT
BRANCH   1   9
ATOM      5  C   UNL     1       2.029   6.542  20.168  0.00  0.00    +0.000 A 
ATOM      6  C   UNL     1       1.241   5.413  20.432  0.00  0.00    +0.000 A 
ATOM      7  C   UNL     1       1.756   4.126  20.252  0.00  0.00    +0.000 A 
ATOM      8  C   UNL     1       3.065   3.952  19.798  0.00  0.00    +0.000 A 
ATOM      9  C   UNL     1       3.866   5.071  19.534  0.00  0.00    +0.000 A 
ATOM     10  C   UNL     1       3.352   6.358  19.736  0.00  0.00    +0.000 A 
BRANCH   5  14
ATOM     11  C   UNL     1       0.661  11.179  19.160  0.00  0.00    +0.000 C 
ATOM     12  C   UNL     1       0.920   9.872  19.798  0.00  0.00    +0.000 A 
ATOM     13  N   UNL     1       1.438   8.789  19.262  0.00  0.00    +0.000 NA
ATOM     14  C   UNL     1       1.472   7.886  20.306  0.00  0.00    +0.000 A 
ATOM     15  N   UNL     1       0.987   8.377  21.456  0.00  0.00    +0.000 NA
ATOM     16  N   UNL     1       0.649   9.625  21.112  0.00  0.00    +0.000 N 
ATOM     17  H   UNL     1       0.259  10.245  21.812  0.00  0.00    +0.000 HD
ENDBRANCH   5  14
ENDBRANCH   1   9
BRANCH   3  18
ATOM     18  C   UNL     1       7.208   6.127  18.044  0.00  0.00    +0.000 C 
ATOM     19  C   UNL     1       8.107   5.710  19.201  0.00  0.00    +0.000 C 
BRANCH  18  20
ATOM     20  C   UNL     1       7.370   5.212  16.807  0.00  0.00    +0.000 C 
ATOM     21  O   UNL     1       8.034   4.176  16.893  0.00  0.00    +0.000 OA
ATOM     22  N   UNL     1       6.732   5.661  15.662  0.00  0.00    +0.000 N 
ATOM     23  H   UNL     1       6.371   6.607  15.665  0.00  0.00    +0.000 HD
BRANCH  22  24
ATOM     24  C   UNL     1       6.668   4.981  14.425  0.00  0.00    +0.000 A 
ATOM     25  C   UNL     1       7.602   5.163  13.401  0.00  0.00    +0.000 A 
ATOM     26  C   UNL     1       7.476   4.476  12.191  0.00  0.00    +0.000 A 
ATOM     27  C   UNL     1       6.413   3.601  11.990  0.00  0.00    +0.000 A 
ATOM     28  C   UNL     1       5.486   3.396  13.010  0.00  0.00    +0.000 A 
ATOM     29  C   UNL     1       5.621   4.073  14.228  0.00  0.00    +0.000 A 
ENDBRANCH  22  24
ENDBRANCH  18  20
ENDBRANCH   3  18
TORSDOF 5
ENDMDL
MODEL 5
REMARK VINA RESULT:      -8.0      0.433      1.036
REMARK  Name = 
REMARK  7 active torsions:
REMARK  status: ('A' for Active; 'I' for Inactive)
REMARK    1  A    between atoms: C_1  and  C_2
REMARK    2  A    between atoms: C_4  and  C_5
REMARK    3  A    between atoms: C_9  and  C_10
REMARK    4  A    between atoms: N_12  and  C_13
REMARK    5  A    between atoms: C_13  and  C_14
REMARK    6  A    between atoms: C_13  and  C_15
REMARK    7  A    between atoms: N_17  and  C_18
REMARK                            x       y       z     vdW  Elec       q    Type
REMARK                         _______ _______ _______ _____ _____    ______ ____
ROOT
ATOM      1  C   UNL     1       3.926   3.512  17.932  0.00  0.00    +0.000 C 
ATOM      2  O   UNL     1       3.287   2.589  17.442  0.00  0.00    +0.000 OA
ATOM      3  N   UNL     1       3.636   4.061  19.158  0.00  0.00    +0.000 N 
ATOM      4  H   UNL     1       4.029   4.968  19.401  0.00  0.00    +0.000 HD
ENDROOT
BRANCH   1   9
ATOM      5  C   UNL     1       6.791   5.848  17.124  0.00  0.00    +0.000 A 
ATOM      6  C   UNL     1       7.194   5.364  15.871  0.00  0.00    +0.000 A 
ATOM      7  C   UNL     1       6.535   4.282  15.280  0.00  0.00    +0.000 A 
ATOM      8  C   UNL     1       5.470   3.665  15.939  0.00  0.00    +0.000 A 
ATOM      9  C   UNL     1       5.054   4.140  17.189  0.00  0.00    +0.000 A 
ATOM     10  C   UNL     1       5.703   5.238  17.768  0.00  0.00    +0.000 A 
BRANCH   5  14
ATOM     11  C   UNL     1       8.747  10.298  17.997  0.00  0.00    +0.000 C 
ATOM     12  C   UNL     1       8.327   8.883  18.065  0.00  0.00    +0.000 A 
ATOM     13  N   UNL     1       7.547   8.221  17.239  0.00  0.00    +0.000 NA
ATOM     14  C   UNL     1       7.514   6.945  17.764  0.00  0.00    +0.000 A 
ATOM     15  N   UNL     1       8.239   6.807  18.883  0.00  0.00    +0.000 NA
ATOM     16  N   UNL     1       8.741   8.037  19.050  0.00  0.00    +0.000 N 
ATOM     17  H   UNL     1       9.356   8.220  19.834  0.00  0.00    +0.000 HD
ENDBRANCH   5  14
ENDBRANCH   1   9
BRANCH   3  18
ATOM     18  C   UNL     1       2.473   3.651  19.946  0.00  0.00    +0.000 C 
ATOM     19  C   UNL     1       2.928   2.991  21.242  0.00  0.00    +0.000 C 
BRANCH  18  20
ATOM     20  C   UNL     1       1.624   4.921  20.195  0.00  0.00    +0.000 C 
ATOM     21  O   UNL     1       0.448   4.814  20.551  0.00  0.00    +0.000 OA
ATOM     22  N   UNL     1       2.290   6.118  19.979  0.00  0.00    +0.000 N 
ATOM     23  H   UNL     1       3.191   6.079  19.520  0.00  0.00    +0.000 HD
BRANCH  22  24
ATOM     24  C   UNL     1       1.765   7.412  20.199  0.00  0.00    +0.000 A 
ATOM     25  C   UNL     1       1.652   8.374  19.193  0.00  0.00    +0.000 A 
ATOM     26  C   UNL     1       1.142   9.645  19.476  0.00  0.00    +0.000 A 
ATOM     27  C   UNL     1       0.744   9.967  20.769  0.00  0.00    +0.000 A 
ATOM     28  C   UNL     1       0.833   9.009  21.777  0.00  0.00    +0.000 A 
ATOM     29  C   UNL     1       1.329   7.732  21.491  0.00  0.00    +0.000 A 
ENDBRANCH  22  24
ENDBRANCH  18  20
ENDBRANCH   3  18
TORSDOF 5
ENDMDL
MODEL 6
REMARK VINA RESULT:      -8.0      2.603      7.224
REMARK  Name = 
REMARK  7 active torsions:
REMARK  status: ('A' for Active; 'I' for Inactive)
REMARK    1  A    between atoms: C_1  and  C_2
REMARK    2  A    between atoms: C_4  and  C_5
REMARK    3  A    between atoms: C_9  and  C_10
REMARK    4  A    between atoms: N_12  and  C_13
REMARK    5  A    between atoms: C_13  and  C_14
REMARK    6  A    between atoms: C_13  and  C_15
REMARK    7  A    between atoms: N_17  and  C_18
REMARK                            x       y       z     vdW  Elec       q    Type
REMARK                         _______ _______ _______ _____ _____    ______ ____
ROOT
ATOM      1  C   UNL     1       2.011   5.507  20.202  0.00  0.00    +0.000 C 
ATOM      2  O   UNL     1       2.454   5.147  21.286  0.00  0.00    +0.000 OA
ATOM      3  N   UNL     1       1.785   4.645  19.156  0.00  0.00    +0.000 N 
ATOM      4  H   UNL     1       1.657   5.023  18.221  0.00  0.00    +0.000 HD
ENDROOT
BRANCH   1   9
ATOM      5  C   UNL     1       0.686   9.020  20.676  0.00  0.00    +0.000 A 
ATOM      6  C   UNL     1       1.165   9.651  19.518  0.00  0.00    +0.000 A 
ATOM      7  C   UNL     1       1.914   8.940  18.577  0.00  0.00    +0.000 A 
ATOM      8  C   UNL     1       2.202   7.589  18.785  0.00  0.00    +0.000 A 
ATOM      9  C   UNL     1       1.727   6.944  19.934  0.00  0.00    +0.000 A 
ATOM     10  C   UNL     1       0.958   7.655  20.864  0.00  0.00    +0.000 A 
BRANCH   5  14
ATOM     11  C   UNL     1      -1.407  12.757  23.134  0.00  0.00    +0.000 C 
ATOM     12  C   UNL     1      -0.920  11.436  22.685  0.00  0.00    +0.000 A 
ATOM     13  N   UNL     1      -0.283  11.134  21.575  0.00  0.00    +0.000 NA
ATOM     14  C   UNL     1      -0.052   9.777  21.684  0.00  0.00    +0.000 A 
ATOM     15  N   UNL     1      -0.531   9.241  22.816  0.00  0.00    +0.000 NA
ATOM     16  N   UNL     1      -1.069  10.303  23.427  0.00  0.00    +0.000 N 
ATOM     17  H   UNL     1      -1.502  10.186  24.337  0.00  0.00    +0.000 HD
ENDBRANCH   5  14
ENDBRANCH   1   9
BRANCH   3  18
ATOM     18  C   UNL     1       2.146   3.228  19.215  0.00  0.00    +0.000 C 
ATOM     19  C   UNL     1       0.962   2.370  18.786  0.00  0.00    +0.000 C 
BRANCH  18  20
ATOM     20  C   UNL     1       3.379   3.037  18.299  0.00  0.00    +0.000 C 
ATOM     21  O   UNL     1       3.747   1.900  17.994  0.00  0.00    +0.000 OA
ATOM     22  N   UNL     1       3.988   4.213  17.890  0.00  0.00    +0.000 N 
ATOM     23  H   UNL     1       3.707   5.071  18.346  0.00  0.00    +0.000 HD
BRANCH  22  24
ATOM     24  C   UNL     1       5.082   4.316  17.002  0.00  0.00    +0.000 A 
ATOM     25  C   UNL     1       6.399   4.513  17.427  0.00  0.00    +0.000 A 
ATOM     26  C   UNL     1       7.438   4.627  16.499  0.00  0.00    +0.000 A 
ATOM     27  C   UNL     1       7.171   4.548  15.136  0.00  0.00    +0.000 A 
ATOM     28  C   UNL     1       5.865   4.330  14.700  0.00  0.00    +0.000 A 
ATOM     29  C   UNL     1       4.827   4.202  15.630  0.00  0.00    +0.000 A 
ENDBRANCH  22  24
ENDBRANCH  18  20
ENDBRANCH   3  18
TORSDOF 5
ENDMDL
MODEL 7
REMARK VINA RESULT:      -8.0      3.479      5.874
REMARK  Name = 
REMARK  7 active torsions:
REMARK  status: ('A' for Active; 'I' for Inactive)
REMARK    1  A    between atoms: C_1  and  C_2
REMARK    2  A    between atoms: C_4  and  C_5
REMARK    3  A    between atoms: C_9  and  C_10
REMARK    4  A    between atoms: N_12  and  C_13
REMARK    5  A    between atoms: C_13  and  C_14
REMARK    6  A    between atoms: C_13  and  C_15
REMARK    7  A    between atoms: N_17  and  C_18
REMARK                            x       y       z     vdW  Elec       q    Type
REMARK                         _______ _______ _______ _____ _____    ______ ____
ROOT
ATOM      1  C   UNL     1       1.791   7.958  20.257  0.00  0.00    +0.000 C 
ATOM      2  O   UNL     1       1.575   8.350  21.397  0.00  0.00    +0.000 OA
ATOM      3  N   UNL     1       1.719   8.774  19.154  0.00  0.00    +0.000 N 
ATOM      4  H   UNL     1       1.663   8.354  18.229  0.00  0.00    +0.000 HD
ENDROOT
BRANCH   1   9
ATOM      5  C   UNL     1       3.506   4.900  18.835  0.00  0.00    +0.000 A 
ATOM      6  C   UNL     1       2.779   3.869  19.446  0.00  0.00    +0.000 A 
ATOM      7  C   UNL     1       1.726   4.159  20.317  0.00  0.00    +0.000 A 
ATOM      8  C   UNL     1       1.391   5.487  20.595  0.00  0.00    +0.000 A 
ATOM      9  C   UNL     1       2.107   6.527  19.989  0.00  0.00    +0.000 A 
ATOM     10  C   UNL     1       3.147   6.231  19.100  0.00  0.00    +0.000 A 
BRANCH   5  14
ATOM     11  C   UNL     1       6.203   3.898  14.820  0.00  0.00    +0.000 C 
ATOM     12  C   UNL     1       5.730   4.164  16.194  0.00  0.00    +0.000 A 
ATOM     13  N   UNL     1       4.522   4.495  16.593  0.00  0.00    +0.000 NA
ATOM     14  C   UNL     1       4.640   4.595  17.965  0.00  0.00    +0.000 A 
ATOM     15  N   UNL     1       5.878   4.343  18.415  0.00  0.00    +0.000 NA
ATOM     16  N   UNL     1       6.542   4.073  17.285  0.00  0.00    +0.000 N 
ATOM     17  H   UNL     1       7.525   3.827  17.333  0.00  0.00    +0.000 HD
ENDBRANCH   5  14
ENDBRANCH   1   9
BRANCH   3  18
ATOM     18  C   UNL     1       1.283  10.169  19.236  0.00  0.00    +0.000 C 
ATOM     19  C   UNL     1       2.016  11.006  18.194  0.00  0.00    +0.000 C 
BRANCH  18  20
ATOM     20  C   UNL     1      -0.250  10.175  19.030  0.00  0.00    +0.000 C 
ATOM     21  O   UNL     1      -0.990   9.727  19.909  0.00  0.00    +0.000 OA
ATOM     22  N   UNL     1      -0.674  10.704  17.821  0.00  0.00    +0.000 N 
ATOM     23  H   UNL     1       0.027  10.875  17.111  0.00  0.00    +0.000 HD
BRANCH  22  24
ATOM     24  C   UNL     1      -2.016  10.887  17.418  0.00  0.00    +0.000 A 
ATOM     25  C   UNL     1      -2.963  11.564  18.192  0.00  0.00    +0.000 A 
ATOM     26  C   UNL     1      -4.282  11.697  17.749  0.00  0.00    +0.000 A 
ATOM     27  C   UNL     1      -4.669  11.151  16.529  0.00  0.00    +0.000 A 
ATOM     28  C   UNL     1      -3.730  10.491  15.740  0.00  0.00    +0.000 A 
ATOM     29  C   UNL     1      -2.405  10.371  16.176  0.00  0.00    +0.000 A 
ENDBRANCH  22  24
ENDBRANCH  18  20
ENDBRANCH   3  18
TORSDOF 5
ENDMDL
MODEL 8
REMARK VINA RESULT:      -8.0      3.506      5.433
REMARK  Name = 
REMARK  7 active torsions:
REMARK  status: ('A' for Active; 'I' for Inactive)
REMARK    1  A    between atoms: C_1  and  C_2
REMARK    2  A    between atoms: C_4  and  C_5
REMARK    3  A    between atoms: C_9  and  C_10
REMARK    4  A    between atoms: N_12  and  C_13
REMARK    5  A    between atoms: C_13  and  C_14
REMARK    6  A    between atoms: C_13  and  C_15
REMARK    7  A    between atoms: N_17  and  C_18
REMARK                            x       y       z     vdW  Elec       q    Type
REMARK                         _______ _______ _______ _____ _____    ______ ____
ROOT
ATOM      1  C   UNL     1       2.238   7.635  19.171  0.00  0.00    +0.000 C 
ATOM      2  O   UNL     1       2.104   7.677  20.388  0.00  0.00    +0.000 OA
ATOM      3  N   UNL     1       2.056   8.727  18.356  0.00  0.00    +0.000 N 
ATOM      4  H   UNL     1       1.936   8.584  17.356  0.00  0.00    +0.000 HD
ENDROOT
BRANCH   1   9
ATOM      5  C   UNL     1       4.126   5.102  17.091  0.00  0.00    +0.000 A 
ATOM      6  C   UNL     1       3.277   3.989  17.176  0.00  0.00    +0.000 A 
ATOM      7  C   UNL     1       2.086   4.057  17.904  0.00  0.00    +0.000 A 
ATOM      8  C   UNL     1       1.732   5.237  18.562  0.00  0.00    +0.000 A 
ATOM      9  C   UNL     1       2.569   6.357  18.483  0.00  0.00    +0.000 A 
ATOM     10  C   UNL     1       3.751   6.291  17.735  0.00  0.00    +0.000 A 
BRANCH   5  14
ATOM     11  C   UNL     1       7.446   4.865  13.441  0.00  0.00    +0.000 C 
ATOM     12  C   UNL     1       6.761   4.910  14.750  0.00  0.00    +0.000 A 
ATOM     13  N   UNL     1       5.481   5.078  14.997  0.00  0.00    +0.000 NA
ATOM     14  C   UNL     1       5.396   5.013  16.373  0.00  0.00    +0.000 A 
ATOM     15  N   UNL     1       6.580   4.819  16.974  0.00  0.00    +0.000 NA
ATOM     16  N   UNL     1       7.419   4.756  15.933  0.00  0.00    +0.000 N 
ATOM     17  H   UNL     1       8.406   4.596  16.101  0.00  0.00    +0.000 HD
ENDBRANCH   5  14
ENDBRANCH   1   9
BRANCH   3  18
ATOM     18  C   UNL     1       1.591  10.018  18.865  0.00  0.00    +0.000 C 
ATOM     19  C   UNL     1       2.213  11.151  18.058  0.00  0.00    +0.000 C 
BRANCH  18  20
ATOM     20  C   UNL     1       0.046  10.008  18.778  0.00  0.00    +0.000 C 
ATOM     21  O   UNL     1      -0.619   9.563  19.717  0.00  0.00    +0.000 OA
ATOM     22  N   UNL     1      -0.475  10.518  17.599  0.00  0.00    +0.000 N 
ATOM     23  H   UNL     1       0.168  10.687  16.836  0.00  0.00    +0.000 HD
BRANCH  22  24
ATOM     24  C   UNL     1      -1.846  10.683  17.300  0.00  0.00    +0.000 A 
ATOM     25  C   UNL     1      -2.465  10.100  16.191  0.00  0.00    +0.000 A 
ATOM     26  C   UNL     1      -3.821  10.316  15.935  0.00  0.00    +0.000 A 
ATOM     27  C   UNL     1      -4.574  11.120  16.785  0.00  0.00    +0.000 A 
ATOM     28  C   UNL     1      -3.974  11.691  17.906  0.00  0.00    +0.000 A 
ATOM     29  C   UNL     1      -2.618  11.463  18.170  0.00  0.00    +0.000 A 
ENDBRANCH  22  24
ENDBRANCH  18  20
ENDBRANCH   3  18
TORSDOF 5
ENDMDL
MODEL 9
REMARK VINA RESULT:      -8.0      3.149      7.614
REMARK  Name = 
REMARK  7 active torsions:
REMARK  status: ('A' for Active; 'I' for Inactive)
REMARK    1  A    between atoms: C_1  and  C_2
REMARK    2  A    between atoms: C_4  and  C_5
REMARK    3  A    between atoms: C_9  and  C_10
REMARK    4  A    between atoms: N_12  and  C_13
REMARK    5  A    between atoms: C_13  and  C_14
REMARK    6  A    between atoms: C_13  and  C_15
REMARK    7  A    between atoms: N_17  and  C_18
REMARK                            x       y       z     vdW  Elec       q    Type
REMARK                         _______ _______ _______ _____ _____    ______ ____
ROOT
ATOM      1  C   UNL     1       2.022   7.260  20.325  0.00  0.00    +0.000 C 
ATOM      2  O   UNL     1       3.037   7.371  19.647  0.00  0.00    +0.000 OA
ATOM      3  N   UNL     1       1.581   6.060  20.830  0.00  0.00    +0.000 N 
ATOM      4  H   UNL     1       0.624   5.986  21.165  0.00  0.00    +0.000 HD
ENDROOT
BRANCH   1   9
ATOM      5  C   UNL     1      -0.301  10.190  19.745  0.00  0.00    +0.000 A 
ATOM      6  C   UNL     1      -0.487  10.655  21.055  0.00  0.00    +0.000 A 
ATOM      7  C   UNL     1       0.143  10.025  22.131  0.00  0.00    +0.000 A 
ATOM      8  C   UNL     1       0.963   8.915  21.912  0.00  0.00    +0.000 A 
ATOM      9  C   UNL     1       1.161   8.442  20.609  0.00  0.00    +0.000 A 
ATOM     10  C   UNL     1       0.545   9.090  19.531  0.00  0.00    +0.000 A 
BRANCH   5  14
ATOM     11  C   UNL     1      -2.989  10.813  15.649  0.00  0.00    +0.000 C 
ATOM     12  C   UNL     1      -2.162  11.003  16.859  0.00  0.00    +0.000 A 
ATOM     13  N   UNL     1      -1.750  10.097  17.717  0.00  0.00    +0.000 NA
ATOM     14  C   UNL     1      -1.002  10.818  18.627  0.00  0.00    +0.000 A 
ATOM     15  N   UNL     1      -0.950  12.130  18.358  0.00  0.00    +0.000 NA
ATOM     16  N   UNL     1      -1.684  12.221  17.242  0.00  0.00    +0.000 N 
ATOM     17  H   UNL     1      -1.804  13.124  16.799  0.00  0.00    +0.000 HD
ENDBRANCH   5  14
ENDBRANCH   1   9
BRANCH   3  18
ATOM     18  C   UNL     1       2.238   4.789  20.520  0.00  0.00    +0.000 C 
ATOM     19  C   UNL     1       1.327   3.627  20.896  0.00  0.00    +0.000 C 
BRANCH  18  20
ATOM     20  C   UNL     1       2.578   4.812  19.011  0.00  0.00    +0.000 C 
ATOM     21  O   UNL     1       1.670   4.777  18.177  0.00  0.00    +0.000 OA
ATOM     22  N   UNL     1       3.932   4.867  18.719  0.00  0.00    +0.000 N 
ATOM     23  H   UNL     1       4.583   4.712  19.479  0.00  0.00    +0.000 HD
BRANCH  22  24
ATOM     24  C   UNL     1       4.501   4.965  17.430  0.00  0.00    +0.000 A 
ATOM     25  C   UNL     1       4.893   3.855  16.678  0.00  0.00    +0.000 A 
ATOM     26  C   UNL     1       5.468   4.016  15.415  0.00  0.00    +0.000 A 
ATOM     27  C   UNL     1       5.660   5.291  14.890  0.00  0.00    +0.000 A 
ATOM     28  C   UNL     1       5.255   6.405  15.621  0.00  0.00    +0.000 A 
ATOM     29  C   UNL     1       4.665   6.243  16.881  0.00  0.00    +0.000 A 
ENDBRANCH  22  24
ENDBRANCH  18  20
ENDBRANCH   3  18
TORSDOF 5
ENDMDL
