MODEL 1
REMARK VINA RESULT:      -9.3      0.000      0.000
REMARK  Name = 
REMARK  8 active torsions:
REMARK  status: ('A' for Active; 'I' for Inactive)
REMARK    1  A    between atoms: C_1  and  C_2
REMARK    2  A    between atoms: C_2  and  C_3
REMARK    3  A    between atoms: C_2  and  C_4
REMARK    4  A    between atoms: C_8  and  N_9
REMARK    5  A    between atoms: C_10  and  C_12
REMARK    6  A    between atoms: C_15  and  C_16
REMARK    7  A    between atoms: C_16  and  O_17
REMARK    8  A    between atoms: O_17  and  C_18
REMARK                            x       y       z     vdW  Elec       q    Type
REMARK                         _______ _______ _______ _____ _____    ______ ____
ROOT
ATOM      1  C   UNL     1       7.992   7.898  17.996  0.00  0.00    +0.000 A 
ATOM      2  C   UNL     1       8.168   6.796  18.822  0.00  0.00    +0.000 A 
ATOM      3  C   UNL     1       7.640   5.682  18.131  0.00  0.00    +0.000 A 
ATOM      4  C   UNL     1       7.168   6.162  16.925  0.00  0.00    +0.000 A 
ATOM      5  O   UNL     1       7.368   7.511  16.845  0.00  0.00    +0.000 OA
ENDROOT
BRANCH   1   7
ATOM      6  N   UNL     1       9.131   9.502  19.336  0.00  0.00    +0.000 N 
ATOM      7  C   UNL     1       8.340   9.292  18.210  0.00  0.00    +0.000 C 
ATOM      8  O   UNL     1       7.967  10.166  17.433  0.00  0.00    +0.000 OA
ATOM      9  H   UNL     1       9.430   8.659  19.812  0.00  0.00    +0.000 HD
BRANCH   6  14
ATOM     10  C   UNL     1       9.517  12.582  21.419  0.00  0.00    +0.000 A 
ATOM     11  C   UNL     1      10.696  13.106  20.860  0.00  0.00    +0.000 A 
ATOM     12  C   UNL     1      11.308  12.498  19.769  0.00  0.00    +0.000 A 
ATOM     13  C   UNL     1      10.784  11.324  19.237  0.00  0.00    +0.000 A 
ATOM     14  C   UNL     1       9.648  10.735  19.794  0.00  0.00    +0.000 A 
ATOM     15  C   UNL     1       9.003  11.389  20.864  0.00  0.00    +0.000 A 
BRANCH  10  17
ATOM     16  C   UNL     1       7.661  14.102  22.264  0.00  0.00    +0.000 C 
ATOM     17  C   UNL     1       8.923  13.300  22.629  0.00  0.00    +0.000 C 
ATOM     18  C   UNL     1       8.608  12.422  23.844  0.00  0.00    +0.000 C 
ENDBRANCH  10  17
ENDBRANCH   6  14
ENDBRANCH   1   7
BRANCH   4  19
ATOM     19  C   UNL     1       6.475   5.522  15.775  0.00  0.00    +0.000 C 
BRANCH  19  20
ATOM     20  O   UNL     1       5.093   5.856  15.820  0.00  0.00    +0.000 OA
BRANCH  20  21
ATOM     21  C   UNL     1       4.337   5.640  16.931  0.00  0.00    +0.000 A 
ATOM     22  C   UNL     1       3.819   6.563  17.836  0.00  0.00    +0.000 A 
ATOM     23  C   UNL     1       3.043   6.115  18.927  0.00  0.00    +0.000 A 
ATOM     24  C   UNL     1       2.780   4.751  19.099  0.00  0.00    +0.000 A 
ATOM     25  C   UNL     1       3.307   3.827  18.210  0.00  0.00    +0.000 A 
ATOM     26  C   UNL     1       4.095   4.281  17.147  0.00  0.00    +0.000 A 
ATOM     27  C   UNL     1       3.119   2.356  18.401  0.00  0.00    +0.000 C 
ATOM     28  C   UNL     1       2.006   1.972  19.357  0.00  0.00    +0.000 C 
ATOM     29  C   UNL     1       1.628   3.011  20.385  0.00  0.00    +0.000 C 
ATOM     30  O   UNL     1       0.937   2.717  21.362  0.00  0.00    +0.000 OA
ATOM     31  N   UNL     1       1.995   4.309  20.169  0.00  0.00    +0.000 N 
ATOM     32  H   UNL     1       1.642   4.969  20.850  0.00  0.00    +0.000 HD
ENDBRANCH  20  21
ENDBRANCH  19  20
ENDBRANCH   4  19
TORSDOF 6
ENDMDL
MODEL 2
REMARK VINA RESULT:      -9.0      1.892      3.366
REMARK  Name = 
REMARK  8 active torsions:
REMARK  status: ('A' for Active; 'I' for Inactive)
REMARK    1  A    between atoms: C_1  and  C_2
REMARK    2  A    between atoms: C_2  and  C_3
REMARK    3  A    between atoms: C_2  and  C_4
REMARK    4  A    between atoms: C_8  and  N_9
REMARK    5  A    between atoms: C_10  and  C_12
REMARK    6  A    between atoms: C_15  and  C_16
REMARK    7  A    between atoms: C_16  and  O_17
REMARK    8  A    between atoms: O_17  and  C_18
REMARK                            x       y       z     vdW  Elec       q    Type
REMARK                         _______ _______ _______ _____ _____    ______ ____
ROOT
ATOM      1  C   UNL     1       7.812   7.848  17.921  0.00  0.00    +0.000 A 
ATOM      2  C   UNL     1       8.169   6.722  18.649  0.00  0.00    +0.000 A 
ATOM      3  C   UNL     1       7.519   5.623  18.042  0.00  0.00    +0.000 A 
ATOM      4  C   UNL     1       6.800   6.136  16.980  0.00  0.00    +0.000 A 
ATOM      5  O   UNL     1       6.965   7.491  16.911  0.00  0.00    +0.000 OA
ENDROOT
BRANCH   1   7
ATOM      6  N   UNL     1       9.007   9.452  19.210  0.00  0.00    +0.000 N 
ATOM      7  C   UNL     1       8.182   9.241  18.110  0.00  0.00    +0.000 C 
ATOM      8  O   UNL     1       7.797  10.110  17.334  0.00  0.00    +0.000 OA
ATOM      9  H   UNL     1       9.309   8.611  19.687  0.00  0.00    +0.000 HD
BRANCH   6  14
ATOM     10  C   UNL     1      10.711  12.776  19.049  0.00  0.00    +0.000 A 
ATOM     11  C   UNL     1      10.527  13.207  20.374  0.00  0.00    +0.000 A 
ATOM     12  C   UNL     1       9.922  12.387  21.321  0.00  0.00    +0.000 A 
ATOM     13  C   UNL     1       9.443  11.133  20.956  0.00  0.00    +0.000 A 
ATOM     14  C   UNL     1       9.551  10.684  19.640  0.00  0.00    +0.000 A 
ATOM     15  C   UNL     1      10.216  11.499  18.700  0.00  0.00    +0.000 A 
BRANCH  10  17
ATOM     16  C   UNL     1      12.333  14.715  18.772  0.00  0.00    +0.000 C 
ATOM     17  C   UNL     1      11.365  13.748  18.068  0.00  0.00    +0.000 C 
ATOM     18  C   UNL     1      12.089  13.115  16.877  0.00  0.00    +0.000 C 
ENDBRANCH  10  17
ENDBRANCH   6  14
ENDBRANCH   1   7
BRANCH   4  19
ATOM     19  C   UNL     1       5.889   5.524  15.978  0.00  0.00    +0.000 C 
BRANCH  19  20
ATOM     20  O   UNL     1       4.931   4.715  16.650  0.00  0.00    +0.000 OA
BRANCH  20  21
ATOM     21  C   UNL     1       4.208   5.185  17.704  0.00  0.00    +0.000 A 
ATOM     22  C   UNL     1       4.042   4.633  18.973  0.00  0.00    +0.000 A 
ATOM     23  C   UNL     1       3.246   5.301  19.928  0.00  0.00    +0.000 A 
ATOM     24  C   UNL     1       2.632   6.520  19.614  0.00  0.00    +0.000 A 
ATOM     25  C   UNL     1       2.782   7.064  18.348  0.00  0.00    +0.000 A 
ATOM     26  C   UNL     1       3.553   6.380  17.402  0.00  0.00    +0.000 A 
ATOM     27  C   UNL     1       2.079   8.321  17.944  0.00  0.00    +0.000 C 
ATOM     28  C   UNL     1       1.549   9.156  19.095  0.00  0.00    +0.000 C 
ATOM     29  C   UNL     1       1.277   8.413  20.381  0.00  0.00    +0.000 C 
ATOM     30  O   UNL     1       0.608   8.924  21.281  0.00  0.00    +0.000 OA
ATOM     31  N   UNL     1       1.860   7.192  20.567  0.00  0.00    +0.000 N 
ATOM     32  H   UNL     1       1.707   6.783  21.481  0.00  0.00    +0.000 HD
ENDBRANCH  20  21
ENDBRANCH  19  20
ENDBRANCH   4  19
TORSDOF 6
ENDMDL
MODEL 3
REMARK VINA RESULT:      -9.0      0.927      2.026
REMARK  Name = 
REMARK  8 active torsions:
REMARK  status: ('A' for Active; 'I' for Inactive)
REMARK    1  A    between atoms: C_1  and  C_2
REMARK    2  A    between atoms: C_2  and  C_3
REMARK    3  A    between atoms: C_2  and  C_4
REMARK    4  A    between atoms: C_8  and  N_9
REMARK    5  A    between atoms: C_10  and  C_12
REMARK    6  A    between atoms: C_15  and  C_16
REMARK    7  A    between atoms: C_16  and  O_17
REMARK    8  A    between atoms: O_17  and  C_18
REMARK                            x       y       z     vdW  Elec       q    Type
REMARK                         _______ _______ _______ _____ _____    ______ ____
ROOT
ATOM      1  C   UNL     1       7.959   7.574  18.024  0.00  0.00    +0.000 A 
ATOM      2  C   UNL     1       8.226   6.494  18.855  0.00  0.00    +0.000 A 
ATOM      3  C   UNL     1       7.762   5.341  18.182  0.00  0.00    +0.000 A 
ATOM      4  C   UNL     1       7.235   5.777  16.982  0.00  0.00    +0.000 A 
ATOM      5  O   UNL     1       7.341   7.136  16.888  0.00  0.00    +0.000 OA
ENDROOT
BRANCH   1   7
ATOM      6  N   UNL     1       9.050   9.260  19.301  0.00  0.00    +0.000 N 
ATOM      7  C   UNL     1       8.215   8.991  18.221  0.00  0.00    +0.000 C 
ATOM      8  O   UNL     1       7.735   9.833  17.469  0.00  0.00    +0.000 OA
ATOM      9  H   UNL     1       9.437   8.443  19.757  0.00  0.00    +0.000 HD
BRANCH   6  14
ATOM     10  C   UNL     1      10.545  12.683  19.150  0.00  0.00    +0.000 A 
ATOM     11  C   UNL     1      10.289  13.118  20.461  0.00  0.00    +0.000 A 
ATOM     12  C   UNL     1       9.704  12.273  21.399  0.00  0.00    +0.000 A 
ATOM     13  C   UNL     1       9.319  10.986  21.036  0.00  0.00    +0.000 A 
ATOM     14  C   UNL     1       9.501  10.529  19.731  0.00  0.00    +0.000 A 
ATOM     15  C   UNL     1      10.145  11.374  18.803  0.00  0.00    +0.000 A 
BRANCH  10  17
ATOM     16  C   UNL     1      10.123  14.637  17.577  0.00  0.00    +0.000 C 
ATOM     17  C   UNL     1      11.170  13.684  18.178  0.00  0.00    +0.000 C 
ATOM     18  C   UNL     1      12.331  14.518  18.728  0.00  0.00    +0.000 C 
ENDBRANCH  10  17
ENDBRANCH   6  14
ENDBRANCH   1   7
BRANCH   4  19
ATOM     19  C   UNL     1       6.566   5.082  15.851  0.00  0.00    +0.000 C 
BRANCH  19  20
ATOM     20  O   UNL     1       5.205   5.491  15.792  0.00  0.00    +0.000 OA
BRANCH  20  21
ATOM     21  C   UNL     1       4.361   5.338  16.849  0.00  0.00    +0.000 A 
ATOM     22  C   UNL     1       3.647   6.305  17.553  0.00  0.00    +0.000 A 
ATOM     23  C   UNL     1       2.813   5.918  18.624  0.00  0.00    +0.000 A 
ATOM     24  C   UNL     1       2.688   4.569  18.976  0.00  0.00    +0.000 A 
ATOM     25  C   UNL     1       3.409   3.605  18.289  0.00  0.00    +0.000 A 
ATOM     26  C   UNL     1       4.252   4.003  17.246  0.00  0.00    +0.000 A 
ATOM     27  C   UNL     1       3.369   2.164  18.683  0.00  0.00    +0.000 C 
ATOM     28  C   UNL     1       2.208   1.777  19.581  0.00  0.00    +0.000 C 
ATOM     29  C   UNL     1       1.606   2.893  20.401  0.00  0.00    +0.000 C 
ATOM     30  O   UNL     1       0.850   2.653  21.344  0.00  0.00    +0.000 OA
ATOM     31  N   UNL     1       1.846   4.184  20.025  0.00  0.00    +0.000 N 
ATOM     32  H   UNL     1       1.348   4.883  20.562  0.00  0.00    +0.000 HD
ENDBRANCH  20  21
ENDBRANCH  19  20
ENDBRANCH   4  19
TORSDOF 6
ENDMDL
MODEL 4
REMARK VINA RESULT:      -8.7      5.762      9.157
REMARK  Name = 
REMARK  8 active torsions:
REMARK  status: ('A' for Active; 'I' for Inactive)
REMARK    1  A    between atoms: C_1  and  C_2
REMARK    2  A    between atoms: C_2  and  C_3
REMARK    3  A    between atoms: C_2  and  C_4
REMARK    4  A    between atoms: C_8  and  N_9
REMARK    5  A    between atoms: C_10  and  C_12
REMARK    6  A    between atoms: C_15  and  C_16
REMARK    7  A    between atoms: C_16  and  O_17
REMARK    8  A    between atoms: O_17  and  C_18
REMARK                            x       y       z     vdW  Elec       q    Type
REMARK                         _______ _______ _______ _____ _____    ______ ____
ROOT
ATOM      1  C   UNL     1       2.731   3.377  18.402  0.00  0.00    +0.000 A 
ATOM      2  C   UNL     1       1.593   2.637  18.690  0.00  0.00    +0.000 A 
ATOM      3  C   UNL     1       0.888   3.348  19.688  0.00  0.00    +0.000 A 
ATOM      4  C   UNL     1       1.633   4.480  19.957  0.00  0.00    +0.000 A 
ATOM      5  O   UNL     1       2.761   4.494  19.187  0.00  0.00    +0.000 OA
ENDROOT
BRANCH   1   7
ATOM      6  N   UNL     1       4.176   4.217  16.708  0.00  0.00    +0.000 N 
ATOM      7  C   UNL     1       3.810   3.109  17.466  0.00  0.00    +0.000 C 
ATOM      8  O   UNL     1       4.331   2.000  17.399  0.00  0.00    +0.000 OA
ATOM      9  H   UNL     1       3.710   5.081  16.959  0.00  0.00    +0.000 HD
BRANCH   6  14
ATOM     10  C   UNL     1       5.905   3.860  13.413  0.00  0.00    +0.000 A 
ATOM     11  C   UNL     1       7.120   4.501  13.705  0.00  0.00    +0.000 A 
ATOM     12  C   UNL     1       7.395   4.974  14.984  0.00  0.00    +0.000 A 
ATOM     13  C   UNL     1       6.443   4.858  15.993  0.00  0.00    +0.000 A 
ATOM     14  C   UNL     1       5.200   4.281  15.735  0.00  0.00    +0.000 A 
ATOM     15  C   UNL     1       4.952   3.755  14.450  0.00  0.00    +0.000 A 
BRANCH  10  17
ATOM     16  C   UNL     1       6.356   2.040  11.693  0.00  0.00    +0.000 C 
ATOM     17  C   UNL     1       5.675   3.391  11.976  0.00  0.00    +0.000 C 
ATOM     18  C   UNL     1       4.215   3.305  11.523  0.00  0.00    +0.000 C 
ENDBRANCH  10  17
ENDBRANCH   6  14
ENDBRANCH   1   7
BRANCH   4  19
ATOM     19  C   UNL     1       1.465   5.605  20.914  0.00  0.00    +0.000 C 
BRANCH  19  20
ATOM     20  O   UNL     1       2.365   6.651  20.566  0.00  0.00    +0.000 OA
BRANCH  20  21
ATOM     21  C   UNL     1       1.970   7.719  19.819  0.00  0.00    +0.000 A 
ATOM     22  C   UNL     1       2.244   8.007  18.483  0.00  0.00    +0.000 A 
ATOM     23  C   UNL     1       1.719   9.179  17.898  0.00  0.00    +0.000 A 
ATOM     24  C   UNL     1       0.915  10.048  18.646  0.00  0.00    +0.000 A 
ATOM     25  C   UNL     1       0.653   9.773  19.979  0.00  0.00    +0.000 A 
ATOM     26  C   UNL     1       1.199   8.621  20.555  0.00  0.00    +0.000 A 
ATOM     27  C   UNL     1      -0.133  10.712  20.836  0.00  0.00    +0.000 C 
ATOM     28  C   UNL     1      -0.950  11.741  20.077  0.00  0.00    +0.000 C 
ATOM     29  C   UNL     1      -0.468  12.071  18.685  0.00  0.00    +0.000 C 
ATOM     30  O   UNL     1      -0.885  13.065  18.086  0.00  0.00    +0.000 OA
ATOM     31  N   UNL     1       0.378  11.200  18.061  0.00  0.00    +0.000 N 
ATOM     32  H   UNL     1       0.598  11.434  17.101  0.00  0.00    +0.000 HD
ENDBRANCH  20  21
ENDBRANCH  19  20
ENDBRANCH   4  19
TORSDOF 6
ENDMDL
MODEL 5
REMARK VINA RESULT:      -8.6      5.678      8.973
REMARK  Name = 
REMARK  8 active torsions:
REMARK  status: ('A' for Active; 'I' for Inactive)
REMARK    1  A    between atoms: C_1  and  C_2
REMARK    2  A    between atoms: C_2  and  C_3
REMARK    3  A    between atoms: C_2  and  C_4
REMARK    4  A    between atoms: C_8  and  N_9
REMARK    5  A    between atoms: C_10  and  C_12
REMARK    6  A    between atoms: C_15  and  C_16
REMARK    7  A    between atoms: C_16  and  O_17
REMARK    8  A    between atoms: O_17  and  C_18
REMARK                            x       y       z     vdW  Elec       q    Type
REMARK                         _______ _______ _______ _____ _____    ______ ____
ROOT
ATOM      1  C   UNL     1       4.432   3.801  18.917  0.00  0.00    +0.000 A 
ATOM      2  C   UNL     1       4.235   2.763  19.816  0.00  0.00    +0.000 A 
ATOM      3  C   UNL     1       3.078   3.086  20.561  0.00  0.00    +0.000 A 
ATOM      4  C   UNL     1       2.634   4.302  20.079  0.00  0.00    +0.000 A 
ATOM      5  O   UNL     1       3.463   4.746  19.088  0.00  0.00    +0.000 OA
ENDROOT
BRANCH   1   7
ATOM      6  N   UNL     1       4.998   4.007  16.614  0.00  0.00    +0.000 N 
ATOM      7  C   UNL     1       5.475   3.991  17.922  0.00  0.00    +0.000 C 
ATOM      8  O   UNL     1       6.647   4.140  18.251  0.00  0.00    +0.000 OA
ATOM      9  H   UNL     1       3.990   3.968  16.525  0.00  0.00    +0.000 HD
BRANCH   6  14
ATOM     10  C   UNL     1       6.007   3.771  13.022  0.00  0.00    +0.000 A 
ATOM     11  C   UNL     1       7.115   4.635  13.024  0.00  0.00    +0.000 A 
ATOM     12  C   UNL     1       7.567   5.224  14.200  0.00  0.00    +0.000 A 
ATOM     13  C   UNL     1       6.895   5.000  15.398  0.00  0.00    +0.000 A 
ATOM     14  C   UNL     1       5.757   4.195  15.436  0.00  0.00    +0.000 A 
ATOM     15  C   UNL     1       5.339   3.558  14.249  0.00  0.00    +0.000 A 
BRANCH  10  17
ATOM     16  C   UNL     1       6.085   1.751  11.478  0.00  0.00    +0.000 C 
ATOM     17  C   UNL     1       5.564   3.184  11.682  0.00  0.00    +0.000 C 
ATOM     18  C   UNL     1       4.058   3.199  11.408  0.00  0.00    +0.000 C 
ENDBRANCH  10  17
ENDBRANCH   6  14
ENDBRANCH   1   7
BRANCH   4  19
ATOM     19  C   UNL     1       1.504   5.194  20.452  0.00  0.00    +0.000 C 
BRANCH  19  20
ATOM     20  O   UNL     1       2.018   6.469  20.819  0.00  0.00    +0.000 OA
BRANCH  20  21
ATOM     21  C   UNL     1       1.801   7.577  20.058  0.00  0.00    +0.000 A 
ATOM     22  C   UNL     1       2.197   7.835  18.748  0.00  0.00    +0.000 A 
ATOM     23  C   UNL     1       1.852   9.062  18.141  0.00  0.00    +0.000 A 
ATOM     24  C   UNL     1       1.104  10.016  18.842  0.00  0.00    +0.000 A 
ATOM     25  C   UNL     1       0.721   9.769  20.151  0.00  0.00    +0.000 A 
ATOM     26  C   UNL     1       1.091   8.560  20.750  0.00  0.00    +0.000 A 
ATOM     27  C   UNL     1      -0.008  10.791  20.964  0.00  0.00    +0.000 C 
ATOM     28  C   UNL     1      -0.647  11.909  20.162  0.00  0.00    +0.000 C 
ATOM     29  C   UNL     1      -0.036  12.185  18.809  0.00  0.00    +0.000 C 
ATOM     30  O   UNL     1      -0.294  13.222  18.194  0.00  0.00    +0.000 OA
ATOM     31  N   UNL     1       0.745  11.223  18.234  0.00  0.00    +0.000 N 
ATOM     32  H   UNL     1       1.055  11.433  17.294  0.00  0.00    +0.000 HD
ENDBRANCH  20  21
ENDBRANCH  19  20
ENDBRANCH   4  19
TORSDOF 6
ENDMDL
MODEL 6
REMARK VINA RESULT:      -8.6      4.994      7.995
REMARK  Name = 
REMARK  8 active torsions:
REMARK  status: ('A' for Active; 'I' for Inactive)
REMARK    1  A    between atoms: C_1  and  C_2
REMARK    2  A    between atoms: C_2  and  C_3
REMARK    3  A    between atoms: C_2  and  C_4
REMARK    4  A    between atoms: C_8  and  N_9
REMARK    5  A    between atoms: C_10  and  C_12
REMARK    6  A    between atoms: C_15  and  C_16
REMARK    7  A    between atoms: C_16  and  O_17
REMARK    8  A    between atoms: O_17  and  C_18
REMARK                            x       y       z     vdW  Elec       q    Type
REMARK                         _______ _______ _______ _____ _____    ______ ____
ROOT
ATOM      1  C   UNL     1       1.759   5.727  20.325  0.00  0.00    +0.000 A 
ATOM      2  C   UNL     1       0.842   4.691  20.441  0.00  0.00    +0.000 A 
ATOM      3  C   UNL     1       1.555   3.491  20.225  0.00  0.00    +0.000 A 
ATOM      4  C   UNL     1       2.866   3.857  19.986  0.00  0.00    +0.000 A 
ATOM      5  O   UNL     1       2.991   5.216  20.032  0.00  0.00    +0.000 OA
ENDROOT
BRANCH   1   7
ATOM      6  N   UNL     1       0.493   7.517  21.252  0.00  0.00    +0.000 N 
ATOM      7  C   UNL     1       1.568   7.163  20.442  0.00  0.00    +0.000 C 
ATOM      8  O   UNL     1       2.321   7.951  19.879  0.00  0.00    +0.000 OA
ATOM      9  H   UNL     1       0.036   6.743  21.719  0.00  0.00    +0.000 HD
BRANCH   6  14
ATOM     10  C   UNL     1      -0.704  11.028  20.791  0.00  0.00    +0.000 A 
ATOM     11  C   UNL     1      -0.919  11.389  22.132  0.00  0.00    +0.000 A 
ATOM     12  C   UNL     1      -0.603  10.520  23.171  0.00  0.00    +0.000 A 
ATOM     13  C   UNL     1      -0.107   9.250  22.895  0.00  0.00    +0.000 A 
ATOM     14  C   UNL     1       0.069   8.826  21.578  0.00  0.00    +0.000 A 
ATOM     15  C   UNL     1      -0.201   9.733  20.533  0.00  0.00    +0.000 A 
BRANCH  10  17
ATOM     16  C   UNL     1      -2.603  12.363  19.750  0.00  0.00    +0.000 C 
ATOM     17  C   UNL     1      -1.100  12.034  19.711  0.00  0.00    +0.000 C 
ATOM     18  C   UNL     1      -0.313  13.348  19.698  0.00  0.00    +0.000 C 
ENDBRANCH  10  17
ENDBRANCH   6  14
ENDBRANCH   1   7
BRANCH   4  19
ATOM     19  C   UNL     1       4.094   3.086  19.657  0.00  0.00    +0.000 C 
BRANCH  19  20
ATOM     20  O   UNL     1       5.231   3.923  19.835  0.00  0.00    +0.000 OA
BRANCH  20  21
ATOM     21  C   UNL     1       5.901   4.459  18.777  0.00  0.00    +0.000 A 
ATOM     22  C   UNL     1       6.917   5.411  18.771  0.00  0.00    +0.000 A 
ATOM     23  C   UNL     1       7.484   5.822  17.545  0.00  0.00    +0.000 A 
ATOM     24  C   UNL     1       7.042   5.269  16.337  0.00  0.00    +0.000 A 
ATOM     25  C   UNL     1       6.021   4.332  16.337  0.00  0.00    +0.000 A 
ATOM     26  C   UNL     1       5.449   3.951  17.557  0.00  0.00    +0.000 A 
ATOM     27  C   UNL     1       5.462   3.776  15.067  0.00  0.00    +0.000 C 
ATOM     28  C   UNL     1       6.335   3.978  13.842  0.00  0.00    +0.000 C 
ATOM     29  C   UNL     1       7.303   5.134  13.903  0.00  0.00    +0.000 C 
ATOM     30  O   UNL     1       7.863   5.550  12.887  0.00  0.00    +0.000 OA
ATOM     31  N   UNL     1       7.618   5.661  15.124  0.00  0.00    +0.000 N 
ATOM     32  H   UNL     1       8.334   6.376  15.106  0.00  0.00    +0.000 HD
ENDBRANCH  20  21
ENDBRANCH  19  20
ENDBRANCH   4  19
TORSDOF 6
ENDMDL
MODEL 7
REMARK VINA RESULT:      -8.6      2.493      2.976
REMARK  Name = 
REMARK  8 active torsions:
REMARK  status: ('A' for Active; 'I' for Inactive)
REMARK    1  A    between atoms: C_1  and  C_2
REMARK    2  A    between atoms: C_2  and  C_3
REMARK    3  A    between atoms: C_2  and  C_4
REMARK    4  A    between atoms: C_8  and  N_9
REMARK    5  A    between atoms: C_10  and  C_12
REMARK    6  A    between atoms: C_15  and  C_16
REMARK    7  A    between atoms: C_16  and  O_17
REMARK    8  A    between atoms: O_17  and  C_18
REMARK                            x       y       z     vdW  Elec       q    Type
REMARK                         _______ _______ _______ _____ _____    ______ ____
ROOT
ATOM      1  C   UNL     1       8.587   8.992  18.465  0.00  0.00    +0.000 A 
ATOM      2  C   UNL     1       7.824   8.765  17.328  0.00  0.00    +0.000 A 
ATOM      3  C   UNL     1       7.390   7.422  17.392  0.00  0.00    +0.000 A 
ATOM      4  C   UNL     1       7.913   6.900  18.560  0.00  0.00    +0.000 A 
ATOM      5  O   UNL     1       8.652   7.849  19.208  0.00  0.00    +0.000 OA
ENDROOT
BRANCH   1   7
ATOM      6  N   UNL     1       9.658  11.027  17.854  0.00  0.00    +0.000 N 
ATOM      7  C   UNL     1       9.283  10.191  18.901  0.00  0.00    +0.000 C 
ATOM      8  O   UNL     1       9.480  10.413  20.091  0.00  0.00    +0.000 OA
ATOM      9  H   UNL     1       9.331  10.742  16.939  0.00  0.00    +0.000 HD
BRANCH   6  14
ATOM     10  C   UNL     1      10.159  14.717  18.189  0.00  0.00    +0.000 A 
ATOM     11  C   UNL     1      11.558  14.762  18.309  0.00  0.00    +0.000 A 
ATOM     12  C   UNL     1      12.327  13.608  18.205  0.00  0.00    +0.000 A 
ATOM     13  C   UNL     1      11.714  12.372  18.024  0.00  0.00    +0.000 A 
ATOM     14  C   UNL     1      10.325  12.270  17.956  0.00  0.00    +0.000 A 
ATOM     15  C   UNL     1       9.556  13.452  18.007  0.00  0.00    +0.000 A 
BRANCH  10  17
ATOM     16  C   UNL     1       7.903  15.872  17.971  0.00  0.00    +0.000 C 
ATOM     17  C   UNL     1       9.389  16.029  18.338  0.00  0.00    +0.000 C 
ATOM     18  C   UNL     1       9.484  16.712  19.705  0.00  0.00    +0.000 C 
ENDBRANCH  10  17
ENDBRANCH   6  14
ENDBRANCH   1   7
BRANCH   4  19
ATOM     19  C   UNL     1       7.860   5.553  19.186  0.00  0.00    +0.000 C 
BRANCH  19  20
ATOM     20  O   UNL     1       7.528   4.590  18.193  0.00  0.00    +0.000 OA
BRANCH  20  21
ATOM     21  C   UNL     1       6.236   4.285  17.891  0.00  0.00    +0.000 A 
ATOM     22  C   UNL     1       5.598   4.286  16.653  0.00  0.00    +0.000 A 
ATOM     23  C   UNL     1       4.237   3.922  16.566  0.00  0.00    +0.000 A 
ATOM     24  C   UNL     1       3.526   3.549  17.713  0.00  0.00    +0.000 A 
ATOM     25  C   UNL     1       4.153   3.562  18.949  0.00  0.00    +0.000 A 
ATOM     26  C   UNL     1       5.495   3.948  19.026  0.00  0.00    +0.000 A 
ATOM     27  C   UNL     1       3.412   3.249  20.210  0.00  0.00    +0.000 C 
ATOM     28  C   UNL     1       2.088   2.535  20.013  0.00  0.00    +0.000 C 
ATOM     29  C   UNL     1       1.425   2.727  18.671  0.00  0.00    +0.000 C 
ATOM     30  O   UNL     1       0.245   2.420  18.494  0.00  0.00    +0.000 OA
ATOM     31  N   UNL     1       2.183   3.169  17.624  0.00  0.00    +0.000 N 
ATOM     32  H   UNL     1       1.703   3.198  16.733  0.00  0.00    +0.000 HD
ENDBRANCH  20  21
ENDBRANCH  19  20
ENDBRANCH   4  19
TORSDOF 6
ENDMDL
MODEL 8
REMARK VINA RESULT:      -8.4      7.337     10.205
REMARK  Name = 
REMARK  8 active torsions:
REMARK  status: ('A' for Active; 'I' for Inactive)
REMARK    1  A    between atoms: C_1  and  C_2
REMARK    2  A    between atoms: C_2  and  C_3
REMARK    3  A    between atoms: C_2  and  C_4
REMARK    4  A    between atoms: C_8  and  N_9
REMARK    5  A    between atoms: C_10  and  C_12
REMARK    6  A    between atoms: C_15  and  C_16
REMARK    7  A    between atoms: C_16  and  O_17
REMARK    8  A    between atoms: O_17  and  C_18
REMARK                            x       y       z     vdW  Elec       q    Type
REMARK                         _______ _______ _______ _____ _____    ______ ____
ROOT
ATOM      1  C   UNL     1       1.298   8.808  20.108  0.00  0.00    +0.000 A 
ATOM      2  C   UNL     1       0.834   8.277  21.303  0.00  0.00    +0.000 A 
ATOM      3  C   UNL     1       0.262   9.347  22.028  0.00  0.00    +0.000 A 
ATOM      4  C   UNL     1       0.411  10.472  21.240  0.00  0.00    +0.000 A 
ATOM      5  O   UNL     1       1.052  10.151  20.077  0.00  0.00    +0.000 OA
ENDROOT
BRANCH   1   7
ATOM      6  N   UNL     1       2.465   6.895  19.307  0.00  0.00    +0.000 N 
ATOM      7  C   UNL     1       1.978   8.161  18.998  0.00  0.00    +0.000 C 
ATOM      8  O   UNL     1       2.071   8.710  17.904  0.00  0.00    +0.000 OA
ATOM      9  H   UNL     1       2.217   6.553  20.227  0.00  0.00    +0.000 HD
BRANCH   6  14
ATOM     10  C   UNL     1       5.251   5.395  17.315  0.00  0.00    +0.000 A 
ATOM     11  C   UNL     1       4.616   4.233  16.847  0.00  0.00    +0.000 A 
ATOM     12  C   UNL     1       3.274   3.986  17.118  0.00  0.00    +0.000 A 
ATOM     13  C   UNL     1       2.544   4.873  17.904  0.00  0.00    +0.000 A 
ATOM     14  C   UNL     1       3.147   6.012  18.438  0.00  0.00    +0.000 A 
ATOM     15  C   UNL     1       4.492   6.282  18.112  0.00  0.00    +0.000 A 
BRANCH  10  17
ATOM     16  C   UNL     1       7.242   6.978  17.373  0.00  0.00    +0.000 C 
ATOM     17  C   UNL     1       6.733   5.576  16.990  0.00  0.00    +0.000 C 
ATOM     18  C   UNL     1       7.684   4.533  17.585  0.00  0.00    +0.000 C 
ENDBRANCH  10  17
ENDBRANCH   6  14
ENDBRANCH   1   7
BRANCH   4  19
ATOM     19  C   UNL     1       0.061  11.904  21.434  0.00  0.00    +0.000 C 
BRANCH  19  20
ATOM     20  O   UNL     1      -0.929  12.275  20.481  0.00  0.00    +0.000 OA
BRANCH  20  21
ATOM     21  C   UNL     1      -2.237  12.424  20.826  0.00  0.00    +0.000 A 
ATOM     22  C   UNL     1      -3.350  12.590  20.005  0.00  0.00    +0.000 A 
ATOM     23  C   UNL     1      -4.633  12.717  20.580  0.00  0.00    +0.000 A 
ATOM     24  C   UNL     1      -4.797  12.665  21.970  0.00  0.00    +0.000 A 
ATOM     25  C   UNL     1      -3.691  12.516  22.792  0.00  0.00    +0.000 A 
ATOM     26  C   UNL     1      -2.421  12.416  22.210  0.00  0.00    +0.000 A 
ATOM     27  C   UNL     1      -3.809  12.537  24.282  0.00  0.00    +0.000 C 
ATOM     28  C   UNL     1      -5.212  12.318  24.815  0.00  0.00    +0.000 C 
ATOM     29  C   UNL     1      -6.340  12.667  23.874  0.00  0.00    +0.000 C 
ATOM     30  O   UNL     1      -7.497  12.781  24.282  0.00  0.00    +0.000 OA
ATOM     31  N   UNL     1      -6.070  12.771  22.539  0.00  0.00    +0.000 N 
ATOM     32  H   UNL     1      -6.880  12.924  21.952  0.00  0.00    +0.000 HD
ENDBRANCH  20  21
ENDBRANCH  19  20
ENDBRANCH   4  19
TORSDOF 6
ENDMDL
MODEL 9
REMARK VINA RESULT:      -8.4      6.250      9.641
REMARK  Name = 
REMARK  8 active torsions:
REMARK  status: ('A' for Active; 'I' for Inactive)
REMARK    1  A    between atoms: C_1  and  C_2
REMARK    2  A    between atoms: C_2  and  C_3
REMARK    3  A    between atoms: C_2  and  C_4
REMARK    4  A    between atoms: C_8  and  N_9
REMARK    5  A    between atoms: C_10  and  C_12
REMARK    6  A    between atoms: C_15  and  C_16
REMARK    7  A    between atoms: C_16  and  O_17
REMARK    8  A    between atoms: O_17  and  C_18
REMARK                            x       y       z     vdW  Elec       q    Type
REMARK                         _______ _______ _______ _____ _____    ______ ____
ROOT
ATOM      1  C   UNL     1       1.298   8.133  20.555  0.00  0.00    +0.000 A 
ATOM      2  C   UNL     1       0.561   8.405  21.699  0.00  0.00    +0.000 A 
ATOM      3  C   UNL     1       0.223   9.776  21.649  0.00  0.00    +0.000 A 
ATOM      4  C   UNL     1       0.773  10.268  20.481  0.00  0.00    +0.000 A 
ATOM      5  O   UNL     1       1.439   9.275  19.820  0.00  0.00    +0.000 OA
ENDROOT
BRANCH   1   7
ATOM      6  N   UNL     1       2.401   6.954  18.807  0.00  0.00    +0.000 N 
ATOM      7  C   UNL     1       1.904   6.891  20.105  0.00  0.00    +0.000 C 
ATOM      8  O   UNL     1       1.967   5.913  20.842  0.00  0.00    +0.000 OA
ATOM      9  H   UNL     1       2.354   7.868  18.373  0.00  0.00    +0.000 HD
BRANCH   6  14
ATOM     10  C   UNL     1       5.127   5.124  17.020  0.00  0.00    +0.000 A 
ATOM     11  C   UNL     1       4.499   3.883  16.824  0.00  0.00    +0.000 A 
ATOM     12  C   UNL     1       3.177   3.677  17.205  0.00  0.00    +0.000 A 
ATOM     13  C   UNL     1       2.463   4.693  17.833  0.00  0.00    +0.000 A 
ATOM     14  C   UNL     1       3.063   5.924  18.099  0.00  0.00    +0.000 A 
ATOM     15  C   UNL     1       4.385   6.141  17.660  0.00  0.00    +0.000 A 
BRANCH  10  17
ATOM     16  C   UNL     1       7.552   4.656  17.631  0.00  0.00    +0.000 C 
ATOM     17  C   UNL     1       6.589   5.257  16.592  0.00  0.00    +0.000 C 
ATOM     18  C   UNL     1       6.940   4.687  15.215  0.00  0.00    +0.000 C 
ENDBRANCH  10  17
ENDBRANCH   6  14
ENDBRANCH   1   7
BRANCH   4  19
ATOM     19  C   UNL     1       0.812  11.621  19.865  0.00  0.00    +0.000 C 
BRANCH  19  20
ATOM     20  O   UNL     1       0.251  11.555  18.559  0.00  0.00    +0.000 OA
BRANCH  20  21
ATOM     21  C   UNL     1      -1.063  11.260  18.356  0.00  0.00    +0.000 A 
ATOM     22  C   UNL     1      -1.632  10.316  17.504  0.00  0.00    +0.000 A 
ATOM     23  C   UNL     1      -3.035  10.169  17.458  0.00  0.00    +0.000 A 
ATOM     24  C   UNL     1      -3.859  10.956  18.272  0.00  0.00    +0.000 A 
ATOM     25  C   UNL     1      -3.298  11.908  19.110  0.00  0.00    +0.000 A 
ATOM     26  C   UNL     1      -1.907  12.061  19.128  0.00  0.00    +0.000 A 
ATOM     27  C   UNL     1      -4.143  12.824  19.936  0.00  0.00    +0.000 C 
ATOM     28  C   UNL     1      -5.584  12.383  20.110  0.00  0.00    +0.000 C 
ATOM     29  C   UNL     1      -6.129  11.467  19.041  0.00  0.00    +0.000 C 
ATOM     30  O   UNL     1      -7.340  11.262  18.936  0.00  0.00    +0.000 OA
ATOM     31  N   UNL     1      -5.248  10.797  18.241  0.00  0.00    +0.000 N 
ATOM     32  H   UNL     1      -5.672  10.136  17.602  0.00  0.00    +0.000 HD
ENDBRANCH  20  21
ENDBRANCH  19  20
ENDBRANCH   4  19
TORSDOF 6
ENDMDL
