MODEL 1
REMARK VINA RESULT:      -8.4      0.000      0.000
REMARK  Name = 
REMARK  5 active torsions:
REMARK  status: ('A' for Active; 'I' for Inactive)
REMARK    1  A    between atoms: N_6  and  C_7
REMARK    2  A    between atoms: C_11  and  N_12
REMARK    3  A    between atoms: N_12  and  S_13
REMARK    4  A    between atoms: S_13  and  C_16
REMARK    5  A    between atoms: C_20  and  C_21
REMARK                            x       y       z     vdW  Elec       q    Type
REMARK                         _______ _______ _______ _____ _____    ______ ____
ROOT
ATOM      1  N   UNL     1       4.367   6.998  17.635  0.00  0.00    +0.000 N 
ATOM      2  H   UNL     1       4.484   8.008  17.649  0.00  0.00    +0.000 HD
ENDROOT
BRANCH   1   7
ATOM      3  C   UNL     1       6.593   4.868  15.553  0.00  0.00    +0.000 A 
ATOM      4  C   UNL     1       7.488   4.422  16.534  0.00  0.00    +0.000 A 
ATOM      5  C   UNL     1       7.394   4.884  17.849  0.00  0.00    +0.000 A 
ATOM      6  C   UNL     1       6.380   5.769  18.207  0.00  0.00    +0.000 A 
ATOM      7  C   UNL     1       5.453   6.174  17.251  0.00  0.00    +0.000 A 
ATOM      8  C   UNL     1       5.567   5.746  15.929  0.00  0.00    +0.000 A 
BRANCH   3  14
ATOM      9  O   UNL     1       8.483   5.866  13.455  0.00  0.00    +0.000 OA
ATOM     10  C   UNL     1       7.617   5.026  13.276  0.00  0.00    +0.000 C 
ATOM     11  O   UNL     1       7.410   4.438  12.054  0.00  0.00    +0.000 OA
ATOM     12  C   UNL     1       6.203   3.680  12.130  0.00  0.00    +0.000 C 
ATOM     13  C   UNL     1       5.997   3.423  13.601  0.00  0.00    +0.000 C 
ATOM     14  N   UNL     1       6.745   4.480  14.205  0.00  0.00    +0.000 N 
ENDBRANCH   3  14
ENDBRANCH   1   7
BRANCH   1  15
ATOM     15  S   UNL     1       3.121   6.402  18.583  0.00  0.00    +0.000 S 
ATOM     16  O   UNL     1       2.307   5.578  17.715  0.00  0.00    +0.000 OA
ATOM     17  O   UNL     1       3.662   5.883  19.822  0.00  0.00    +0.000 OA
BRANCH  15  18
ATOM     18  C   UNL     1       2.164   7.854  18.973  0.00  0.00    +0.000 A 
ATOM     19  C   UNL     1       1.865   8.774  17.960  0.00  0.00    +0.000 A 
ATOM     20  C   UNL     1       1.026   9.853  18.234  0.00  0.00    +0.000 A 
ATOM     21  C   UNL     1       0.474  10.005  19.509  0.00  0.00    +0.000 A 
ATOM     22  C   UNL     1       0.753   9.078  20.526  0.00  0.00    +0.000 A 
ATOM     23  C   UNL     1       1.613   8.002  20.250  0.00  0.00    +0.000 A 
BRANCH  22  24
ATOM     24  C   UNL     1       0.124   9.202  21.895  0.00  0.00    +0.000 C 
ATOM     25  F   UNL     1      -0.758   8.203  22.178  0.00  0.00    +0.000 F 
ATOM     26  F   UNL     1       1.045   9.185  22.895  0.00  0.00    +0.000 F 
ATOM     27  F   UNL     1      -0.570  10.363  22.035  0.00  0.00    +0.000 F 
ENDBRANCH  22  24
ENDBRANCH  15  18
ENDBRANCH   1  15
TORSDOF 5
ENDMDL
MODEL 2
REMARK VINA RESULT:      -8.3      4.586      8.505
REMARK  Name = 
REMARK  5 active torsions:
REMARK  status: ('A' for Active; 'I' for Inactive)
REMARK    1  A    between atoms: N_6  and  C_7
REMARK    2  A    between atoms: C_11  and  N_12
REMARK    3  A    between atoms: N_12  and  S_13
REMARK    4  A    between atoms: S_13  and  C_16
REMARK    5  A    between atoms: C_20  and  C_21
REMARK                            x       y       z     vdW  Elec       q    Type
REMARK                         _______ _______ _______ _____ _____    ______ ____
ROOT
ATOM      1  N   UNL     1       2.725   5.910  20.355  0.00  0.00    +0.000 N 
ATOM      2  H   UNL     1       3.464   5.921  21.053  0.00  0.00    +0.000 HD
ENDROOT
BRANCH   1   7
ATOM      3  C   UNL     1       1.107   9.240  20.010  0.00  0.00    +0.000 A 
ATOM      4  C   UNL     1       1.267   9.447  18.634  0.00  0.00    +0.000 A 
ATOM      5  C   UNL     1       1.968   8.526  17.851  0.00  0.00    +0.000 A 
ATOM      6  C   UNL     1       2.485   7.368  18.429  0.00  0.00    +0.000 A 
ATOM      7  C   UNL     1       2.283   7.130  19.786  0.00  0.00    +0.000 A 
ATOM      8  C   UNL     1       1.617   8.065  20.578  0.00  0.00    +0.000 A 
BRANCH   3  14
ATOM      9  O   UNL     1       1.631  12.180  20.245  0.00  0.00    +0.000 OA
ATOM     10  C   UNL     1       0.818  11.557  20.909  0.00  0.00    +0.000 C 
ATOM     11  O   UNL     1       0.040  12.160  21.865  0.00  0.00    +0.000 OA
ATOM     12  C   UNL     1      -0.630  11.133  22.595  0.00  0.00    +0.000 C 
ATOM     13  C   UNL     1      -0.619   9.935  21.682  0.00  0.00    +0.000 C 
ATOM     14  N   UNL     1       0.486  10.215  20.820  0.00  0.00    +0.000 N 
ENDBRANCH   3  14
ENDBRANCH   1   7
BRANCH   1  15
ATOM     15  S   UNL     1       2.508   4.453  19.557  0.00  0.00    +0.000 S 
ATOM     16  O   UNL     1       2.671   3.415  20.552  0.00  0.00    +0.000 OA
ATOM     17  O   UNL     1       1.318   4.525  18.734  0.00  0.00    +0.000 OA
BRANCH  15  18
ATOM     18  C   UNL     1       3.917   4.360  18.470  0.00  0.00    +0.000 A 
ATOM     19  C   UNL     1       3.732   3.993  17.132  0.00  0.00    +0.000 A 
ATOM     20  C   UNL     1       4.813   4.024  16.251  0.00  0.00    +0.000 A 
ATOM     21  C   UNL     1       6.070   4.437  16.701  0.00  0.00    +0.000 A 
ATOM     22  C   UNL     1       6.262   4.825  18.037  0.00  0.00    +0.000 A 
ATOM     23  C   UNL     1       5.174   4.774  18.924  0.00  0.00    +0.000 A 
BRANCH  22  24
ATOM     24  C   UNL     1       7.603   5.320  18.525  0.00  0.00    +0.000 C 
ATOM     25  F   UNL     1       7.635   5.570  19.863  0.00  0.00    +0.000 F 
ATOM     26  F   UNL     1       8.606   4.434  18.284  0.00  0.00    +0.000 F 
ATOM     27  F   UNL     1       7.969   6.484  17.920  0.00  0.00    +0.000 F 
ENDBRANCH  22  24
ENDBRANCH  15  18
ENDBRANCH   1  15
TORSDOF 5
ENDMDL
MODEL 3
REMARK VINA RESULT:      -8.3      4.582      8.619
REMARK  Name = 
REMARK  5 active torsions:
REMARK  status: ('A' for Active; 'I' for Inactive)
REMARK    1  A    between atoms: N_6  and  C_7
REMARK    2  A    between atoms: C_11  and  N_12
REMARK    3  A    between atoms: N_12  and  S_13
REMARK    4  A    between atoms: S_13  and  C_16
REMARK    5  A    between atoms: C_20  and  C_21
REMARK                            x       y       z     vdW  Elec       q    Type
REMARK                         _______ _______ _______ _____ _____    ______ ____
ROOT
ATOM      1  N   UNL     1       2.688   5.752  20.405  0.00  0.00    +0.000 N 
ATOM      2  H   UNL     1       3.396   5.739  21.134  0.00  0.00    +0.000 HD
ENDROOT
BRANCH   1   7
ATOM      3  C   UNL     1       1.166   9.131  20.106  0.00  0.00    +0.000 A 
ATOM      4  C   UNL     1       1.320   9.345  18.730  0.00  0.00    +0.000 A 
ATOM      5  C   UNL     1       1.986   8.412  17.932  0.00  0.00    +0.000 A 
ATOM      6  C   UNL     1       2.474   7.234  18.495  0.00  0.00    +0.000 A 
ATOM      7  C   UNL     1       2.277   6.989  19.851  0.00  0.00    +0.000 A 
ATOM      8  C   UNL     1       1.646   7.936  20.658  0.00  0.00    +0.000 A 
BRANCH   3  14
ATOM      9  O   UNL     1      -0.687   8.847  22.442  0.00  0.00    +0.000 OA
ATOM     10  C   UNL     1      -0.311   9.907  21.970  0.00  0.00    +0.000 C 
ATOM     11  O   UNL     1      -0.716  11.117  22.475  0.00  0.00    +0.000 OA
ATOM     12  C   UNL     1      -0.281  12.135  21.575  0.00  0.00    +0.000 C 
ATOM     13  C   UNL     1       0.852  11.513  20.800  0.00  0.00    +0.000 C 
ATOM     14  N   UNL     1       0.581  10.116  20.930  0.00  0.00    +0.000 N 
ENDBRANCH   3  14
ENDBRANCH   1   7
BRANCH   1  15
ATOM     15  S   UNL     1       2.497   4.318  19.559  0.00  0.00    +0.000 S 
ATOM     16  O   UNL     1       2.683   3.251  20.519  0.00  0.00    +0.000 OA
ATOM     17  O   UNL     1       1.305   4.394  18.741  0.00  0.00    +0.000 OA
BRANCH  15  18
ATOM     18  C   UNL     1       3.906   4.289  18.468  0.00  0.00    +0.000 A 
ATOM     19  C   UNL     1       3.727   3.955  17.120  0.00  0.00    +0.000 A 
ATOM     20  C   UNL     1       4.805   4.037  16.239  0.00  0.00    +0.000 A 
ATOM     21  C   UNL     1       6.053   4.466  16.698  0.00  0.00    +0.000 A 
ATOM     22  C   UNL     1       6.238   4.820  18.044  0.00  0.00    +0.000 A 
ATOM     23  C   UNL     1       5.154   4.720  18.932  0.00  0.00    +0.000 A 
BRANCH  22  24
ATOM     24  C   UNL     1       7.569   5.334  18.544  0.00  0.00    +0.000 C 
ATOM     25  F   UNL     1       7.975   6.479  17.928  0.00  0.00    +0.000 F 
ATOM     26  F   UNL     1       7.555   5.608  19.876  0.00  0.00    +0.000 F 
ATOM     27  F   UNL     1       8.570   4.432  18.351  0.00  0.00    +0.000 F 
ENDBRANCH  22  24
ENDBRANCH  15  18
ENDBRANCH   1  15
TORSDOF 5
ENDMDL
MODEL 4
REMARK VINA RESULT:      -8.3      4.670      8.486
REMARK  Name = 
REMARK  5 active torsions:
REMARK  status: ('A' for Active; 'I' for Inactive)
REMARK    1  A    between atoms: N_6  and  C_7
REMARK    2  A    between atoms: C_11  and  N_12
REMARK    3  A    between atoms: N_12  and  S_13
REMARK    4  A    between atoms: S_13  and  C_16
REMARK    5  A    between atoms: C_20  and  C_21
REMARK                            x       y       z     vdW  Elec       q    Type
REMARK                         _______ _______ _______ _____ _____    ______ ____
ROOT
ATOM      1  N   UNL     1       2.756   5.981  20.428  0.00  0.00    +0.000 N 
ATOM      2  H   UNL     1       3.473   6.052  21.147  0.00  0.00    +0.000 HD
ENDROOT
BRANCH   1   7
ATOM      3  C   UNL     1       1.030   9.181  19.651  0.00  0.00    +0.000 A 
ATOM      4  C   UNL     1       1.406   9.341  18.312  0.00  0.00    +0.000 A 
ATOM      5  C   UNL     1       2.280   8.436  17.703  0.00  0.00    +0.000 A 
ATOM      6  C   UNL     1       2.759   7.340  18.417  0.00  0.00    +0.000 A 
ATOM      7  C   UNL     1       2.347   7.144  19.732  0.00  0.00    +0.000 A 
ATOM      8  C   UNL     1       1.505   8.066  20.355  0.00  0.00    +0.000 A 
BRANCH   3  14
ATOM      9  O   UNL     1      -1.507  10.498  18.756  0.00  0.00    +0.000 OA
ATOM     10  C   UNL     1      -0.916  10.747  19.794  0.00  0.00    +0.000 C 
ATOM     11  O   UNL     1      -1.366  11.690  20.684  0.00  0.00    +0.000 OA
ATOM     12  C   UNL     1      -0.347  11.888  21.664  0.00  0.00    +0.000 C 
ATOM     13  C   UNL     1       0.493  10.639  21.611  0.00  0.00    +0.000 C 
ATOM     14  N   UNL     1       0.227  10.146  20.297  0.00  0.00    +0.000 N 
ENDBRANCH   3  14
ENDBRANCH   1   7
BRANCH   1  15
ATOM     15  S   UNL     1       2.550   4.456  19.763  0.00  0.00    +0.000 S 
ATOM     16  O   UNL     1       2.836   3.510  20.821  0.00  0.00    +0.000 OA
ATOM     17  O   UNL     1       1.301   4.413  19.033  0.00  0.00    +0.000 OA
BRANCH  15  18
ATOM     18  C   UNL     1       3.878   4.335  18.581  0.00  0.00    +0.000 A 
ATOM     19  C   UNL     1       3.592   3.970  17.260  0.00  0.00    +0.000 A 
ATOM     20  C   UNL     1       4.609   3.980  16.306  0.00  0.00    +0.000 A 
ATOM     21  C   UNL     1       5.903   4.367  16.665  0.00  0.00    +0.000 A 
ATOM     22  C   UNL     1       6.195   4.752  17.984  0.00  0.00    +0.000 A 
ATOM     23  C   UNL     1       5.171   4.724  18.946  0.00  0.00    +0.000 A 
BRANCH  22  24
ATOM     24  C   UNL     1       7.577   5.221  18.376  0.00  0.00    +0.000 C 
ATOM     25  F   UNL     1       7.980   6.339  17.711  0.00  0.00    +0.000 F 
ATOM     26  F   UNL     1       7.671   5.517  19.701  0.00  0.00    +0.000 F 
ATOM     27  F   UNL     1       8.527   4.278  18.128  0.00  0.00    +0.000 F 
ENDBRANCH  22  24
ENDBRANCH  15  18
ENDBRANCH   1  15
TORSDOF 5
ENDMDL
MODEL 5
REMARK VINA RESULT:      -8.3      4.819      5.872
REMARK  Name = 
REMARK  5 active torsions:
REMARK  status: ('A' for Active; 'I' for Inactive)
REMARK    1  A    between atoms: N_6  and  C_7
REMARK    2  A    between atoms: C_11  and  N_12
REMARK    3  A    between atoms: N_12  and  S_13
REMARK    4  A    between atoms: S_13  and  C_16
REMARK    5  A    between atoms: C_20  and  C_21
REMARK                            x       y       z     vdW  Elec       q    Type
REMARK                         _______ _______ _______ _____ _____    ______ ____
ROOT
ATOM      1  N   UNL     1       1.703   8.539  21.619  0.00  0.00    +0.000 N 
ATOM      2  H   UNL     1       2.357   8.437  22.392  0.00  0.00    +0.000 HD
ENDROOT
BRANCH   1   7
ATOM      3  C   UNL     1       2.238   5.615  19.385  0.00  0.00    +0.000 A 
ATOM      4  C   UNL     1       2.414   6.274  18.161  0.00  0.00    +0.000 A 
ATOM      5  C   UNL     1       2.281   7.663  18.072  0.00  0.00    +0.000 A 
ATOM      6  C   UNL     1       2.009   8.412  19.215  0.00  0.00    +0.000 A 
ATOM      7  C   UNL     1       1.886   7.770  20.444  0.00  0.00    +0.000 A 
ATOM      8  C   UNL     1       1.979   6.381  20.530  0.00  0.00    +0.000 A 
BRANCH   3  14
ATOM      9  O   UNL     1       4.573   3.740  19.438  0.00  0.00    +0.000 OA
ATOM     10  C   UNL     1       3.401   3.401  19.431  0.00  0.00    +0.000 C 
ATOM     11  O   UNL     1       3.021   2.082  19.441  0.00  0.00    +0.000 OA
ATOM     12  C   UNL     1       1.614   2.030  19.208  0.00  0.00    +0.000 C 
ATOM     13  C   UNL     1       1.105   3.395  19.590  0.00  0.00    +0.000 C 
ATOM     14  N   UNL     1       2.274   4.206  19.459  0.00  0.00    +0.000 N 
ENDBRANCH   3  14
ENDBRANCH   1   7
BRANCH   1  15
ATOM     15  S   UNL     1       0.201   9.161  22.022  0.00  0.00    +0.000 S 
ATOM     16  O   UNL     1      -0.749   8.086  21.834  0.00  0.00    +0.000 OA
ATOM     17  O   UNL     1       0.293   9.871  23.281  0.00  0.00    +0.000 OA
BRANCH  15  18
ATOM     18  C   UNL     1      -0.109  10.362  20.742  0.00  0.00    +0.000 A 
ATOM     19  C   UNL     1       0.625  11.553  20.722  0.00  0.00    +0.000 A 
ATOM     20  C   UNL     1       0.465  12.446  19.663  0.00  0.00    +0.000 A 
ATOM     21  C   UNL     1      -0.413  12.143  18.619  0.00  0.00    +0.000 A 
ATOM     22  C   UNL     1      -1.141  10.942  18.620  0.00  0.00    +0.000 A 
ATOM     23  C   UNL     1      -0.989  10.053  19.699  0.00  0.00    +0.000 A 
BRANCH  22  24
ATOM     24  C   UNL     1      -2.055  10.577  17.474  0.00  0.00    +0.000 C 
ATOM     25  F   UNL     1      -3.321  10.264  17.868  0.00  0.00    +0.000 F 
ATOM     26  F   UNL     1      -2.182  11.583  16.568  0.00  0.00    +0.000 F 
ATOM     27  F   UNL     1      -1.603   9.496  16.783  0.00  0.00    +0.000 F 
ENDBRANCH  22  24
ENDBRANCH  15  18
ENDBRANCH   1  15
TORSDOF 5
ENDMDL
MODEL 6
REMARK VINA RESULT:      -8.3      4.125      8.535
REMARK  Name = 
REMARK  5 active torsions:
REMARK  status: ('A' for Active; 'I' for Inactive)
REMARK    1  A    between atoms: N_6  and  C_7
REMARK    2  A    between atoms: C_11  and  N_12
REMARK    3  A    between atoms: N_12  and  S_13
REMARK    4  A    between atoms: S_13  and  C_16
REMARK    5  A    between atoms: C_20  and  C_21
REMARK                            x       y       z     vdW  Elec       q    Type
REMARK                         _______ _______ _______ _____ _____    ______ ____
ROOT
ATOM      1  N   UNL     1       3.074   5.882  19.768  0.00  0.00    +0.000 N 
ATOM      2  H   UNL     1       3.846   5.842  20.428  0.00  0.00    +0.000 HD
ENDROOT
BRANCH   1   7
ATOM      3  C   UNL     1       1.043   8.960  20.242  0.00  0.00    +0.000 A 
ATOM      4  C   UNL     1       1.069   9.471  18.938  0.00  0.00    +0.000 A 
ATOM      5  C   UNL     1       1.813   8.839  17.938  0.00  0.00    +0.000 A 
ATOM      6  C   UNL     1       2.509   7.666  18.223  0.00  0.00    +0.000 A 
ATOM      7  C   UNL     1       2.444   7.123  19.502  0.00  0.00    +0.000 A 
ATOM      8  C   UNL     1       1.735   7.772  20.513  0.00  0.00    +0.000 A 
BRANCH   3  14
ATOM      9  O   UNL     1       1.219  11.830  21.082  0.00  0.00    +0.000 OA
ATOM     10  C   UNL     1       0.545  10.977  21.636  0.00  0.00    +0.000 C 
ATOM     11  O   UNL     1      -0.222  11.254  22.740  0.00  0.00    +0.000 OA
ATOM     12  C   UNL     1      -0.700  10.015  23.263  0.00  0.00    +0.000 C 
ATOM     13  C   UNL     1      -0.616   9.047  22.112  0.00  0.00    +0.000 C 
ATOM     14  N   UNL     1       0.374   9.650  21.276  0.00  0.00    +0.000 N 
ENDBRANCH   3  14
ENDBRANCH   1   7
BRANCH   1  15
ATOM     15  S   UNL     1       2.998   4.619  18.669  0.00  0.00    +0.000 S 
ATOM     16  O   UNL     1       3.126   3.401  19.439  0.00  0.00    +0.000 OA
ATOM     17  O   UNL     1       1.883   4.827  17.769  0.00  0.00    +0.000 OA
BRANCH  15  18
ATOM     18  C   UNL     1       4.500   4.799  17.725  0.00  0.00    +0.000 A 
ATOM     19  C   UNL     1       4.709   3.990  16.603  0.00  0.00    +0.000 A 
ATOM     20  C   UNL     1       5.829   4.200  15.799  0.00  0.00    +0.000 A 
ATOM     21  C   UNL     1       6.727   5.226  16.105  0.00  0.00    +0.000 A 
ATOM     22  C   UNL     1       6.517   6.055  17.218  0.00  0.00    +0.000 A 
ATOM     23  C   UNL     1       5.396   5.827  18.035  0.00  0.00    +0.000 A 
BRANCH  22  24
ATOM     24  C   UNL     1       7.452   7.199  17.533  0.00  0.00    +0.000 C 
ATOM     25  F   UNL     1       6.808   8.365  17.817  0.00  0.00    +0.000 F 
ATOM     26  F   UNL     1       8.250   6.941  18.603  0.00  0.00    +0.000 F 
ATOM     27  F   UNL     1       8.286   7.477  16.494  0.00  0.00    +0.000 F 
ENDBRANCH  22  24
ENDBRANCH  15  18
ENDBRANCH   1  15
TORSDOF 5
ENDMDL
MODEL 7
REMARK VINA RESULT:      -8.2      4.703      8.916
REMARK  Name = 
REMARK  5 active torsions:
REMARK  status: ('A' for Active; 'I' for Inactive)
REMARK    1  A    between atoms: N_6  and  C_7
REMARK    2  A    between atoms: C_11  and  N_12
REMARK    3  A    between atoms: N_12  and  S_13
REMARK    4  A    between atoms: S_13  and  C_16
REMARK    5  A    between atoms: C_20  and  C_21
REMARK                            x       y       z     vdW  Elec       q    Type
REMARK                         _______ _______ _______ _____ _____    ______ ____
ROOT
ATOM      1  N   UNL     1       2.757   5.909  20.171  0.00  0.00    +0.000 N 
ATOM      2  H   UNL     1       3.295   5.862  21.033  0.00  0.00    +0.000 HD
ENDROOT
BRANCH   1   7
ATOM      3  C   UNL     1       1.050   9.212  20.100  0.00  0.00    +0.000 A 
ATOM      4  C   UNL     1       1.224   9.546  18.751  0.00  0.00    +0.000 A 
ATOM      5  C   UNL     1       1.963   8.719  17.901  0.00  0.00    +0.000 A 
ATOM      6  C   UNL     1       2.504   7.529  18.381  0.00  0.00    +0.000 A 
ATOM      7  C   UNL     1       2.289   7.163  19.706  0.00  0.00    +0.000 A 
ATOM      8  C   UNL     1       1.586   8.004  20.568  0.00  0.00    +0.000 A 
BRANCH   3  14
ATOM      9  O   UNL     1       1.347   9.564  23.060  0.00  0.00    +0.000 OA
ATOM     10  C   UNL     1       0.548  10.163  22.359  0.00  0.00    +0.000 C 
ATOM     11  O   UNL     1      -0.328  11.086  22.873  0.00  0.00    +0.000 OA
ATOM     12  C   UNL     1      -1.254  11.431  21.844  0.00  0.00    +0.000 C 
ATOM     13  C   UNL     1      -0.559  11.071  20.557  0.00  0.00    +0.000 C 
ATOM     14  N   UNL     1       0.390  10.092  20.984  0.00  0.00    +0.000 N 
ENDBRANCH   3  14
ENDBRANCH   1   7
BRANCH   1  15
ATOM     15  S   UNL     1       2.962   4.619  19.122  0.00  0.00    +0.000 S 
ATOM     16  O   UNL     1       3.088   3.438  19.950  0.00  0.00    +0.000 OA
ATOM     17  O   UNL     1       1.977   4.694  18.064  0.00  0.00    +0.000 OA
BRANCH  15  18
ATOM     18  C   UNL     1       4.563   4.921  18.398  0.00  0.00    +0.000 A 
ATOM     19  C   UNL     1       5.645   5.237  19.228  0.00  0.00    +0.000 A 
ATOM     20  C   UNL     1       6.921   5.366  18.679  0.00  0.00    +0.000 A 
ATOM     21  C   UNL     1       7.118   5.165  17.310  0.00  0.00    +0.000 A 
ATOM     22  C   UNL     1       6.041   4.830  16.473  0.00  0.00    +0.000 A 
ATOM     23  C   UNL     1       4.755   4.718  17.028  0.00  0.00    +0.000 A 
BRANCH  22  24
ATOM     24  C   UNL     1       6.247   4.560  15.001  0.00  0.00    +0.000 C 
ATOM     25  F   UNL     1       6.210   3.237  14.681  0.00  0.00    +0.000 F 
ATOM     26  F   UNL     1       5.307   5.161  14.224  0.00  0.00    +0.000 F 
ATOM     27  F   UNL     1       7.452   5.015  14.561  0.00  0.00    +0.000 F 
ENDBRANCH  22  24
ENDBRANCH  15  18
ENDBRANCH   1  15
TORSDOF 5
ENDMDL
MODEL 8
REMARK VINA RESULT:      -8.2      4.739      8.910
REMARK  Name = 
REMARK  5 active torsions:
REMARK  status: ('A' for Active; 'I' for Inactive)
REMARK    1  A    between atoms: N_6  and  C_7
REMARK    2  A    between atoms: C_11  and  N_12
REMARK    3  A    between atoms: N_12  and  S_13
REMARK    4  A    between atoms: S_13  and  C_16
REMARK    5  A    between atoms: C_20  and  C_21
REMARK                            x       y       z     vdW  Elec       q    Type
REMARK                         _______ _______ _______ _____ _____    ______ ____
ROOT
ATOM      1  N   UNL     1       2.933   5.533  20.043  0.00  0.00    +0.000 N 
ATOM      2  H   UNL     1       3.507   5.418  20.875  0.00  0.00    +0.000 HD
ENDROOT
BRANCH   1   7
ATOM      3  C   UNL     1       1.157   8.792  20.267  0.00  0.00    +0.000 A 
ATOM      4  C   UNL     1       1.361   9.270  18.966  0.00  0.00    +0.000 A 
ATOM      5  C   UNL     1       2.141   8.551  18.056  0.00  0.00    +0.000 A 
ATOM      6  C   UNL     1       2.694   7.327  18.425  0.00  0.00    +0.000 A 
ATOM      7  C   UNL     1       2.451   6.819  19.698  0.00  0.00    +0.000 A 
ATOM      8  C   UNL     1       1.705   7.552  20.622  0.00  0.00    +0.000 A 
BRANCH   3  14
ATOM      9  O   UNL     1       0.972  11.764  20.595  0.00  0.00    +0.000 OA
ATOM     10  C   UNL     1       0.455  10.943  21.335  0.00  0.00    +0.000 C 
ATOM     11  O   UNL     1      -0.284  11.310  22.432  0.00  0.00    +0.000 OA
ATOM     12  C   UNL     1      -0.554  10.132  23.192  0.00  0.00    +0.000 C 
ATOM     13  C   UNL     1      -0.395   8.994  22.217  0.00  0.00    +0.000 C 
ATOM     14  N   UNL     1       0.453   9.562  21.218  0.00  0.00    +0.000 N 
ENDBRANCH   3  14
ENDBRANCH   1   7
BRANCH   1  15
ATOM     15  S   UNL     1       3.086   4.328  18.889  0.00  0.00    +0.000 S 
ATOM     16  O   UNL     1       3.217   3.083  19.616  0.00  0.00    +0.000 OA
ATOM     17  O   UNL     1       2.071   4.501  17.871  0.00  0.00    +0.000 OA
BRANCH  15  18
ATOM     18  C   UNL     1       4.669   4.665  18.143  0.00  0.00    +0.000 A 
ATOM     19  C   UNL     1       5.762   4.978  18.959  0.00  0.00    +0.000 A 
ATOM     20  C   UNL     1       7.026   5.135  18.390  0.00  0.00    +0.000 A 
ATOM     21  C   UNL     1       7.201   4.964  17.014  0.00  0.00    +0.000 A 
ATOM     22  C   UNL     1       6.113   4.632  16.190  0.00  0.00    +0.000 A 
ATOM     23  C   UNL     1       4.839   4.492  16.765  0.00  0.00    +0.000 A 
BRANCH  22  24
ATOM     24  C   UNL     1       6.295   4.395  14.708  0.00  0.00    +0.000 C 
ATOM     25  F   UNL     1       6.398   3.078  14.378  0.00  0.00    +0.000 F 
ATOM     26  F   UNL     1       5.265   4.889  13.970  0.00  0.00    +0.000 F 
ATOM     27  F   UNL     1       7.424   4.987  14.231  0.00  0.00    +0.000 F 
ENDBRANCH  22  24
ENDBRANCH  15  18
ENDBRANCH   1  15
TORSDOF 5
ENDMDL
MODEL 9
REMARK VINA RESULT:      -8.1      4.977      7.954
REMARK  Name = 
REMARK  5 active torsions:
REMARK  status: ('A' for Active; 'I' for Inactive)
REMARK    1  A    between atoms: N_6  and  C_7
REMARK    2  A    between atoms: C_11  and  N_12
REMARK    3  A    between atoms: N_12  and  S_13
REMARK    4  A    between atoms: S_13  and  C_16
REMARK    5  A    between atoms: C_20  and  C_21
REMARK                            x       y       z     vdW  Elec       q    Type
REMARK                         _______ _______ _______ _____ _____    ______ ____
ROOT
ATOM      1  N   UNL     1       6.216   3.980  19.099  0.00  0.00    +0.000 N 
ATOM      2  H   UNL     1       6.568   3.594  19.971  0.00  0.00    +0.000 HD
ENDROOT
BRANCH   1   7
ATOM      3  C   UNL     1       2.805   5.451  19.270  0.00  0.00    +0.000 A 
ATOM      4  C   UNL     1       2.059   4.398  18.724  0.00  0.00    +0.000 A 
ATOM      5  C   UNL     1       2.693   3.250  18.240  0.00  0.00    +0.000 A 
ATOM      6  C   UNL     1       4.077   3.127  18.331  0.00  0.00    +0.000 A 
ATOM      7  C   UNL     1       4.820   4.145  18.920  0.00  0.00    +0.000 A 
ATOM      8  C   UNL     1       4.195   5.309  19.370  0.00  0.00    +0.000 A 
BRANCH   3  14
ATOM      9  O   UNL     1       2.603   8.088  17.864  0.00  0.00    +0.000 OA
ATOM     10  C   UNL     1       2.168   7.853  18.980  0.00  0.00    +0.000 C 
ATOM     11  O   UNL     1       1.525   8.805  19.730  0.00  0.00    +0.000 OA
ATOM     12  C   UNL     1       1.343   8.278  21.044  0.00  0.00    +0.000 C 
ATOM     13  C   UNL     1       1.431   6.783  20.880  0.00  0.00    +0.000 C 
ATOM     14  N   UNL     1       2.177   6.650  19.669  0.00  0.00    +0.000 N 
ENDBRANCH   3  14
ENDBRANCH   1   7
BRANCH   1  15
ATOM     15  S   UNL     1       7.315   4.884  18.215  0.00  0.00    +0.000 S 
ATOM     16  O   UNL     1       7.501   6.123  18.941  0.00  0.00    +0.000 OA
ATOM     17  O   UNL     1       8.441   4.052  17.847  0.00  0.00    +0.000 OA
BRANCH  15  18
ATOM     18  C   UNL     1       6.422   5.283  16.724  0.00  0.00    +0.000 A 
ATOM     19  C   UNL     1       5.771   6.518  16.622  0.00  0.00    +0.000 A 
ATOM     20  C   UNL     1       5.164   6.880  15.419  0.00  0.00    +0.000 A 
ATOM     21  C   UNL     1       5.222   6.021  14.319  0.00  0.00    +0.000 A 
ATOM     22  C   UNL     1       5.889   4.788  14.407  0.00  0.00    +0.000 A 
ATOM     23  C   UNL     1       6.484   4.420  15.625  0.00  0.00    +0.000 A 
BRANCH  22  24
ATOM     24  C   UNL     1       6.003   3.871  13.211  0.00  0.00    +0.000 C 
ATOM     25  F   UNL     1       6.898   4.302  12.280  0.00  0.00    +0.000 F 
ATOM     26  F   UNL     1       6.393   2.614  13.554  0.00  0.00    +0.000 F 
ATOM     27  F   UNL     1       4.818   3.736  12.556  0.00  0.00    +0.000 F 
ENDBRANCH  22  24
ENDBRANCH  15  18
ENDBRANCH   1  15
TORSDOF 5
ENDMDL
