MODEL 1
REMARK VINA RESULT:      -8.4      0.000      0.000
REMARK  Name = 
REMARK  7 active torsions:
REMARK  status: ('A' for Active; 'I' for Inactive)
REMARK    1  A    between atoms: C_2  and  C_4
REMARK    2  A    between atoms: C_4  and  C_5
REMARK    3  A    between atoms: C_8  and  N_9
REMARK    4  A    between atoms: C_10  and  C_12
REMARK    5  A    between atoms: C_16  and  S_17
REMARK    6  A    between atoms: S_17  and  N_20
REMARK    7  A    between atoms: N_20  and  C_21
REMARK                            x       y       z     vdW  Elec       q    Type
REMARK                         _______ _______ _______ _____ _____    ______ ____
ROOT
ATOM      1  C   UNL     1       7.987   7.531  18.141  0.00  0.00    +0.000 A 
ATOM      2  C   UNL     1       8.329   6.705  19.223  0.00  0.00    +0.000 A 
ATOM      3  C   UNL     1       8.037   5.337  19.192  0.00  0.00    +0.000 A 
ATOM      4  C   UNL     1       7.376   4.793  18.093  0.00  0.00    +0.000 A 
ATOM      5  C   UNL     1       7.005   5.627  17.032  0.00  0.00    +0.000 A 
ATOM      6  C   UNL     1       7.329   6.989  17.036  0.00  0.00    +0.000 A 
ENDROOT
BRANCH   1   8
ATOM      7  N   UNL     1       9.135   9.376  19.247  0.00  0.00    +0.000 N 
ATOM      8  C   UNL     1       8.250   8.992  18.253  0.00  0.00    +0.000 C 
ATOM      9  O   UNL     1       7.663   9.729  17.469  0.00  0.00    +0.000 OA
ATOM     10  H   UNL     1       9.442   8.670  19.905  0.00  0.00    +0.000 HD
BRANCH   7  14
ATOM     11  C   UNL     1      10.609  13.261  20.073  0.00  0.00    +0.000 A 
ATOM     12  C   UNL     1      10.824  12.690  18.815  0.00  0.00    +0.000 A 
ATOM     13  C   UNL     1      10.341  11.411  18.523  0.00  0.00    +0.000 A 
ATOM     14  C   UNL     1       9.631  10.679  19.474  0.00  0.00    +0.000 A 
ATOM     15  C   UNL     1       9.409  11.253  20.733  0.00  0.00    +0.000 A 
ATOM     16  C   UNL     1       9.890  12.535  21.029  0.00  0.00    +0.000 A 
BRANCH  11  17
ATOM     17  C   UNL     1      11.121  14.651  20.370  0.00  0.00    +0.000 C 
BRANCH  17  19
ATOM     18  N   UNL     1      11.913  16.254  18.653  0.00  0.00    +0.000 N 
ATOM     19  C   UNL     1      10.855  15.711  19.316  0.00  0.00    +0.000 C 
ATOM     20  O   UNL     1       9.715  16.089  19.051  0.00  0.00    +0.000 OA
ATOM     21  H   UNL     1      11.720  16.993  17.990  0.00  0.00    +0.000 HD
ATOM     22  H   UNL     1      12.874  16.084  18.918  0.00  0.00    +0.000 HD
ENDBRANCH  17  19
ENDBRANCH  11  17
ENDBRANCH   7  14
ENDBRANCH   1   8
BRANCH   5  23
ATOM     23  S   UNL     1       6.124   4.962  15.635  0.00  0.00    +0.000 S 
ATOM     24  O   UNL     1       6.479   5.763  14.481  0.00  0.00    +0.000 OA
ATOM     25  O   UNL     1       6.318   3.528  15.644  0.00  0.00    +0.000 OA
BRANCH  23  26
ATOM     26  N   UNL     1       4.511   5.223  16.025  0.00  0.00    +0.000 N 
ATOM     27  H   UNL     1       3.888   5.268  15.222  0.00  0.00    +0.000 HD
BRANCH  26  28
ATOM     28  C   UNL     1       3.986   4.812  17.275  0.00  0.00    +0.000 A 
ATOM     29  C   UNL     1       3.744   5.757  18.272  0.00  0.00    +0.000 A 
ATOM     30  C   UNL     1       3.182   5.361  19.488  0.00  0.00    +0.000 A 
ATOM     31  C   UNL     1       2.890   4.016  19.708  0.00  0.00    +0.000 A 
ATOM     32 BR   UNL     1       2.117   3.478  21.346  0.00  0.00    +0.000 Br
ATOM     33  C   UNL     1       3.155   3.063  18.723  0.00  0.00    +0.000 A 
ATOM     34  C   UNL     1       3.699   3.463  17.500  0.00  0.00    +0.000 A 
ENDBRANCH  26  28
ENDBRANCH  23  26
ENDBRANCH   5  23
TORSDOF 7
ENDMDL
MODEL 2
REMARK VINA RESULT:      -8.2      1.061      1.115
REMARK  Name = 
REMARK  7 active torsions:
REMARK  status: ('A' for Active; 'I' for Inactive)
REMARK    1  A    between atoms: C_2  and  C_4
REMARK    2  A    between atoms: C_4  and  C_5
REMARK    3  A    between atoms: C_8  and  N_9
REMARK    4  A    between atoms: C_10  and  C_12
REMARK    5  A    between atoms: C_16  and  S_17
REMARK    6  A    between atoms: S_17  and  N_20
REMARK    7  A    between atoms: N_20  and  C_21
REMARK                            x       y       z     vdW  Elec       q    Type
REMARK                         _______ _______ _______ _____ _____    ______ ____
ROOT
ATOM      1  C   UNL     1       8.062   7.652  18.160  0.00  0.00    +0.000 A 
ATOM      2  C   UNL     1       8.454   6.831  19.229  0.00  0.00    +0.000 A 
ATOM      3  C   UNL     1       8.168   5.462  19.216  0.00  0.00    +0.000 A 
ATOM      4  C   UNL     1       7.465   4.910  18.148  0.00  0.00    +0.000 A 
ATOM      5  C   UNL     1       7.044   5.738  17.100  0.00  0.00    +0.000 A 
ATOM      6  C   UNL     1       7.361   7.101  17.086  0.00  0.00    +0.000 A 
ENDROOT
BRANCH   1   8
ATOM      7  N   UNL     1       9.264   9.505  19.193  0.00  0.00    +0.000 N 
ATOM      8  C   UNL     1       8.322   9.114  18.256  0.00  0.00    +0.000 C 
ATOM      9  O   UNL     1       7.683   9.846  17.508  0.00  0.00    +0.000 OA
ATOM     10  H   UNL     1       9.616   8.801  19.831  0.00  0.00    +0.000 HD
BRANCH   7  14
ATOM     11  C   UNL     1      10.753  13.402  19.926  0.00  0.00    +0.000 A 
ATOM     12  C   UNL     1      10.943  12.811  18.673  0.00  0.00    +0.000 A 
ATOM     13  C   UNL     1      10.453  11.528  18.412  0.00  0.00    +0.000 A 
ATOM     14  C   UNL     1       9.764  10.812  19.388  0.00  0.00    +0.000 A 
ATOM     15  C   UNL     1       9.569  11.405  20.643  0.00  0.00    +0.000 A 
ATOM     16  C   UNL     1      10.055  12.691  20.908  0.00  0.00    +0.000 A 
BRANCH  11  17
ATOM     17  C   UNL     1      11.272  14.796  20.190  0.00  0.00    +0.000 C 
BRANCH  17  19
ATOM     18  N   UNL     1       9.673  16.672  19.923  0.00  0.00    +0.000 N 
ATOM     19  C   UNL     1      10.659  15.915  19.366  0.00  0.00    +0.000 C 
ATOM     20  O   UNL     1      11.029  16.152  18.217  0.00  0.00    +0.000 OA
ATOM     21  H   UNL     1       9.244  17.380  19.342  0.00  0.00    +0.000 HD
ATOM     22  H   UNL     1       9.237  16.442  20.806  0.00  0.00    +0.000 HD
ENDBRANCH  17  19
ENDBRANCH  11  17
ENDBRANCH   7  14
ENDBRANCH   1   8
BRANCH   5  23
ATOM     23  S   UNL     1       6.109   5.063  15.745  0.00  0.00    +0.000 S 
ATOM     24  O   UNL     1       5.022   5.980  15.471  0.00  0.00    +0.000 OA
ATOM     25  O   UNL     1       7.052   4.685  14.714  0.00  0.00    +0.000 OA
BRANCH  23  26
ATOM     26  N   UNL     1       5.490   3.630  16.367  0.00  0.00    +0.000 N 
ATOM     27  H   UNL     1       6.159   2.864  16.401  0.00  0.00    +0.000 HD
BRANCH  26  28
ATOM     28  C   UNL     1       4.415   3.639  17.290  0.00  0.00    +0.000 A 
ATOM     29  C   UNL     1       4.672   3.541  18.658  0.00  0.00    +0.000 A 
ATOM     30  C   UNL     1       3.617   3.596  19.572  0.00  0.00    +0.000 A 
ATOM     31  C   UNL     1       2.308   3.722  19.109  0.00  0.00    +0.000 A 
ATOM     32 BR   UNL     1       0.880   3.811  20.343  0.00  0.00    +0.000 Br
ATOM     33  C   UNL     1       2.044   3.793  17.740  0.00  0.00    +0.000 A 
ATOM     34  C   UNL     1       3.101   3.757  16.828  0.00  0.00    +0.000 A 
ENDBRANCH  26  28
ENDBRANCH  23  26
ENDBRANCH   5  23
TORSDOF 7
ENDMDL
MODEL 3
REMARK VINA RESULT:      -8.2      0.607      1.374
REMARK  Name = 
REMARK  7 active torsions:
REMARK  status: ('A' for Active; 'I' for Inactive)
REMARK    1  A    between atoms: C_2  and  C_4
REMARK    2  A    between atoms: C_4  and  C_5
REMARK    3  A    between atoms: C_8  and  N_9
REMARK    4  A    between atoms: C_10  and  C_12
REMARK    5  A    between atoms: C_16  and  S_17
REMARK    6  A    between atoms: S_17  and  N_20
REMARK    7  A    between atoms: N_20  and  C_21
REMARK                            x       y       z     vdW  Elec       q    Type
REMARK                         _______ _______ _______ _____ _____    ______ ____
ROOT
ATOM      1  C   UNL     1       8.027   7.567  18.191  0.00  0.00    +0.000 A 
ATOM      2  C   UNL     1       8.423   6.726  19.244  0.00  0.00    +0.000 A 
ATOM      3  C   UNL     1       8.117   5.362  19.217  0.00  0.00    +0.000 A 
ATOM      4  C   UNL     1       7.390   4.834  18.153  0.00  0.00    +0.000 A 
ATOM      5  C   UNL     1       6.965   5.682  17.122  0.00  0.00    +0.000 A 
ATOM      6  C   UNL     1       7.302   7.041  17.121  0.00  0.00    +0.000 A 
ENDROOT
BRANCH   1   8
ATOM      7  N   UNL     1       9.189   9.398  19.305  0.00  0.00    +0.000 N 
ATOM      8  C   UNL     1       8.310   9.024  18.302  0.00  0.00    +0.000 C 
ATOM      9  O   UNL     1       7.743   9.766  17.508  0.00  0.00    +0.000 OA
ATOM     10  H   UNL     1       9.478   8.690  19.968  0.00  0.00    +0.000 HD
BRANCH   7  14
ATOM     11  C   UNL     1      10.741  13.303  19.841  0.00  0.00    +0.000 A 
ATOM     12  C   UNL     1      10.008  12.701  20.868  0.00  0.00    +0.000 A 
ATOM     13  C   UNL     1       9.493  11.410  20.711  0.00  0.00    +0.000 A 
ATOM     14  C   UNL     1       9.701  10.695  19.533  0.00  0.00    +0.000 A 
ATOM     15  C   UNL     1      10.440  11.296  18.505  0.00  0.00    +0.000 A 
ATOM     16  C   UNL     1      10.960  12.587  18.660  0.00  0.00    +0.000 A 
BRANCH  11  17
ATOM     17  C   UNL     1      11.306  14.691  20.031  0.00  0.00    +0.000 C 
BRANCH  17  19
ATOM     18  N   UNL     1       9.717  16.140  18.797  0.00  0.00    +0.000 N 
ATOM     19  C   UNL     1      10.314  15.841  19.983  0.00  0.00    +0.000 C 
ATOM     20  O   UNL     1      10.041  16.502  20.984  0.00  0.00    +0.000 OA
ATOM     21  H   UNL     1       9.097  16.939  18.774  0.00  0.00    +0.000 HD
ATOM     22  H   UNL     1       9.999  15.723  17.919  0.00  0.00    +0.000 HD
ENDBRANCH  17  19
ENDBRANCH  11  17
ENDBRANCH   7  14
ENDBRANCH   1   8
BRANCH   5  23
ATOM     23  S   UNL     1       6.001   5.039  15.772  0.00  0.00    +0.000 S 
ATOM     24  O   UNL     1       6.390   5.764  14.580  0.00  0.00    +0.000 OA
ATOM     25  O   UNL     1       6.079   3.595  15.834  0.00  0.00    +0.000 OA
BRANCH  23  26
ATOM     26  N   UNL     1       4.424   5.445  16.185  0.00  0.00    +0.000 N 
ATOM     27  H   UNL     1       3.820   5.644  15.391  0.00  0.00    +0.000 HD
BRANCH  26  28
ATOM     28  C   UNL     1       3.838   4.973  17.386  0.00  0.00    +0.000 A 
ATOM     29  C   UNL     1       3.272   3.699  17.430  0.00  0.00    +0.000 A 
ATOM     30  C   UNL     1       2.736   3.215  18.626  0.00  0.00    +0.000 A 
ATOM     31  C   UNL     1       2.747   4.020  19.764  0.00  0.00    +0.000 A 
ATOM     32 BR   UNL     1       2.035   3.362  21.387  0.00  0.00    +0.000 Br
ATOM     33  C   UNL     1       3.288   5.305  19.717  0.00  0.00    +0.000 A 
ATOM     34  C   UNL     1       3.841   5.782  18.527  0.00  0.00    +0.000 A 
ENDBRANCH  26  28
ENDBRANCH  23  26
ENDBRANCH   5  23
TORSDOF 7
ENDMDL
MODEL 4
REMARK VINA RESULT:      -8.2      6.533      9.903
REMARK  Name = 
REMARK  7 active torsions:
REMARK  status: ('A' for Active; 'I' for Inactive)
REMARK    1  A    between atoms: C_2  and  C_4
REMARK    2  A    between atoms: C_4  and  C_5
REMARK    3  A    between atoms: C_8  and  N_9
REMARK    4  A    between atoms: C_10  and  C_12
REMARK    5  A    between atoms: C_16  and  S_17
REMARK    6  A    between atoms: S_17  and  N_20
REMARK    7  A    between atoms: N_20  and  C_21
REMARK                            x       y       z     vdW  Elec       q    Type
REMARK                         _______ _______ _______ _____ _____    ______ ____
ROOT
ATOM      1  C   UNL     1       1.445   8.779  19.381  0.00  0.00    +0.000 A 
ATOM      2  C   UNL     1       1.429   8.227  20.671  0.00  0.00    +0.000 A 
ATOM      3  C   UNL     1       0.627   8.785  21.673  0.00  0.00    +0.000 A 
ATOM      4  C   UNL     1      -0.141   9.914  21.399  0.00  0.00    +0.000 A 
ATOM      5  C   UNL     1      -0.094  10.484  20.120  0.00  0.00    +0.000 A 
ATOM      6  C   UNL     1       0.674   9.908  19.101  0.00  0.00    +0.000 A 
ENDROOT
BRANCH   1   8
ATOM      7  N   UNL     1       3.056   7.057  18.761  0.00  0.00    +0.000 N 
ATOM      8  C   UNL     1       2.372   8.197  18.372  0.00  0.00    +0.000 C 
ATOM      9  O   UNL     1       2.456   8.771  17.292  0.00  0.00    +0.000 OA
ATOM     10  H   UNL     1       2.985   6.771  19.730  0.00  0.00    +0.000 HD
BRANCH   7  14
ATOM     11  C   UNL     1       5.450   4.589  16.286  0.00  0.00    +0.000 A 
ATOM     12  C   UNL     1       5.918   5.849  16.670  0.00  0.00    +0.000 A 
ATOM     13  C   UNL     1       5.144   6.675  17.491  0.00  0.00    +0.000 A 
ATOM     14  C   UNL     1       3.895   6.262  17.948  0.00  0.00    +0.000 A 
ATOM     15  C   UNL     1       3.426   4.997  17.568  0.00  0.00    +0.000 A 
ATOM     16  C   UNL     1       4.199   4.165  16.748  0.00  0.00    +0.000 A 
BRANCH  11  17
ATOM     17  C   UNL     1       6.304   3.700  15.413  0.00  0.00    +0.000 C 
BRANCH  17  19
ATOM     18  N   UNL     1       6.004   3.465  12.964  0.00  0.00    +0.000 N 
ATOM     19  C   UNL     1       6.546   4.175  13.991  0.00  0.00    +0.000 C 
ATOM     20  O   UNL     1       7.215   5.178  13.749  0.00  0.00    +0.000 OA
ATOM     21  H   UNL     1       6.217   3.769  12.022  0.00  0.00    +0.000 HD
ATOM     22  H   UNL     1       5.562   2.565  13.091  0.00  0.00    +0.000 HD
ENDBRANCH  17  19
ENDBRANCH  11  17
ENDBRANCH   7  14
ENDBRANCH   1   8
BRANCH   5  23
ATOM     23  S   UNL     1      -1.035  11.950  19.758  0.00  0.00    +0.000 S 
ATOM     24  O   UNL     1      -1.139  12.710  20.987  0.00  0.00    +0.000 OA
ATOM     25  O   UNL     1      -0.481  12.534  18.556  0.00  0.00    +0.000 OA
BRANCH  23  26
ATOM     26  N   UNL     1      -2.549  11.354  19.339  0.00  0.00    +0.000 N 
ATOM     27  H   UNL     1      -3.301  11.642  19.960  0.00  0.00    +0.000 HD
BRANCH  26  28
ATOM     28  C   UNL     1      -2.861  11.032  17.995  0.00  0.00    +0.000 A 
ATOM     29  C   UNL     1      -2.121  10.059  17.322  0.00  0.00    +0.000 A 
ATOM     30  C   UNL     1      -2.457   9.707  16.013  0.00  0.00    +0.000 A 
ATOM     31  C   UNL     1      -3.516  10.352  15.375  0.00  0.00    +0.000 A 
ATOM     32 BR   UNL     1      -3.983   9.869  13.608  0.00  0.00    +0.000 Br
ATOM     33  C   UNL     1      -4.241  11.345  16.034  0.00  0.00    +0.000 A 
ATOM     34  C   UNL     1      -3.917  11.682  17.350  0.00  0.00    +0.000 A 
ENDBRANCH  26  28
ENDBRANCH  23  26
ENDBRANCH   5  23
TORSDOF 7
ENDMDL
MODEL 5
REMARK VINA RESULT:      -8.2      1.196      1.425
REMARK  Name = 
REMARK  7 active torsions:
REMARK  status: ('A' for Active; 'I' for Inactive)
REMARK    1  A    between atoms: C_2  and  C_4
REMARK    2  A    between atoms: C_4  and  C_5
REMARK    3  A    between atoms: C_8  and  N_9
REMARK    4  A    between atoms: C_10  and  C_12
REMARK    5  A    between atoms: C_16  and  S_17
REMARK    6  A    between atoms: S_17  and  N_20
REMARK    7  A    between atoms: N_20  and  C_21
REMARK                            x       y       z     vdW  Elec       q    Type
REMARK                         _______ _______ _______ _____ _____    ______ ____
ROOT
ATOM      1  C   UNL     1       7.938   7.633  18.130  0.00  0.00    +0.000 A 
ATOM      2  C   UNL     1       8.358   6.789  19.171  0.00  0.00    +0.000 A 
ATOM      3  C   UNL     1       8.012   5.434  19.170  0.00  0.00    +0.000 A 
ATOM      4  C   UNL     1       7.221   4.920  18.144  0.00  0.00    +0.000 A 
ATOM      5  C   UNL     1       6.774   5.773  17.127  0.00  0.00    +0.000 A 
ATOM      6  C   UNL     1       7.149   7.121  17.099  0.00  0.00    +0.000 A 
ENDROOT
BRANCH   1   8
ATOM      7  N   UNL     1       9.196   9.439  19.180  0.00  0.00    +0.000 N 
ATOM      8  C   UNL     1       8.267   9.082  18.216  0.00  0.00    +0.000 C 
ATOM      9  O   UNL     1       7.691   9.834  17.438  0.00  0.00    +0.000 OA
ATOM     10  H   UNL     1       9.491   8.728  19.838  0.00  0.00    +0.000 HD
BRANCH   7  14
ATOM     11  C   UNL     1      10.860  13.265  19.913  0.00  0.00    +0.000 A 
ATOM     12  C   UNL     1      11.005  12.675  18.654  0.00  0.00    +0.000 A 
ATOM     13  C   UNL     1      10.458  11.415  18.392  0.00  0.00    +0.000 A 
ATOM     14  C   UNL     1       9.754  10.722  19.375  0.00  0.00    +0.000 A 
ATOM     15  C   UNL     1       9.603  11.315  20.637  0.00  0.00    +0.000 A 
ATOM     16  C   UNL     1      10.148  12.578  20.902  0.00  0.00    +0.000 A 
BRANCH  11  17
ATOM     17  C   UNL     1      11.442  14.634  20.177  0.00  0.00    +0.000 C 
BRANCH  17  19
ATOM     18  N   UNL     1       9.965  16.071  18.799  0.00  0.00    +0.000 N 
ATOM     19  C   UNL     1      10.497  15.813  20.026  0.00  0.00    +0.000 C 
ATOM     20  O   UNL     1      10.204  16.535  20.977  0.00  0.00    +0.000 OA
ATOM     21  H   UNL     1       9.376  16.888  18.707  0.00  0.00    +0.000 HD
ATOM     22  H   UNL     1      10.269  15.599  17.958  0.00  0.00    +0.000 HD
ENDBRANCH  17  19
ENDBRANCH  11  17
ENDBRANCH   7  14
ENDBRANCH   1   8
BRANCH   5  23
ATOM     23  S   UNL     1       5.730   5.148  15.828  0.00  0.00    +0.000 S 
ATOM     24  O   UNL     1       5.351   6.275  15.000  0.00  0.00    +0.000 OA
ATOM     25  O   UNL     1       6.386   3.988  15.266  0.00  0.00    +0.000 OA
BRANCH  23  26
ATOM     26  N   UNL     1       4.379   4.577  16.648  0.00  0.00    +0.000 N 
ATOM     27  H   UNL     1       4.328   3.563  16.717  0.00  0.00    +0.000 HD
BRANCH  26  28
ATOM     28  C   UNL     1       3.741   5.361  17.641  0.00  0.00    +0.000 A 
ATOM     29  C   UNL     1       3.404   6.688  17.369  0.00  0.00    +0.000 A 
ATOM     30  C   UNL     1       2.733   7.448  18.330  0.00  0.00    +0.000 A 
ATOM     31  C   UNL     1       2.426   6.883  19.567  0.00  0.00    +0.000 A 
ATOM     32 BR   UNL     1       1.505   7.905  20.863  0.00  0.00    +0.000 Br
ATOM     33  C   UNL     1       2.785   5.566  19.853  0.00  0.00    +0.000 A 
ATOM     34  C   UNL     1       3.439   4.800  18.885  0.00  0.00    +0.000 A 
ENDBRANCH  26  28
ENDBRANCH  23  26
ENDBRANCH   5  23
TORSDOF 7
ENDMDL
MODEL 6
REMARK VINA RESULT:      -8.1      6.604      9.959
REMARK  Name = 
REMARK  7 active torsions:
REMARK  status: ('A' for Active; 'I' for Inactive)
REMARK    1  A    between atoms: C_2  and  C_4
REMARK    2  A    between atoms: C_4  and  C_5
REMARK    3  A    between atoms: C_8  and  N_9
REMARK    4  A    between atoms: C_10  and  C_12
REMARK    5  A    between atoms: C_16  and  S_17
REMARK    6  A    between atoms: S_17  and  N_20
REMARK    7  A    between atoms: N_20  and  C_21
REMARK                            x       y       z     vdW  Elec       q    Type
REMARK                         _______ _______ _______ _____ _____    ______ ____
ROOT
ATOM      1  C   UNL     1       0.959   8.939  20.584  0.00  0.00    +0.000 A 
ATOM      2  C   UNL     1       0.458   8.893  21.894  0.00  0.00    +0.000 A 
ATOM      3  C   UNL     1      -0.162  10.013  22.457  0.00  0.00    +0.000 A 
ATOM      4  C   UNL     1      -0.261  11.194  21.724  0.00  0.00    +0.000 A 
ATOM      5  C   UNL     1       0.272  11.246  20.430  0.00  0.00    +0.000 A 
ATOM      6  C   UNL     1       0.859  10.118  19.845  0.00  0.00    +0.000 A 
ENDROOT
BRANCH   1   8
ATOM      7  N   UNL     1       2.168   7.852  18.767  0.00  0.00    +0.000 N 
ATOM      8  C   UNL     1       1.678   7.746  20.058  0.00  0.00    +0.000 C 
ATOM      9  O   UNL     1       1.772   6.776  20.801  0.00  0.00    +0.000 OA
ATOM     10  H   UNL     1       1.902   8.665  18.225  0.00  0.00    +0.000 HD
BRANCH   7  14
ATOM     11  C   UNL     1       4.709   5.124  16.754  0.00  0.00    +0.000 A 
ATOM     12  C   UNL     1       3.567   4.654  17.410  0.00  0.00    +0.000 A 
ATOM     13  C   UNL     1       2.714   5.541  18.075  0.00  0.00    +0.000 A 
ATOM     14  C   UNL     1       2.978   6.908  18.096  0.00  0.00    +0.000 A 
ATOM     15  C   UNL     1       4.120   7.381  17.434  0.00  0.00    +0.000 A 
ATOM     16  C   UNL     1       4.975   6.497  16.765  0.00  0.00    +0.000 A 
BRANCH  11  17
ATOM     17  C   UNL     1       5.612   4.157  16.025  0.00  0.00    +0.000 C 
BRANCH  17  19
ATOM     18  N   UNL     1       7.489   5.163  14.757  0.00  0.00    +0.000 N 
ATOM     19  C   UNL     1       7.073   4.554  15.902  0.00  0.00    +0.000 C 
ATOM     20  O   UNL     1       7.881   4.341  16.804  0.00  0.00    +0.000 OA
ATOM     21  H   UNL     1       8.475   5.377  14.673  0.00  0.00    +0.000 HD
ATOM     22  H   UNL     1       6.907   5.244  13.934  0.00  0.00    +0.000 HD
ENDBRANCH  17  19
ENDBRANCH  11  17
ENDBRANCH   7  14
ENDBRANCH   1   8
BRANCH   5  23
ATOM     23  S   UNL     1       0.194  12.755  19.489  0.00  0.00    +0.000 S 
ATOM     24  O   UNL     1      -0.557  13.714  20.274  0.00  0.00    +0.000 OA
ATOM     25  O   UNL     1       1.533  13.046  19.026  0.00  0.00    +0.000 OA
BRANCH  23  26
ATOM     26  N   UNL     1      -0.694  12.326  18.129  0.00  0.00    +0.000 N 
ATOM     27  H   UNL     1      -0.137  11.949  17.366  0.00  0.00    +0.000 HD
BRANCH  26  28
ATOM     28  C   UNL     1      -2.054  11.943  18.235  0.00  0.00    +0.000 A 
ATOM     29  C   UNL     1      -2.830  12.417  19.293  0.00  0.00    +0.000 A 
ATOM     30  C   UNL     1      -4.183  12.078  19.373  0.00  0.00    +0.000 A 
ATOM     31  C   UNL     1      -4.744  11.243  18.408  0.00  0.00    +0.000 A 
ATOM     32 BR   UNL     1      -6.577  10.792  18.505  0.00  0.00    +0.000 Br
ATOM     33  C   UNL     1      -3.964  10.743  17.364  0.00  0.00    +0.000 A 
ATOM     34  C   UNL     1      -2.617  11.099  17.273  0.00  0.00    +0.000 A 
ENDBRANCH  26  28
ENDBRANCH  23  26
ENDBRANCH   5  23
TORSDOF 7
ENDMDL
MODEL 7
REMARK VINA RESULT:      -8.1      7.895     10.559
REMARK  Name = 
REMARK  7 active torsions:
REMARK  status: ('A' for Active; 'I' for Inactive)
REMARK    1  A    between atoms: C_2  and  C_4
REMARK    2  A    between atoms: C_4  and  C_5
REMARK    3  A    between atoms: C_8  and  N_9
REMARK    4  A    between atoms: C_10  and  C_12
REMARK    5  A    between atoms: C_16  and  S_17
REMARK    6  A    between atoms: S_17  and  N_20
REMARK    7  A    between atoms: N_20  and  C_21
REMARK                            x       y       z     vdW  Elec       q    Type
REMARK                         _______ _______ _______ _____ _____    ______ ____
ROOT
ATOM      1  C   UNL     1       0.318  10.278  18.812  0.00  0.00    +0.000 A 
ATOM      2  C   UNL     1       0.754  11.593  19.034  0.00  0.00    +0.000 A 
ATOM      3  C   UNL     1      -0.037  12.679  18.645  0.00  0.00    +0.000 A 
ATOM      4  C   UNL     1      -1.255  12.457  18.007  0.00  0.00    +0.000 A 
ATOM      5  C   UNL     1      -1.670  11.144  17.755  0.00  0.00    +0.000 A 
ATOM      6  C   UNL     1      -0.903  10.051  18.176  0.00  0.00    +0.000 A 
ENDROOT
BRANCH   1   8
ATOM      7  N   UNL     1       1.722   8.408  18.119  0.00  0.00    +0.000 N 
ATOM      8  C   UNL     1       1.230   9.158  19.174  0.00  0.00    +0.000 C 
ATOM      9  O   UNL     1       1.463   8.989  20.366  0.00  0.00    +0.000 OA
ATOM     10  H   UNL     1       1.340   8.582  17.197  0.00  0.00    +0.000 HD
BRANCH   7  14
ATOM     11  C   UNL     1       4.714   5.414  18.293  0.00  0.00    +0.000 A 
ATOM     12  C   UNL     1       3.564   5.293  19.080  0.00  0.00    +0.000 A 
ATOM     13  C   UNL     1       2.564   6.269  19.031  0.00  0.00    +0.000 A 
ATOM     14  C   UNL     1       2.686   7.379  18.197  0.00  0.00    +0.000 A 
ATOM     15  C   UNL     1       3.836   7.498  17.404  0.00  0.00    +0.000 A 
ATOM     16  C   UNL     1       4.839   6.522  17.448  0.00  0.00    +0.000 A 
BRANCH  11  17
ATOM     17  C   UNL     1       5.778   4.343  18.342  0.00  0.00    +0.000 C 
BRANCH  17  19
ATOM     18  N   UNL     1       7.871   5.415  19.131  0.00  0.00    +0.000 N 
ATOM     19  C   UNL     1       7.209   4.798  18.112  0.00  0.00    +0.000 C 
ATOM     20  O   UNL     1       7.779   4.624  17.036  0.00  0.00    +0.000 OA
ATOM     21  H   UNL     1       8.805   5.754  18.943  0.00  0.00    +0.000 HD
ATOM     22  H   UNL     1       7.416   5.704  19.986  0.00  0.00    +0.000 HD
ENDBRANCH  17  19
ENDBRANCH  11  17
ENDBRANCH   7  14
ENDBRANCH   1   8
BRANCH   5  23
ATOM     23  S   UNL     1      -3.204  10.836  16.905  0.00  0.00    +0.000 S 
ATOM     24  O   UNL     1      -2.923  10.869  15.484  0.00  0.00    +0.000 OA
ATOM     25  O   UNL     1      -3.817   9.681  17.524  0.00  0.00    +0.000 OA
BRANCH  23  26
ATOM     26  N   UNL     1      -4.156  12.156  17.320  0.00  0.00    +0.000 N 
ATOM     27  H   UNL     1      -4.384  12.770  16.541  0.00  0.00    +0.000 HD
BRANCH  26  28
ATOM     28  C   UNL     1      -5.039  12.101  18.427  0.00  0.00    +0.000 A 
ATOM     29  C   UNL     1      -6.360  11.694  18.244  0.00  0.00    +0.000 A 
ATOM     30  C   UNL     1      -7.218  11.595  19.341  0.00  0.00    +0.000 A 
ATOM     31  C   UNL     1      -6.756  11.930  20.613  0.00  0.00    +0.000 A 
ATOM     32 BR   UNL     1      -7.910  11.784  22.102  0.00  0.00    +0.000 Br
ATOM     33  C   UNL     1      -5.443  12.365  20.797  0.00  0.00    +0.000 A 
ATOM     34  C   UNL     1      -4.579  12.445  19.702  0.00  0.00    +0.000 A 
ENDBRANCH  26  28
ENDBRANCH  23  26
ENDBRANCH   5  23
TORSDOF 7
ENDMDL
MODEL 8
REMARK VINA RESULT:      -8.1      0.952      1.548
REMARK  Name = 
REMARK  7 active torsions:
REMARK  status: ('A' for Active; 'I' for Inactive)
REMARK    1  A    between atoms: C_2  and  C_4
REMARK    2  A    between atoms: C_4  and  C_5
REMARK    3  A    between atoms: C_8  and  N_9
REMARK    4  A    between atoms: C_10  and  C_12
REMARK    5  A    between atoms: C_16  and  S_17
REMARK    6  A    between atoms: S_17  and  N_20
REMARK    7  A    between atoms: N_20  and  C_21
REMARK                            x       y       z     vdW  Elec       q    Type
REMARK                         _______ _______ _______ _____ _____    ______ ____
ROOT
ATOM      1  C   UNL     1       8.056   7.648  18.168  0.00  0.00    +0.000 A 
ATOM      2  C   UNL     1       8.322   6.805  19.258  0.00  0.00    +0.000 A 
ATOM      3  C   UNL     1       8.012   5.442  19.195  0.00  0.00    +0.000 A 
ATOM      4  C   UNL     1       7.409   4.920  18.053  0.00  0.00    +0.000 A 
ATOM      5  C   UNL     1       7.112   5.771  16.982  0.00  0.00    +0.000 A 
ATOM      6  C   UNL     1       7.456   7.127  17.021  0.00  0.00    +0.000 A 
ENDROOT
BRANCH   1   8
ATOM      7  N   UNL     1       9.249   9.453  19.291  0.00  0.00    +0.000 N 
ATOM      8  C   UNL     1       8.334   9.103  18.313  0.00  0.00    +0.000 C 
ATOM      9  O   UNL     1       7.730   9.865  17.566  0.00  0.00    +0.000 OA
ATOM     10  H   UNL     1       9.569   8.727  19.920  0.00  0.00    +0.000 HD
BRANCH   7  14
ATOM     11  C   UNL     1      10.805  13.348  19.886  0.00  0.00    +0.000 A 
ATOM     12  C   UNL     1      10.047  12.742  20.893  0.00  0.00    +0.000 A 
ATOM     13  C   UNL     1       9.530  11.455  20.716  0.00  0.00    +0.000 A 
ATOM     14  C   UNL     1       9.761  10.746  19.539  0.00  0.00    +0.000 A 
ATOM     15  C   UNL     1      10.526  11.350  18.531  0.00  0.00    +0.000 A 
ATOM     16  C   UNL     1      11.048  12.638  18.706  0.00  0.00    +0.000 A 
BRANCH  11  17
ATOM     17  C   UNL     1      11.373  14.732  20.098  0.00  0.00    +0.000 C 
BRANCH  17  19
ATOM     18  N   UNL     1      10.121  16.530  21.258  0.00  0.00    +0.000 N 
ATOM     19  C   UNL     1      10.379  15.881  20.089  0.00  0.00    +0.000 C 
ATOM     20  O   UNL     1       9.807  16.235  19.060  0.00  0.00    +0.000 OA
ATOM     21  H   UNL     1       9.421  17.261  21.243  0.00  0.00    +0.000 HD
ATOM     22  H   UNL     1      10.456  16.202  22.154  0.00  0.00    +0.000 HD
ENDBRANCH  17  19
ENDBRANCH  11  17
ENDBRANCH   7  14
ENDBRANCH   1   8
BRANCH   5  23
ATOM     23  S   UNL     1       6.305   5.134  15.528  0.00  0.00    +0.000 S 
ATOM     24  O   UNL     1       5.327   6.119  15.112  0.00  0.00    +0.000 OA
ATOM     25  O   UNL     1       7.339   4.673  14.627  0.00  0.00    +0.000 OA
BRANCH  23  26
ATOM     26  N   UNL     1       5.516   3.760  16.085  0.00  0.00    +0.000 N 
ATOM     27  H   UNL     1       6.077   2.912  16.054  0.00  0.00    +0.000 HD
BRANCH  26  28
ATOM     28  C   UNL     1       4.473   3.853  17.039  0.00  0.00    +0.000 A 
ATOM     29  C   UNL     1       4.071   2.717  17.743  0.00  0.00    +0.000 A 
ATOM     30  C   UNL     1       3.074   2.816  18.717  0.00  0.00    +0.000 A 
ATOM     31  C   UNL     1       2.468   4.047  18.962  0.00  0.00    +0.000 A 
ATOM     32 BR   UNL     1       1.129   4.187  20.289  0.00  0.00    +0.000 Br
ATOM     33  C   UNL     1       2.847   5.180  18.242  0.00  0.00    +0.000 A 
ATOM     34  C   UNL     1       3.858   5.084  17.282  0.00  0.00    +0.000 A 
ENDBRANCH  26  28
ENDBRANCH  23  26
ENDBRANCH   5  23
TORSDOF 7
ENDMDL
MODEL 9
REMARK VINA RESULT:      -8.1      1.251      1.615
REMARK  Name = 
REMARK  7 active torsions:
REMARK  status: ('A' for Active; 'I' for Inactive)
REMARK    1  A    between atoms: C_2  and  C_4
REMARK    2  A    between atoms: C_4  and  C_5
REMARK    3  A    between atoms: C_8  and  N_9
REMARK    4  A    between atoms: C_10  and  C_12
REMARK    5  A    between atoms: C_16  and  S_17
REMARK    6  A    between atoms: S_17  and  N_20
REMARK    7  A    between atoms: N_20  and  C_21
REMARK                            x       y       z     vdW  Elec       q    Type
REMARK                         _______ _______ _______ _____ _____    ______ ____
ROOT
ATOM      1  C   UNL     1       7.917   7.625  18.124  0.00  0.00    +0.000 A 
ATOM      2  C   UNL     1       8.354   6.785  19.160  0.00  0.00    +0.000 A 
ATOM      3  C   UNL     1       8.007   5.430  19.171  0.00  0.00    +0.000 A 
ATOM      4  C   UNL     1       7.198   4.913  18.162  0.00  0.00    +0.000 A 
ATOM      5  C   UNL     1       6.734   5.761  17.150  0.00  0.00    +0.000 A 
ATOM      6  C   UNL     1       7.109   7.109  17.109  0.00  0.00    +0.000 A 
ENDROOT
BRANCH   1   8
ATOM      7  N   UNL     1       9.170   9.438  19.166  0.00  0.00    +0.000 N 
ATOM      8  C   UNL     1       8.249   9.074  18.198  0.00  0.00    +0.000 C 
ATOM      9  O   UNL     1       7.681   9.819  17.407  0.00  0.00    +0.000 OA
ATOM     10  H   UNL     1       9.457   8.734  19.834  0.00  0.00    +0.000 HD
BRANCH   7  14
ATOM     11  C   UNL     1      10.848  13.263  19.875  0.00  0.00    +0.000 A 
ATOM     12  C   UNL     1      10.909  12.705  18.594  0.00  0.00    +0.000 A 
ATOM     13  C   UNL     1      10.355  11.446  18.341  0.00  0.00    +0.000 A 
ATOM     14  C   UNL     1       9.729  10.722  19.353  0.00  0.00    +0.000 A 
ATOM     15  C   UNL     1       9.663  11.283  20.636  0.00  0.00    +0.000 A 
ATOM     16  C   UNL     1      10.214  12.545  20.893  0.00  0.00    +0.000 A 
BRANCH  11  17
ATOM     17  C   UNL     1      11.435  14.631  20.130  0.00  0.00    +0.000 C 
BRANCH  17  19
ATOM     18  N   UNL     1      10.484  16.623  21.259  0.00  0.00    +0.000 N 
ATOM     19  C   UNL     1      10.455  15.791  20.181  0.00  0.00    +0.000 C 
ATOM     20  O   UNL     1       9.644  15.993  19.280  0.00  0.00    +0.000 OA
ATOM     21  H   UNL     1       9.792  17.360  21.298  0.00  0.00    +0.000 HD
ATOM     22  H   UNL     1      11.031  16.432  22.087  0.00  0.00    +0.000 HD
ENDBRANCH  17  19
ENDBRANCH  11  17
ENDBRANCH   7  14
ENDBRANCH   1   8
BRANCH   5  23
ATOM     23  S   UNL     1       5.666   5.132  15.872  0.00  0.00    +0.000 S 
ATOM     24  O   UNL     1       5.259   6.259  15.057  0.00  0.00    +0.000 OA
ATOM     25  O   UNL     1       6.320   3.980  15.291  0.00  0.00    +0.000 OA
BRANCH  23  26
ATOM     26  N   UNL     1       4.340   4.546  16.720  0.00  0.00    +0.000 N 
ATOM     27  H   UNL     1       4.337   3.537  16.850  0.00  0.00    +0.000 HD
BRANCH  26  28
ATOM     28  C   UNL     1       3.657   5.356  17.660  0.00  0.00    +0.000 A 
ATOM     29  C   UNL     1       3.273   4.821  18.890  0.00  0.00    +0.000 A 
ATOM     30  C   UNL     1       2.641   5.631  19.837  0.00  0.00    +0.000 A 
ATOM     31  C   UNL     1       2.374   6.966  19.536  0.00  0.00    +0.000 A 
ATOM     32 BR   UNL     1       1.533   8.069  20.820  0.00  0.00    +0.000 Br
ATOM     33  C   UNL     1       2.732   7.498  18.296  0.00  0.00    +0.000 A 
ATOM     34  C   UNL     1       3.381   6.693  17.358  0.00  0.00    +0.000 A 
ENDBRANCH  26  28
ENDBRANCH  23  26
ENDBRANCH   5  23
TORSDOF 7
ENDMDL
