MODEL 1
REMARK VINA RESULT:      -8.4      0.000      0.000
REMARK  Name = 
REMARK  6 active torsions:
REMARK  status: ('A' for Active; 'I' for Inactive)
REMARK    1  A    between atoms: C_1  and  C_2
REMARK    2  A    between atoms: N_4  and  C_5
REMARK    3  A    between atoms: C_11  and  C_12
REMARK    4  A    between atoms: C_13  and  N_14
REMARK    5  A    between atoms: C_15  and  C_17
REMARK    6  A    between atoms: C_17  and  N_18
REMARK                            x       y       z     vdW  Elec       q    Type
REMARK                         _______ _______ _______ _____ _____    ______ ____
ROOT
ATOM      1  N   UNL     1       3.941   5.946  18.689  0.00  0.00    +0.000 N 
ATOM      2  C   UNL     1       2.589   6.208  18.863  0.00  0.00    +0.000 C 
ATOM      3  O   UNL     1       1.677   5.681  18.231  0.00  0.00    +0.000 OA
ATOM      4  H   UNL     1       4.604   6.616  19.061  0.00  0.00    +0.000 HD
ENDROOT
BRANCH   1  11
ATOM      5  C   UNL     1       3.848   2.678  18.478  0.00  0.00    +0.000 C 
ATOM      6  C   UNL     1       4.317   3.716  17.519  0.00  0.00    +0.000 A 
ATOM      7  N   UNL     1       4.796   3.333  16.337  0.00  0.00    +0.000 NA
ATOM      8  N   UNL     1       5.297   4.459  15.766  0.00  0.00    +0.000 N 
ATOM      9  C   UNL     1       5.056   5.576  16.551  0.00  0.00    +0.000 A 
ATOM     10  C   UNL     1       5.243   6.991  16.112  0.00  0.00    +0.000 C 
ATOM     11  C   UNL     1       4.400   5.116  17.681  0.00  0.00    +0.000 A 
BRANCH   8  12
ATOM     12  C   UNL     1       5.932   4.350  14.497  0.00  0.00    +0.000 A 
ATOM     13  C   UNL     1       5.332   3.561  13.512  0.00  0.00    +0.000 A 
ATOM     14  C   UNL     1       5.887   3.480  12.234  0.00  0.00    +0.000 A 
ATOM     15  C   UNL     1       7.070   4.158  11.950  0.00  0.00    +0.000 A 
ATOM     16  C   UNL     1       7.704   4.905  12.943  0.00  0.00    +0.000 A 
ATOM     17  C   UNL     1       7.139   5.003  14.221  0.00  0.00    +0.000 A 
ENDBRANCH   8  12
ENDBRANCH   1  11
BRANCH   2  18
ATOM     18  C   UNL     1       2.302   7.238  19.951  0.00  0.00    +0.000 C 
BRANCH  18  19
ATOM     19  N   UNL     1       1.649   8.384  19.365  0.00  0.00    +0.000 N 
ATOM     20  C   UNL     1       1.937   8.891  18.139  0.00  0.00    +0.000 C 
ATOM     21  O   UNL     1       2.733   8.467  17.322  0.00  0.00    +0.000 OA
ATOM     22  N   UNL     1       1.195  10.033  17.959  0.00  0.00    +0.000 N 
ATOM     23  C   UNL     1       0.269  10.278  19.045  0.00  0.00    +0.000 C 
ATOM     24  C   UNL     1      -1.176  10.114  18.572  0.00  0.00    +0.000 C 
ATOM     25  C   UNL     1      -1.580  11.250  17.629  0.00  0.00    +0.000 C 
ATOM     26  C   UNL     1      -1.340  12.624  18.250  0.00  0.00    +0.000 C 
ATOM     27  C   UNL     1       0.085  12.790  18.776  0.00  0.00    +0.000 C 
ATOM     28  C   UNL     1       0.493  11.642  19.700  0.00  0.00    +0.000 C 
ATOM     29  C   UNL     1       0.692   9.134  19.988  0.00  0.00    +0.000 C 
ATOM     30  O   UNL     1       0.248   8.927  21.112  0.00  0.00    +0.000 OA
ATOM     31  H   UNL     1       1.232  10.531  17.079  0.00  0.00    +0.000 HD
ENDBRANCH  18  19
ENDBRANCH   2  18
TORSDOF 4
ENDMDL
MODEL 2
REMARK VINA RESULT:      -8.3      2.416      3.742
REMARK  Name = 
REMARK  6 active torsions:
REMARK  status: ('A' for Active; 'I' for Inactive)
REMARK    1  A    between atoms: C_1  and  C_2
REMARK    2  A    between atoms: N_4  and  C_5
REMARK    3  A    between atoms: C_11  and  C_12
REMARK    4  A    between atoms: C_13  and  N_14
REMARK    5  A    between atoms: C_15  and  C_17
REMARK    6  A    between atoms: C_17  and  N_18
REMARK                            x       y       z     vdW  Elec       q    Type
REMARK                         _______ _______ _______ _____ _____    ______ ____
ROOT
ATOM      1  N   UNL     1       1.058   6.825  20.226  0.00  0.00    +0.000 N 
ATOM      2  C   UNL     1       1.150   7.826  21.185  0.00  0.00    +0.000 C 
ATOM      3  O   UNL     1       2.174   8.144  21.784  0.00  0.00    +0.000 OA
ATOM      4  H   UNL     1       0.137   6.472  20.000  0.00  0.00    +0.000 HD
ENDROOT
BRANCH   1  11
ATOM      5  C   UNL     1       1.919   3.964  21.569  0.00  0.00    +0.000 C 
ATOM      6  C   UNL     1       2.495   4.733  20.432  0.00  0.00    +0.000 A 
ATOM      7  N   UNL     1       3.549   4.238  19.786  0.00  0.00    +0.000 NA
ATOM      8  N   UNL     1       3.949   5.220  18.938  0.00  0.00    +0.000 N 
ATOM      9  C   UNL     1       3.092   6.309  18.982  0.00  0.00    +0.000 A 
ATOM     10  C   UNL     1       3.090   7.441  18.008  0.00  0.00    +0.000 C 
ATOM     11  C   UNL     1       2.129   6.001  19.929  0.00  0.00    +0.000 A 
BRANCH   8  12
ATOM     12  C   UNL     1       5.105   4.996  18.138  0.00  0.00    +0.000 A 
ATOM     13  C   UNL     1       4.946   4.416  16.876  0.00  0.00    +0.000 A 
ATOM     14  C   UNL     1       6.044   4.239  16.034  0.00  0.00    +0.000 A 
ATOM     15  C   UNL     1       7.315   4.605  16.471  0.00  0.00    +0.000 A 
ATOM     16  C   UNL     1       7.490   5.134  17.750  0.00  0.00    +0.000 A 
ATOM     17  C   UNL     1       6.386   5.330  18.589  0.00  0.00    +0.000 A 
ENDBRANCH   8  12
ENDBRANCH   1  11
BRANCH   2  18
ATOM     18  C   UNL     1      -0.171   8.542  21.447  0.00  0.00    +0.000 C 
BRANCH  18  19
ATOM     19  N   UNL     1      -0.021   9.946  21.149  0.00  0.00    +0.000 N 
ATOM     20  C   UNL     1      -0.159  10.945  22.058  0.00  0.00    +0.000 C 
ATOM     21  O   UNL     1      -0.381  10.846  23.252  0.00  0.00    +0.000 OA
ATOM     22  N   UNL     1      -0.048  12.145  21.401  0.00  0.00    +0.000 N 
ATOM     23  C   UNL     1       0.292  11.991  20.002  0.00  0.00    +0.000 C 
ATOM     24  C   UNL     1       1.701  12.517  19.725  0.00  0.00    +0.000 C 
ATOM     25  C   UNL     1       1.752  14.043  19.834  0.00  0.00    +0.000 C 
ATOM     26  C   UNL     1       0.710  14.716  18.942  0.00  0.00    +0.000 C 
ATOM     27  C   UNL     1      -0.698  14.168  19.166  0.00  0.00    +0.000 C 
ATOM     28  C   UNL     1      -0.740  12.641  19.080  0.00  0.00    +0.000 C 
ATOM     29  C   UNL     1       0.230  10.453  19.905  0.00  0.00    +0.000 C 
ATOM     30  O   UNL     1       0.380   9.790  18.886  0.00  0.00    +0.000 OA
ATOM     31  H   UNL     1      -0.072  13.015  21.919  0.00  0.00    +0.000 HD
ENDBRANCH  18  19
ENDBRANCH   2  18
TORSDOF 4
ENDMDL
MODEL 3
REMARK VINA RESULT:      -8.2      3.277     10.116
REMARK  Name = 
REMARK  6 active torsions:
REMARK  status: ('A' for Active; 'I' for Inactive)
REMARK    1  A    between atoms: C_1  and  C_2
REMARK    2  A    between atoms: N_4  and  C_5
REMARK    3  A    between atoms: C_11  and  C_12
REMARK    4  A    between atoms: C_13  and  N_14
REMARK    5  A    between atoms: C_15  and  C_17
REMARK    6  A    between atoms: C_17  and  N_18
REMARK                            x       y       z     vdW  Elec       q    Type
REMARK                         _______ _______ _______ _____ _____    ______ ____
ROOT
ATOM      1  N   UNL     1      -0.740  10.869  18.068  0.00  0.00    +0.000 N 
ATOM      2  C   UNL     1      -0.324  10.106  19.151  0.00  0.00    +0.000 C 
ATOM      3  O   UNL     1      -1.062   9.450  19.883  0.00  0.00    +0.000 OA
ATOM      4  H   UNL     1      -0.101  11.567  17.709  0.00  0.00    +0.000 HD
ENDROOT
BRANCH   1  11
ATOM      5  C   UNL     1      -2.497   9.694  15.564  0.00  0.00    +0.000 C 
ATOM      6  C   UNL     1      -2.888  10.505  16.750  0.00  0.00    +0.000 A 
ATOM      7  N   UNL     1      -4.164  10.856  16.899  0.00  0.00    +0.000 NA
ATOM      8  N   UNL     1      -4.184  11.717  17.949  0.00  0.00    +0.000 N 
ATOM      9  C   UNL     1      -2.929  11.845  18.524  0.00  0.00    +0.000 A 
ATOM     10  C   UNL     1      -2.647  12.504  19.834  0.00  0.00    +0.000 C 
ATOM     11  C   UNL     1      -2.081  11.047  17.773  0.00  0.00    +0.000 A 
BRANCH   8  12
ATOM     12  C   UNL     1      -5.425  12.309  18.317  0.00  0.00    +0.000 A 
ATOM     13  C   UNL     1      -6.167  12.977  17.338  0.00  0.00    +0.000 A 
ATOM     14  C   UNL     1      -7.418  13.514  17.641  0.00  0.00    +0.000 A 
ATOM     15  C   UNL     1      -7.914  13.421  18.939  0.00  0.00    +0.000 A 
ATOM     16  C   UNL     1      -7.157  12.803  19.935  0.00  0.00    +0.000 A 
ATOM     17  C   UNL     1      -5.908  12.247  19.628  0.00  0.00    +0.000 A 
ENDBRANCH   8  12
ENDBRANCH   1  11
BRANCH   2  18
ATOM     18  C   UNL     1       1.185  10.132  19.373  0.00  0.00    +0.000 C 
BRANCH  18  19
ATOM     19  N   UNL     1       1.699   8.785  19.327  0.00  0.00    +0.000 N 
ATOM     20  C   UNL     1       1.792   7.960  20.401  0.00  0.00    +0.000 C 
ATOM     21  O   UNL     1       1.434   8.177  21.545  0.00  0.00    +0.000 OA
ATOM     22  N   UNL     1       2.417   6.803  20.004  0.00  0.00    +0.000 N 
ATOM     23  C   UNL     1       2.672   6.763  18.580  0.00  0.00    +0.000 C 
ATOM     24  C   UNL     1       1.812   5.692  17.906  0.00  0.00    +0.000 C 
ATOM     25  C   UNL     1       2.282   4.286  18.290  0.00  0.00    +0.000 C 
ATOM     26  C   UNL     1       3.769   4.080  18.007  0.00  0.00    +0.000 C 
ATOM     27  C   UNL     1       4.641   5.170  18.628  0.00  0.00    +0.000 C 
ATOM     28  C   UNL     1       4.155   6.573  18.261  0.00  0.00    +0.000 C 
ATOM     29  C   UNL     1       2.202   8.184  18.208  0.00  0.00    +0.000 C 
ATOM     30  O   UNL     1       2.268   8.695  17.096  0.00  0.00    +0.000 OA
ATOM     31  H   UNL     1       2.534   6.038  20.656  0.00  0.00    +0.000 HD
ENDBRANCH  18  19
ENDBRANCH   2  18
TORSDOF 4
ENDMDL
MODEL 4
REMARK VINA RESULT:      -8.1      2.279      3.383
REMARK  Name = 
REMARK  6 active torsions:
REMARK  status: ('A' for Active; 'I' for Inactive)
REMARK    1  A    between atoms: C_1  and  C_2
REMARK    2  A    between atoms: N_4  and  C_5
REMARK    3  A    between atoms: C_11  and  C_12
REMARK    4  A    between atoms: C_13  and  N_14
REMARK    5  A    between atoms: C_15  and  C_17
REMARK    6  A    between atoms: C_17  and  N_18
REMARK                            x       y       z     vdW  Elec       q    Type
REMARK                         _______ _______ _______ _____ _____    ______ ____
ROOT
ATOM      1  N   UNL     1       1.240   7.460  19.635  0.00  0.00    +0.000 N 
ATOM      2  C   UNL     1       1.196   8.262  20.768  0.00  0.00    +0.000 C 
ATOM      3  O   UNL     1       2.050   8.292  21.650  0.00  0.00    +0.000 OA
ATOM      4  H   UNL     1       0.378   7.317  19.124  0.00  0.00    +0.000 HD
ENDROOT
BRANCH   1  11
ATOM      5  C   UNL     1       1.720   4.610  21.178  0.00  0.00    +0.000 C 
ATOM      6  C   UNL     1       2.437   5.249  20.040  0.00  0.00    +0.000 A 
ATOM      7  N   UNL     1       3.468   4.613  19.489  0.00  0.00    +0.000 NA
ATOM      8  N   UNL     1       4.016   5.497  18.616  0.00  0.00    +0.000 N 
ATOM      9  C   UNL     1       3.276   6.669  18.549  0.00  0.00    +0.000 A 
ATOM     10  C   UNL     1       3.448   7.735  17.519  0.00  0.00    +0.000 C 
ATOM     11  C   UNL     1       2.234   6.515  19.450  0.00  0.00    +0.000 A 
BRANCH   8  12
ATOM     12  C   UNL     1       5.186   5.111  17.903  0.00  0.00    +0.000 A 
ATOM     13  C   UNL     1       5.052   4.661  16.587  0.00  0.00    +0.000 A 
ATOM     14  C   UNL     1       6.178   4.335  15.831  0.00  0.00    +0.000 A 
ATOM     15  C   UNL     1       7.444   4.418  16.407  0.00  0.00    +0.000 A 
ATOM     16  C   UNL     1       7.583   4.815  17.737  0.00  0.00    +0.000 A 
ATOM     17  C   UNL     1       6.455   5.161  18.491  0.00  0.00    +0.000 A 
ENDBRANCH   8  12
ENDBRANCH   1  11
BRANCH   2  18
ATOM     18  C   UNL     1      -0.041   9.152  20.837  0.00  0.00    +0.000 C 
BRANCH  18  19
ATOM     19  N   UNL     1       0.227  10.397  20.159  0.00  0.00    +0.000 N 
ATOM     20  C   UNL     1       0.240  10.552  18.811  0.00  0.00    +0.000 C 
ATOM     21  O   UNL     1      -0.005   9.718  17.959  0.00  0.00    +0.000 OA
ATOM     22  N   UNL     1       0.629  11.839  18.528  0.00  0.00    +0.000 N 
ATOM     23  C   UNL     1       0.786  12.652  19.716  0.00  0.00    +0.000 C 
ATOM     24  C   UNL     1      -0.286  13.742  19.772  0.00  0.00    +0.000 C 
ATOM     25  C   UNL     1      -0.046  14.807  18.699  0.00  0.00    +0.000 C 
ATOM     26  C   UNL     1       1.363  15.393  18.777  0.00  0.00    +0.000 C 
ATOM     27  C   UNL     1       2.447  14.317  18.774  0.00  0.00    +0.000 C 
ATOM     28  C   UNL     1       2.192  13.242  19.833  0.00  0.00    +0.000 C 
ATOM     29  C   UNL     1       0.550  11.568  20.786  0.00  0.00    +0.000 C 
ATOM     30  O   UNL     1       0.636  11.723  21.999  0.00  0.00    +0.000 OA
ATOM     31  H   UNL     1       0.650  12.166  17.571  0.00  0.00    +0.000 HD
ENDBRANCH  18  19
ENDBRANCH   2  18
TORSDOF 4
ENDMDL
MODEL 5
REMARK VINA RESULT:      -8.0      3.880      6.739
REMARK  Name = 
REMARK  6 active torsions:
REMARK  status: ('A' for Active; 'I' for Inactive)
REMARK    1  A    between atoms: C_1  and  C_2
REMARK    2  A    between atoms: N_4  and  C_5
REMARK    3  A    between atoms: C_11  and  C_12
REMARK    4  A    between atoms: C_13  and  N_14
REMARK    5  A    between atoms: C_15  and  C_17
REMARK    6  A    between atoms: C_17  and  N_18
REMARK                            x       y       z     vdW  Elec       q    Type
REMARK                         _______ _______ _______ _____ _____    ______ ____
ROOT
ATOM      1  N   UNL     1       0.326  11.123  19.985  0.00  0.00    +0.000 N 
ATOM      2  C   UNL     1       0.911  12.260  20.528  0.00  0.00    +0.000 C 
ATOM      3  O   UNL     1       1.963  12.282  21.163  0.00  0.00    +0.000 OA
ATOM      4  H   UNL     1      -0.651  11.175  19.724  0.00  0.00    +0.000 HD
ENDROOT
BRANCH   1  11
ATOM      5  C   UNL     1       0.416   9.376  22.755  0.00  0.00    +0.000 C 
ATOM      6  C   UNL     1       0.838   9.046  21.365  0.00  0.00    +0.000 A 
ATOM      7  N   UNL     1       1.350   7.842  21.115  0.00  0.00    +0.000 NA
ATOM      8  N   UNL     1       1.794   7.896  19.833  0.00  0.00    +0.000 N 
ATOM      9  C   UNL     1       1.482   9.110  19.238  0.00  0.00    +0.000 A 
ATOM     10  C   UNL     1       1.595   9.406  17.779  0.00  0.00    +0.000 C 
ATOM     11  C   UNL     1       0.840   9.859  20.211  0.00  0.00    +0.000 A 
BRANCH   8  12
ATOM     12  C   UNL     1       2.448   6.753  19.293  0.00  0.00    +0.000 A 
ATOM     13  C   UNL     1       2.241   5.512  19.903  0.00  0.00    +0.000 A 
ATOM     14  C   UNL     1       2.811   4.356  19.367  0.00  0.00    +0.000 A 
ATOM     15  C   UNL     1       3.625   4.445  18.241  0.00  0.00    +0.000 A 
ATOM     16  C   UNL     1       3.879   5.687  17.658  0.00  0.00    +0.000 A 
ATOM     17  C   UNL     1       3.294   6.846  18.183  0.00  0.00    +0.000 A 
ENDBRANCH   8  12
ENDBRANCH   1  11
BRANCH   2  18
ATOM     18  C   UNL     1       0.125  13.539  20.259  0.00  0.00    +0.000 C 
BRANCH  18  19
ATOM     19  N   UNL     1      -0.894  13.696  21.268  0.00  0.00    +0.000 N 
ATOM     20  C   UNL     1      -0.713  14.333  22.452  0.00  0.00    +0.000 C 
ATOM     21  O   UNL     1       0.286  14.905  22.849  0.00  0.00    +0.000 OA
ATOM     22  N   UNL     1      -1.860  14.199  23.195  0.00  0.00    +0.000 N 
ATOM     23  C   UNL     1      -2.926  13.543  22.468  0.00  0.00    +0.000 C 
ATOM     24  C   UNL     1      -4.069  14.520  22.185  0.00  0.00    +0.000 C 
ATOM     25  C   UNL     1      -4.819  14.879  23.470  0.00  0.00    +0.000 C 
ATOM     26  C   UNL     1      -5.306  13.638  24.216  0.00  0.00    +0.000 C 
ATOM     27  C   UNL     1      -4.189  12.625  24.463  0.00  0.00    +0.000 C 
ATOM     28  C   UNL     1      -3.427  12.286  23.181  0.00  0.00    +0.000 C 
ATOM     29  C   UNL     1      -2.157  13.181  21.181  0.00  0.00    +0.000 C 
ATOM     30  O   UNL     1      -2.599  12.539  20.236  0.00  0.00    +0.000 OA
ATOM     31  H   UNL     1      -1.940  14.653  24.096  0.00  0.00    +0.000 HD
ENDBRANCH  18  19
ENDBRANCH   2  18
TORSDOF 4
ENDMDL
MODEL 6
REMARK VINA RESULT:      -7.9      3.524      6.089
REMARK  Name = 
REMARK  6 active torsions:
REMARK  status: ('A' for Active; 'I' for Inactive)
REMARK    1  A    between atoms: C_1  and  C_2
REMARK    2  A    between atoms: N_4  and  C_5
REMARK    3  A    between atoms: C_11  and  C_12
REMARK    4  A    between atoms: C_13  and  N_14
REMARK    5  A    between atoms: C_15  and  C_17
REMARK    6  A    between atoms: C_17  and  N_18
REMARK                            x       y       z     vdW  Elec       q    Type
REMARK                         _______ _______ _______ _____ _____    ______ ____
ROOT
ATOM      1  N   UNL     1       0.881  10.484  19.868  0.00  0.00    +0.000 N 
ATOM      2  C   UNL     1      -0.338  10.832  19.301  0.00  0.00    +0.000 C 
ATOM      3  O   UNL     1      -1.223  10.042  18.981  0.00  0.00    +0.000 OA
ATOM      4  H   UNL     1       1.627  11.169  19.841  0.00  0.00    +0.000 HD
ENDROOT
BRANCH   1  11
ATOM      5  C   UNL     1       0.467   8.499  22.441  0.00  0.00    +0.000 C 
ATOM      6  C   UNL     1       1.040   8.255  21.089  0.00  0.00    +0.000 A 
ATOM      7  N   UNL     1       1.483   7.036  20.786  0.00  0.00    +0.000 NA
ATOM      8  N   UNL     1       2.094   7.162  19.581  0.00  0.00    +0.000 N 
ATOM      9  C   UNL     1       1.962   8.446  19.075  0.00  0.00    +0.000 A 
ATOM     10  C   UNL     1       2.289   8.857  17.677  0.00  0.00    +0.000 C 
ATOM     11  C   UNL     1       1.259   9.163  20.030  0.00  0.00    +0.000 A 
BRANCH   8  12
ATOM     12  C   UNL     1       2.721   6.015  19.016  0.00  0.00    +0.000 A 
ATOM     13  C   UNL     1       4.031   5.710  19.396  0.00  0.00    +0.000 A 
ATOM     14  C   UNL     1       4.658   4.559  18.916  0.00  0.00    +0.000 A 
ATOM     15  C   UNL     1       3.988   3.730  18.020  0.00  0.00    +0.000 A 
ATOM     16  C   UNL     1       2.700   4.055  17.594  0.00  0.00    +0.000 A 
ATOM     17  C   UNL     1       2.062   5.200  18.088  0.00  0.00    +0.000 A 
ENDBRANCH   8  12
ENDBRANCH   1  11
BRANCH   2  18
ATOM     18  C   UNL     1      -0.512  12.335  19.103  0.00  0.00    +0.000 C 
BRANCH  18  19
ATOM     19  N   UNL     1      -1.034  12.919  20.314  0.00  0.00    +0.000 N 
ATOM     20  C   UNL     1      -0.275  13.306  21.371  0.00  0.00    +0.000 C 
ATOM     21  O   UNL     1       0.937  13.275  21.474  0.00  0.00    +0.000 OA
ATOM     22  N   UNL     1      -1.115  13.720  22.376  0.00  0.00    +0.000 N 
ATOM     23  C   UNL     1      -2.506  13.734  21.977  0.00  0.00    +0.000 C 
ATOM     24  C   UNL     1      -3.037  15.167  21.908  0.00  0.00    +0.000 C 
ATOM     25  C   UNL     1      -3.167  15.774  23.307  0.00  0.00    +0.000 C 
ATOM     26  C   UNL     1      -4.010  14.902  24.235  0.00  0.00    +0.000 C 
ATOM     27  C   UNL     1      -3.527  13.453  24.278  0.00  0.00    +0.000 C 
ATOM     28  C   UNL     1      -3.377  12.856  22.877  0.00  0.00    +0.000 C 
ATOM     29  C   UNL     1      -2.362  13.114  20.572  0.00  0.00    +0.000 C 
ATOM     30  O   UNL     1      -3.281  12.838  19.809  0.00  0.00    +0.000 OA
ATOM     31  H   UNL     1      -0.735  14.098  23.235  0.00  0.00    +0.000 HD
ENDBRANCH  18  19
ENDBRANCH   2  18
TORSDOF 4
ENDMDL
MODEL 7
REMARK VINA RESULT:      -7.8      3.721      6.530
REMARK  Name = 
REMARK  6 active torsions:
REMARK  status: ('A' for Active; 'I' for Inactive)
REMARK    1  A    between atoms: C_1  and  C_2
REMARK    2  A    between atoms: N_4  and  C_5
REMARK    3  A    between atoms: C_11  and  C_12
REMARK    4  A    between atoms: C_13  and  N_14
REMARK    5  A    between atoms: C_15  and  C_17
REMARK    6  A    between atoms: C_17  and  N_18
REMARK                            x       y       z     vdW  Elec       q    Type
REMARK                         _______ _______ _______ _____ _____    ______ ____
ROOT
ATOM      1  N   UNL     1      -0.218  10.955  20.492  0.00  0.00    +0.000 N 
ATOM      2  C   UNL     1       0.257  12.160  20.992  0.00  0.00    +0.000 C 
ATOM      3  O   UNL     1       1.411  12.371  21.356  0.00  0.00    +0.000 OA
ATOM      4  H   UNL     1      -1.221  10.812  20.478  0.00  0.00    +0.000 HD
ENDROOT
BRANCH   1  11
ATOM      5  C   UNL     1       0.870   9.102  22.965  0.00  0.00    +0.000 C 
ATOM      6  C   UNL     1       1.000   8.954  21.489  0.00  0.00    +0.000 A 
ATOM      7  N   UNL     1       1.660   7.904  21.001  0.00  0.00    +0.000 NA
ATOM      8  N   UNL     1       1.764   8.129  19.666  0.00  0.00    +0.000 N 
ATOM      9  C   UNL     1       1.091   9.282  19.292  0.00  0.00    +0.000 A 
ATOM     10  C   UNL     1       0.790   9.684  17.886  0.00  0.00    +0.000 C 
ATOM     11  C   UNL     1       0.569   9.817  20.459  0.00  0.00    +0.000 A 
BRANCH   8  12
ATOM     12  C   UNL     1       2.477   7.186  18.874  0.00  0.00    +0.000 A 
ATOM     13  C   UNL     1       3.450   7.655  17.987  0.00  0.00    +0.000 A 
ATOM     14  C   UNL     1       4.217   6.760  17.239  0.00  0.00    +0.000 A 
ATOM     15  C   UNL     1       3.983   5.392  17.347  0.00  0.00    +0.000 A 
ATOM     16  C   UNL     1       2.977   4.918  18.190  0.00  0.00    +0.000 A 
ATOM     17  C   UNL     1       2.218   5.813  18.955  0.00  0.00    +0.000 A 
ENDBRANCH   8  12
ENDBRANCH   1  11
BRANCH   2  18
ATOM     18  C   UNL     1      -0.801  13.257  21.050  0.00  0.00    +0.000 C 
BRANCH  18  19
ATOM     19  N   UNL     1      -0.519  14.248  20.041  0.00  0.00    +0.000 N 
ATOM     20  C   UNL     1      -0.559  14.020  18.704  0.00  0.00    +0.000 C 
ATOM     21  O   UNL     1      -0.871  12.993  18.129  0.00  0.00    +0.000 OA
ATOM     22  N   UNL     1      -0.137  15.156  18.058  0.00  0.00    +0.000 N 
ATOM     23  C   UNL     1       0.102  16.261  18.963  0.00  0.00    +0.000 C 
ATOM     24  C   UNL     1      -0.927  17.372  18.745  0.00  0.00    +0.000 C 
ATOM     25  C   UNL     1      -0.696  18.082  17.408  0.00  0.00    +0.000 C 
ATOM     26  C   UNL     1       0.735  18.599  17.273  0.00  0.00    +0.000 C 
ATOM     27  C   UNL     1       1.779  17.515  17.539  0.00  0.00    +0.000 C 
ATOM     28  C   UNL     1       1.532  16.793  18.864  0.00  0.00    +0.000 C 
ATOM     29  C   UNL     1      -0.127  15.532  20.303  0.00  0.00    +0.000 C 
ATOM     30  O   UNL     1       0.018  16.015  21.419  0.00  0.00    +0.000 OA
ATOM     31  H   UNL     1      -0.146  15.201  17.047  0.00  0.00    +0.000 HD
ENDBRANCH  18  19
ENDBRANCH   2  18
TORSDOF 4
ENDMDL
MODEL 8
REMARK VINA RESULT:      -7.8      3.478      6.026
REMARK  Name = 
REMARK  6 active torsions:
REMARK  status: ('A' for Active; 'I' for Inactive)
REMARK    1  A    between atoms: C_1  and  C_2
REMARK    2  A    between atoms: N_4  and  C_5
REMARK    3  A    between atoms: C_11  and  C_12
REMARK    4  A    between atoms: C_13  and  N_14
REMARK    5  A    between atoms: C_15  and  C_17
REMARK    6  A    between atoms: C_17  and  N_18
REMARK                            x       y       z     vdW  Elec       q    Type
REMARK                         _______ _______ _______ _____ _____    ______ ____
ROOT
ATOM      1  N   UNL     1       0.573  10.456  19.696  0.00  0.00    +0.000 N 
ATOM      2  C   UNL     1      -0.664  10.635  19.089  0.00  0.00    +0.000 C 
ATOM      3  O   UNL     1      -1.443   9.735  18.787  0.00  0.00    +0.000 OA
ATOM      4  H   UNL     1       1.234  11.221  19.653  0.00  0.00    +0.000 HD
ENDROOT
BRANCH   1  11
ATOM      5  C   UNL     1       0.496   8.629  22.414  0.00  0.00    +0.000 C 
ATOM      6  C   UNL     1       1.026   8.349  21.051  0.00  0.00    +0.000 A 
ATOM      7  N   UNL     1       1.582   7.164  20.806  0.00  0.00    +0.000 NA
ATOM      8  N   UNL     1       2.118   7.265  19.562  0.00  0.00    +0.000 N 
ATOM      9  C   UNL     1       1.825   8.489  18.980  0.00  0.00    +0.000 A 
ATOM     10  C   UNL     1       2.039   8.830  17.543  0.00  0.00    +0.000 C 
ATOM     11  C   UNL     1       1.097   9.196  19.924  0.00  0.00    +0.000 A 
BRANCH   8  12
ATOM     12  C   UNL     1       2.836   6.151  19.041  0.00  0.00    +0.000 A 
ATOM     13  C   UNL     1       2.189   5.298  18.142  0.00  0.00    +0.000 A 
ATOM     14  C   UNL     1       2.876   4.233  17.557  0.00  0.00    +0.000 A 
ATOM     15  C   UNL     1       4.203   3.994  17.903  0.00  0.00    +0.000 A 
ATOM     16  C   UNL     1       4.840   4.808  18.840  0.00  0.00    +0.000 A 
ATOM     17  C   UNL     1       4.158   5.889  19.414  0.00  0.00    +0.000 A 
ENDBRANCH   8  12
ENDBRANCH   1  11
BRANCH   2  18
ATOM     18  C   UNL     1      -1.006  12.098  18.821  0.00  0.00    +0.000 C 
BRANCH  18  19
ATOM     19  N   UNL     1      -1.794  12.613  19.914  0.00  0.00    +0.000 N 
ATOM     20  C   UNL     1      -3.150  12.633  19.943  0.00  0.00    +0.000 C 
ATOM     21  O   UNL     1      -3.923  12.199  19.108  0.00  0.00    +0.000 OA
ATOM     22  N   UNL     1      -3.549  13.282  21.085  0.00  0.00    +0.000 N 
ATOM     23  C   UNL     1      -2.440  13.633  21.948  0.00  0.00    +0.000 C 
ATOM     24  C   UNL     1      -2.484  12.820  23.243  0.00  0.00    +0.000 C 
ATOM     25  C   UNL     1      -3.650  13.262  24.132  0.00  0.00    +0.000 C 
ATOM     26  C   UNL     1      -3.625  14.764  24.406  0.00  0.00    +0.000 C 
ATOM     27  C   UNL     1      -3.529  15.593  23.127  0.00  0.00    +0.000 C 
ATOM     28  C   UNL     1      -2.377  15.134  22.231  0.00  0.00    +0.000 C 
ATOM     29  C   UNL     1      -1.276  13.190  21.040  0.00  0.00    +0.000 C 
ATOM     30  O   UNL     1      -0.082  13.331  21.280  0.00  0.00    +0.000 OA
ATOM     31  H   UNL     1      -4.532  13.355  21.314  0.00  0.00    +0.000 HD
ENDBRANCH  18  19
ENDBRANCH   2  18
TORSDOF 4
ENDMDL
MODEL 9
REMARK VINA RESULT:      -7.8      3.536     10.531
REMARK  Name = 
REMARK  6 active torsions:
REMARK  status: ('A' for Active; 'I' for Inactive)
REMARK    1  A    between atoms: C_1  and  C_2
REMARK    2  A    between atoms: N_4  and  C_5
REMARK    3  A    between atoms: C_11  and  C_12
REMARK    4  A    between atoms: C_13  and  N_14
REMARK    5  A    between atoms: C_15  and  C_17
REMARK    6  A    between atoms: C_17  and  N_18
REMARK                            x       y       z     vdW  Elec       q    Type
REMARK                         _______ _______ _______ _____ _____    ______ ____
ROOT
ATOM      1  N   UNL     1       0.528  11.016  20.629  0.00  0.00    +0.000 N 
ATOM      2  C   UNL     1       0.363  10.195  19.521  0.00  0.00    +0.000 C 
ATOM      3  O   UNL     1      -0.706   9.730  19.135  0.00  0.00    +0.000 OA
ATOM      4  H   UNL     1       1.462  11.118  21.007  0.00  0.00    +0.000 HD
ENDROOT
BRANCH   1  11
ATOM      5  C   UNL     1      -0.322   9.573  23.445  0.00  0.00    +0.000 C 
ATOM      6  C   UNL     1      -0.880  10.758  22.735  0.00  0.00    +0.000 A 
ATOM      7  N   UNL     1      -1.908  11.409  23.276  0.00  0.00    +0.000 NA
ATOM      8  N   UNL     1      -2.300  12.310  22.338  0.00  0.00    +0.000 N 
ATOM      9  C   UNL     1      -1.463  12.290  21.233  0.00  0.00    +0.000 A 
ATOM     10  C   UNL     1      -1.453  13.312  20.145  0.00  0.00    +0.000 C 
ATOM     11  C   UNL     1      -0.521  11.305  21.484  0.00  0.00    +0.000 A 
BRANCH   8  12
ATOM     12  C   UNL     1      -3.431  13.129  22.617  0.00  0.00    +0.000 A 
ATOM     13  C   UNL     1      -4.656  12.806  22.025  0.00  0.00    +0.000 A 
ATOM     14  C   UNL     1      -5.802  13.543  22.323  0.00  0.00    +0.000 A 
ATOM     15  C   UNL     1      -5.718  14.634  23.184  0.00  0.00    +0.000 A 
ATOM     16  C   UNL     1      -4.489  14.996  23.736  0.00  0.00    +0.000 A 
ATOM     17  C   UNL     1      -3.340  14.246  23.454  0.00  0.00    +0.000 A 
ENDBRANCH   8  12
ENDBRANCH   1  11
BRANCH   2  18
ATOM     18  C   UNL     1       1.663   9.907  18.777  0.00  0.00    +0.000 C 
BRANCH  18  19
ATOM     19  N   UNL     1       2.028   8.524  18.970  0.00  0.00    +0.000 N 
ATOM     20  C   UNL     1       1.905   7.851  20.142  0.00  0.00    +0.000 C 
ATOM     21  O   UNL     1       1.443   8.257  21.193  0.00  0.00    +0.000 OA
ATOM     22  N   UNL     1       2.441   6.598  19.979  0.00  0.00    +0.000 N 
ATOM     23  C   UNL     1       2.853   6.336  18.616  0.00  0.00    +0.000 C 
ATOM     24  C   UNL     1       1.966   5.266  17.977  0.00  0.00    +0.000 C 
ATOM     25  C   UNL     1       2.230   3.890  18.594  0.00  0.00    +0.000 C 
ATOM     26  C   UNL     1       3.709   3.509  18.534  0.00  0.00    +0.000 C 
ATOM     27  C   UNL     1       4.617   4.589  19.121  0.00  0.00    +0.000 C 
ATOM     28  C   UNL     1       4.334   5.966  18.519  0.00  0.00    +0.000 C 
ATOM     29  C   UNL     1       2.589   7.729  18.010  0.00  0.00    +0.000 C 
ATOM     30  O   UNL     1       2.839   8.073  16.861  0.00  0.00    +0.000 OA
ATOM     31  H   UNL     1       2.397   5.922  20.732  0.00  0.00    +0.000 HD
ENDBRANCH  18  19
ENDBRANCH   2  18
TORSDOF 4
ENDMDL
