MODEL 1
REMARK VINA RESULT:      -8.4      0.000      0.000
REMARK  Name = 
REMARK  4 active torsions:
REMARK  status: ('A' for Active; 'I' for Inactive)
REMARK    1  A    between atoms: C_2  and  C_17
REMARK    2  A    between atoms: N_3  and  C_4
REMARK    3  A    between atoms: C_7  and  O_8
REMARK    4  A    between atoms: O_8  and  C_9
REMARK                            x       y       z     vdW  Elec       q    Type
REMARK                         _______ _______ _______ _____ _____    ______ ____
ROOT
ATOM      1  O   UNL     1       8.298   6.690  19.015  0.00  0.00    +0.000 OA
ATOM      2  C   UNL     1       7.697   7.015  17.997  0.00  0.00    +0.000 C 
ATOM      3  N   UNL     1       7.630   8.279  17.443  0.00  0.00    +0.000 N 
ATOM      4  H   UNL     1       7.140   8.315  16.550  0.00  0.00    +0.000 HD
ENDROOT
BRANCH   2   5
ATOM      5  C   UNL     1       6.939   6.004  17.173  0.00  0.00    +0.000 A 
ATOM      6  N   UNL     1       7.432   5.884  15.892  0.00  0.00    +0.000 NA
ATOM      7  C   UNL     1       6.901   4.915  15.128  0.00  0.00    +0.000 A 
ATOM      8  C   UNL     1       5.884   4.089  15.554  0.00  0.00    +0.000 A 
ATOM      9  C   UNL     1       5.212   4.426  16.729  0.00  0.00    +0.000 A 
ATOM     10  C   UNL     1       3.919   3.935  16.953  0.00  0.00    +0.000 A 
ATOM     11  C   UNL     1       3.198   4.311  18.078  0.00  0.00    +0.000 A 
ATOM     12  C   UNL     1       3.827   5.054  19.078  0.00  0.00    +0.000 A 
ATOM     13  C   UNL     1       5.113   5.532  18.870  0.00  0.00    +0.000 A 
ATOM     14  C   UNL     1       5.788   5.338  17.636  0.00  0.00    +0.000 A 
ENDBRANCH   2   5
BRANCH   3  15
ATOM     15  C   UNL     1       8.207   9.466  17.918  0.00  0.00    +0.000 A 
ATOM     16  C   UNL     1       7.988  10.710  17.327  0.00  0.00    +0.000 A 
ATOM     17  C   UNL     1       8.583  11.859  17.850  0.00  0.00    +0.000 A 
ATOM     18  C   UNL     1       9.365  11.777  19.001  0.00  0.00    +0.000 A 
ATOM     19  C   UNL     1       9.628  10.540  19.577  0.00  0.00    +0.000 A 
ATOM     20  C   UNL     1       9.043   9.380  19.035  0.00  0.00    +0.000 A 
BRANCH  18  21
ATOM     21  O   UNL     1       9.983  12.868  19.576  0.00  0.00    +0.000 OA
BRANCH  21  22
ATOM     22  C   UNL     1      10.634  13.771  18.745  0.00  0.00    +0.000 A 
ATOM     23  C   UNL     1      10.050  15.018  18.573  0.00  0.00    +0.000 A 
ATOM     24  N   UNL     1      10.599  15.984  17.794  0.00  0.00    +0.000 NA
ATOM     25  C   UNL     1      11.760  15.639  17.188  0.00  0.00    +0.000 A 
ATOM     26  C   UNL     1      12.333  14.388  17.339  0.00  0.00    +0.000 A 
ATOM     27  N   UNL     1      11.776  13.423  18.106  0.00  0.00    +0.000 NA
ENDBRANCH  21  22
ENDBRANCH  18  21
ENDBRANCH   3  15
TORSDOF 4
ENDMDL
MODEL 2
REMARK VINA RESULT:      -8.4      6.145      9.436
REMARK  Name = 
REMARK  4 active torsions:
REMARK  status: ('A' for Active; 'I' for Inactive)
REMARK    1  A    between atoms: C_2  and  C_17
REMARK    2  A    between atoms: N_3  and  C_4
REMARK    3  A    between atoms: C_7  and  O_8
REMARK    4  A    between atoms: O_8  and  C_9
REMARK                            x       y       z     vdW  Elec       q    Type
REMARK                         _______ _______ _______ _____ _____    ______ ____
ROOT
ATOM      1  O   UNL     1       1.883  10.064  17.388  0.00  0.00    +0.000 OA
ATOM      2  C   UNL     1       1.228   9.713  18.362  0.00  0.00    +0.000 C 
ATOM      3  N   UNL     1       1.411   8.569  19.114  0.00  0.00    +0.000 N 
ATOM      4  H   UNL     1       0.804   8.507  19.930  0.00  0.00    +0.000 HD
ENDROOT
BRANCH   2   5
ATOM      5  C   UNL     1       0.095  10.556  18.895  0.00  0.00    +0.000 A 
ATOM      6  N   UNL     1       0.387  11.130  20.113  0.00  0.00    +0.000 NA
ATOM      7  C   UNL     1      -0.513  11.999  20.602  0.00  0.00    +0.000 A 
ATOM      8  C   UNL     1      -1.699  12.297  19.967  0.00  0.00    +0.000 A 
ATOM      9  C   UNL     1      -2.097  11.486  18.903  0.00  0.00    +0.000 A 
ATOM     10  C   UNL     1      -3.450  11.428  18.544  0.00  0.00    +0.000 A 
ATOM     11  C   UNL     1      -3.884  10.577  17.538  0.00  0.00    +0.000 A 
ATOM     12  C   UNL     1      -2.944   9.893  16.765  0.00  0.00    +0.000 A 
ATOM     13  C   UNL     1      -1.601   9.956  17.106  0.00  0.00    +0.000 A 
ATOM     14  C   UNL     1      -1.159  10.651  18.262  0.00  0.00    +0.000 A 
ENDBRANCH   2   5
BRANCH   3  15
ATOM     15  C   UNL     1       2.361   7.552  18.930  0.00  0.00    +0.000 A 
ATOM     16  C   UNL     1       2.498   6.471  19.800  0.00  0.00    +0.000 A 
ATOM     17  C   UNL     1       3.455   5.484  19.559  0.00  0.00    +0.000 A 
ATOM     18  C   UNL     1       4.251   5.549  18.417  0.00  0.00    +0.000 A 
ATOM     19  C   UNL     1       4.156   6.641  17.562  0.00  0.00    +0.000 A 
ATOM     20  C   UNL     1       3.204   7.645  17.818  0.00  0.00    +0.000 A 
BRANCH  18  21
ATOM     21  O   UNL     1       5.216   4.612  18.112  0.00  0.00    +0.000 OA
BRANCH  21  22
ATOM     22  C   UNL     1       5.778   4.631  16.841  0.00  0.00    +0.000 A 
ATOM     23  C   UNL     1       6.935   5.376  16.664  0.00  0.00    +0.000 A 
ATOM     24  N   UNL     1       7.576   5.461  15.472  0.00  0.00    +0.000 NA
ATOM     25  C   UNL     1       7.000   4.770  14.461  0.00  0.00    +0.000 A 
ATOM     26  C   UNL     1       5.832   4.045  14.629  0.00  0.00    +0.000 A 
ATOM     27  N   UNL     1       5.188   3.972  15.815  0.00  0.00    +0.000 NA
ENDBRANCH  21  22
ENDBRANCH  18  21
ENDBRANCH   3  15
TORSDOF 4
ENDMDL
MODEL 3
REMARK VINA RESULT:      -8.1      1.183      1.919
REMARK  Name = 
REMARK  4 active torsions:
REMARK  status: ('A' for Active; 'I' for Inactive)
REMARK    1  A    between atoms: C_2  and  C_17
REMARK    2  A    between atoms: N_3  and  C_4
REMARK    3  A    between atoms: C_7  and  O_8
REMARK    4  A    between atoms: O_8  and  C_9
REMARK                            x       y       z     vdW  Elec       q    Type
REMARK                         _______ _______ _______ _____ _____    ______ ____
ROOT
ATOM      1  O   UNL     1       8.251   6.558  19.051  0.00  0.00    +0.000 OA
ATOM      2  C   UNL     1       7.680   6.913  18.027  0.00  0.00    +0.000 C 
ATOM      3  N   UNL     1       7.649   8.187  17.495  0.00  0.00    +0.000 N 
ATOM      4  H   UNL     1       7.180   8.249  16.593  0.00  0.00    +0.000 HD
ENDROOT
BRANCH   2   5
ATOM      5  C   UNL     1       6.921   5.931  17.167  0.00  0.00    +0.000 A 
ATOM      6  N   UNL     1       7.423   5.847  15.887  0.00  0.00    +0.000 NA
ATOM      7  C   UNL     1       6.891   4.905  15.091  0.00  0.00    +0.000 A 
ATOM      8  C   UNL     1       5.865   4.073  15.484  0.00  0.00    +0.000 A 
ATOM      9  C   UNL     1       5.187   4.379  16.665  0.00  0.00    +0.000 A 
ATOM     10  C   UNL     1       3.889   3.891  16.864  0.00  0.00    +0.000 A 
ATOM     11  C   UNL     1       3.163   4.238  17.995  0.00  0.00    +0.000 A 
ATOM     12  C   UNL     1       3.790   4.947  19.022  0.00  0.00    +0.000 A 
ATOM     13  C   UNL     1       5.080   5.422  18.837  0.00  0.00    +0.000 A 
ATOM     14  C   UNL     1       5.763   5.260  17.603  0.00  0.00    +0.000 A 
ENDBRANCH   2   5
BRANCH   3  15
ATOM     15  C   UNL     1       8.238   9.355  18.005  0.00  0.00    +0.000 A 
ATOM     16  C   UNL     1       9.051   9.366  19.138  0.00  0.00    +0.000 A 
ATOM     17  C   UNL     1       9.618  10.557  19.593  0.00  0.00    +0.000 A 
ATOM     18  C   UNL     1       9.414  11.741  18.885  0.00  0.00    +0.000 A 
ATOM     19  C   UNL     1       8.572  11.755  17.779  0.00  0.00    +0.000 A 
ATOM     20  C   UNL     1       7.986  10.555  17.335  0.00  0.00    +0.000 A 
BRANCH  18  21
ATOM     21  O   UNL     1       9.941  12.955  19.272  0.00  0.00    +0.000 OA
BRANCH  21  22
ATOM     22  C   UNL     1       9.169  14.097  19.096  0.00  0.00    +0.000 A 
ATOM     23  C   UNL     1       9.580  15.004  18.130  0.00  0.00    +0.000 A 
ATOM     24  N   UNL     1       8.900  16.148  17.864  0.00  0.00    +0.000 NA
ATOM     25  C   UNL     1       7.792  16.344  18.616  0.00  0.00    +0.000 A 
ATOM     26  C   UNL     1       7.393  15.452  19.597  0.00  0.00    +0.000 A 
ATOM     27  N   UNL     1       8.079  14.320  19.869  0.00  0.00    +0.000 NA
ENDBRANCH  21  22
ENDBRANCH  18  21
ENDBRANCH   3  15
TORSDOF 4
ENDMDL
MODEL 4
REMARK VINA RESULT:      -8.1      7.191      9.151
REMARK  Name = 
REMARK  4 active torsions:
REMARK  status: ('A' for Active; 'I' for Inactive)
REMARK    1  A    between atoms: C_2  and  C_17
REMARK    2  A    between atoms: N_3  and  C_4
REMARK    3  A    between atoms: C_7  and  O_8
REMARK    4  A    between atoms: O_8  and  C_9
REMARK                            x       y       z     vdW  Elec       q    Type
REMARK                         _______ _______ _______ _____ _____    ______ ____
ROOT
ATOM      1  O   UNL     1       2.023   7.680  19.962  0.00  0.00    +0.000 OA
ATOM      2  C   UNL     1       2.213   7.754  18.754  0.00  0.00    +0.000 C 
ATOM      3  N   UNL     1       1.685   8.693  17.888  0.00  0.00    +0.000 N 
ATOM      4  H   UNL     1       2.033   8.619  16.934  0.00  0.00    +0.000 HD
ENDROOT
BRANCH   2   5
ATOM      5  C   UNL     1       3.120   6.784  18.038  0.00  0.00    +0.000 A 
ATOM      6  N   UNL     1       4.076   7.414  17.274  0.00  0.00    +0.000 NA
ATOM      7  C   UNL     1       5.007   6.631  16.703  0.00  0.00    +0.000 A 
ATOM      8  C   UNL     1       5.014   5.258  16.820  0.00  0.00    +0.000 A 
ATOM      9  C   UNL     1       3.879   4.637  17.342  0.00  0.00    +0.000 A 
ATOM     10  C   UNL     1       3.633   3.288  17.053  0.00  0.00    +0.000 A 
ATOM     11  C   UNL     1       2.476   2.664  17.498  0.00  0.00    +0.000 A 
ATOM     12  C   UNL     1       1.629   3.337  18.380  0.00  0.00    +0.000 A 
ATOM     13  C   UNL     1       1.875   4.669  18.682  0.00  0.00    +0.000 A 
ATOM     14  C   UNL     1       2.933   5.388  18.069  0.00  0.00    +0.000 A 
ENDBRANCH   2   5
BRANCH   3  15
ATOM     15  C   UNL     1       0.810   9.750  18.183  0.00  0.00    +0.000 A 
ATOM     16  C   UNL     1      -0.558   9.705  17.914  0.00  0.00    +0.000 A 
ATOM     17  C   UNL     1      -1.381  10.784  18.239  0.00  0.00    +0.000 A 
ATOM     18  C   UNL     1      -0.847  11.899  18.881  0.00  0.00    +0.000 A 
ATOM     19  C   UNL     1       0.521  11.978  19.118  0.00  0.00    +0.000 A 
ATOM     20  C   UNL     1       1.351  10.897  18.771  0.00  0.00    +0.000 A 
BRANCH  18  21
ATOM     21  O   UNL     1      -1.597  13.001  19.234  0.00  0.00    +0.000 OA
BRANCH  21  22
ATOM     22  C   UNL     1      -2.422  12.910  20.348  0.00  0.00    +0.000 A 
ATOM     23  C   UNL     1      -3.789  12.824  20.127  0.00  0.00    +0.000 A 
ATOM     24  N   UNL     1      -4.689  12.721  21.137  0.00  0.00    +0.000 NA
ATOM     25  C   UNL     1      -4.156  12.714  22.382  0.00  0.00    +0.000 A 
ATOM     26  C   UNL     1      -2.794  12.824  22.606  0.00  0.00    +0.000 A 
ATOM     27  N   UNL     1      -1.900  12.940  21.598  0.00  0.00    +0.000 NA
ENDBRANCH  21  22
ENDBRANCH  18  21
ENDBRANCH   3  15
TORSDOF 4
ENDMDL
MODEL 5
REMARK VINA RESULT:      -8.1      6.907      8.685
REMARK  Name = 
REMARK  4 active torsions:
REMARK  status: ('A' for Active; 'I' for Inactive)
REMARK    1  A    between atoms: C_2  and  C_17
REMARK    2  A    between atoms: N_3  and  C_4
REMARK    3  A    between atoms: C_7  and  O_8
REMARK    4  A    between atoms: O_8  and  C_9
REMARK                            x       y       z     vdW  Elec       q    Type
REMARK                         _______ _______ _______ _____ _____    ______ ____
ROOT
ATOM      1  O   UNL     1       1.548   8.623  17.645  0.00  0.00    +0.000 OA
ATOM      2  C   UNL     1       2.154   7.903  18.430  0.00  0.00    +0.000 C 
ATOM      3  N   UNL     1       2.043   7.901  19.807  0.00  0.00    +0.000 N 
ATOM      4  H   UNL     1       2.580   7.167  20.266  0.00  0.00    +0.000 HD
ENDROOT
BRANCH   2   5
ATOM      5  C   UNL     1       3.131   6.859  17.948  0.00  0.00    +0.000 A 
ATOM      6  N   UNL     1       4.232   7.406  17.327  0.00  0.00    +0.000 NA
ATOM      7  C   UNL     1       5.214   6.558  16.981  0.00  0.00    +0.000 A 
ATOM      8  C   UNL     1       5.144   5.196  17.183  0.00  0.00    +0.000 A 
ATOM      9  C   UNL     1       3.910   4.647  17.534  0.00  0.00    +0.000 A 
ATOM     10  C   UNL     1       3.662   3.290  17.291  0.00  0.00    +0.000 A 
ATOM     11  C   UNL     1       2.421   2.733  17.563  0.00  0.00    +0.000 A 
ATOM     12  C   UNL     1       1.461   3.491  18.237  0.00  0.00    +0.000 A 
ATOM     13  C   UNL     1       1.706   4.832  18.494  0.00  0.00    +0.000 A 
ATOM     14  C   UNL     1       2.884   5.475  18.033  0.00  0.00    +0.000 A 
ENDBRANCH   2   5
BRANCH   3  15
ATOM     15  C   UNL     1       1.238   8.720  20.614  0.00  0.00    +0.000 A 
ATOM     16  C   UNL     1       0.302   9.615  20.097  0.00  0.00    +0.000 A 
ATOM     17  C   UNL     1      -0.478  10.398  20.950  0.00  0.00    +0.000 A 
ATOM     18  C   UNL     1      -0.360  10.253  22.331  0.00  0.00    +0.000 A 
ATOM     19  C   UNL     1       0.598   9.397  22.862  0.00  0.00    +0.000 A 
ATOM     20  C   UNL     1       1.396   8.624  21.999  0.00  0.00    +0.000 A 
BRANCH  18  21
ATOM     21  O   UNL     1      -1.096  10.990  23.235  0.00  0.00    +0.000 OA
BRANCH  21  22
ATOM     22  C   UNL     1      -1.314  12.336  22.968  0.00  0.00    +0.000 A 
ATOM     23  C   UNL     1      -2.609  12.726  22.659  0.00  0.00    +0.000 A 
ATOM     24  N   UNL     1      -2.942  14.013  22.391  0.00  0.00    +0.000 NA
ATOM     25  C   UNL     1      -1.914  14.893  22.440  0.00  0.00    +0.000 A 
ATOM     26  C   UNL     1      -0.616  14.503  22.725  0.00  0.00    +0.000 A 
ATOM     27  N   UNL     1      -0.285  13.217  22.979  0.00  0.00    +0.000 NA
ENDBRANCH  21  22
ENDBRANCH  18  21
ENDBRANCH   3  15
TORSDOF 4
ENDMDL
MODEL 6
REMARK VINA RESULT:      -8.0      7.302      9.571
REMARK  Name = 
REMARK  4 active torsions:
REMARK  status: ('A' for Active; 'I' for Inactive)
REMARK    1  A    between atoms: C_2  and  C_17
REMARK    2  A    between atoms: N_3  and  C_4
REMARK    3  A    between atoms: C_7  and  O_8
REMARK    4  A    between atoms: O_8  and  C_9
REMARK                            x       y       z     vdW  Elec       q    Type
REMARK                         _______ _______ _______ _____ _____    ______ ____
ROOT
ATOM      1  O   UNL     1       1.849   8.185  18.436  0.00  0.00    +0.000 OA
ATOM      2  C   UNL     1       2.163   7.553  19.437  0.00  0.00    +0.000 C 
ATOM      3  N   UNL     1       1.825   7.849  20.744  0.00  0.00    +0.000 N 
ATOM      4  H   UNL     1       2.125   7.148  21.420  0.00  0.00    +0.000 HD
ENDROOT
BRANCH   2   5
ATOM      5  C   UNL     1       2.983   6.289  19.347  0.00  0.00    +0.000 A 
ATOM      6  N   UNL     1       4.146   6.460  18.629  0.00  0.00    +0.000 NA
ATOM      7  C   UNL     1       5.000   5.423  18.606  0.00  0.00    +0.000 A 
ATOM      8  C   UNL     1       4.743   4.218  19.223  0.00  0.00    +0.000 A 
ATOM      9  C   UNL     1       3.447   3.978  19.681  0.00  0.00    +0.000 A 
ATOM     10  C   UNL     1       3.012   2.659  19.868  0.00  0.00    +0.000 A 
ATOM     11  C   UNL     1       1.707   2.387  20.253  0.00  0.00    +0.000 A 
ATOM     12  C   UNL     1       0.865   3.440  20.617  0.00  0.00    +0.000 A 
ATOM     13  C   UNL     1       1.294   4.748  20.447  0.00  0.00    +0.000 A 
ATOM     14  C   UNL     1       2.548   5.050  19.854  0.00  0.00    +0.000 A 
ENDBRANCH   2   5
BRANCH   3  15
ATOM     15  C   UNL     1       1.073   8.934  21.220  0.00  0.00    +0.000 A 
ATOM     16  C   UNL     1       0.249   8.855  22.343  0.00  0.00    +0.000 A 
ATOM     17  C   UNL     1      -0.469   9.971  22.776  0.00  0.00    +0.000 A 
ATOM     18  C   UNL     1      -0.329  11.190  22.114  0.00  0.00    +0.000 A 
ATOM     19  C   UNL     1       0.455  11.274  20.968  0.00  0.00    +0.000 A 
ATOM     20  C   UNL     1       1.161  10.142  20.523  0.00  0.00    +0.000 A 
BRANCH  18  21
ATOM     21  O   UNL     1      -1.004  12.334  22.483  0.00  0.00    +0.000 OA
BRANCH  21  22
ATOM     22  C   UNL     1      -2.342  12.456  22.127  0.00  0.00    +0.000 A 
ATOM     23  C   UNL     1      -3.286  12.332  23.136  0.00  0.00    +0.000 A 
ATOM     24  N   UNL     1      -4.619  12.441  22.908  0.00  0.00    +0.000 NA
ATOM     25  C   UNL     1      -4.963  12.676  21.620  0.00  0.00    +0.000 A 
ATOM     26  C   UNL     1      -4.024  12.776  20.607  0.00  0.00    +0.000 A 
ATOM     27  N   UNL     1      -2.697  12.654  20.835  0.00  0.00    +0.000 NA
ENDBRANCH  21  22
ENDBRANCH  18  21
ENDBRANCH   3  15
TORSDOF 4
ENDMDL
MODEL 7
REMARK VINA RESULT:      -8.0      7.058     10.023
REMARK  Name = 
REMARK  4 active torsions:
REMARK  status: ('A' for Active; 'I' for Inactive)
REMARK    1  A    between atoms: C_2  and  C_17
REMARK    2  A    between atoms: N_3  and  C_4
REMARK    3  A    between atoms: C_7  and  O_8
REMARK    4  A    between atoms: O_8  and  C_9
REMARK                            x       y       z     vdW  Elec       q    Type
REMARK                         _______ _______ _______ _____ _____    ______ ____
ROOT
ATOM      1  O   UNL     1       1.614  11.801  19.616  0.00  0.00    +0.000 OA
ATOM      2  C   UNL     1       0.670  11.190  20.103  0.00  0.00    +0.000 C 
ATOM      3  N   UNL     1       0.497   9.820  20.133  0.00  0.00    +0.000 N 
ATOM      4  H   UNL     1      -0.322   9.516  20.656  0.00  0.00    +0.000 HD
ENDROOT
BRANCH   2   5
ATOM      5  C   UNL     1      -0.466  11.910  20.786  0.00  0.00    +0.000 A 
ATOM      6  N   UNL     1      -0.190  12.213  22.101  0.00  0.00    +0.000 NA
ATOM      7  C   UNL     1      -1.093  12.967  22.751  0.00  0.00    +0.000 A 
ATOM      8  C   UNL     1      -2.268  13.401  22.177  0.00  0.00    +0.000 A 
ATOM      9  C   UNL     1      -2.653  12.836  20.960  0.00  0.00    +0.000 A 
ATOM     10  C   UNL     1      -4.001  12.867  20.579  0.00  0.00    +0.000 A 
ATOM     11  C   UNL     1      -4.425  12.250  19.410  0.00  0.00    +0.000 A 
ATOM     12  C   UNL     1      -3.477  11.736  18.523  0.00  0.00    +0.000 A 
ATOM     13  C   UNL     1      -2.139  11.716  18.888  0.00  0.00    +0.000 A 
ATOM     14  C   UNL     1      -1.710  12.147  20.171  0.00  0.00    +0.000 A 
ENDBRANCH   2   5
BRANCH   3  15
ATOM     15  C   UNL     1       1.339   8.827  19.608  0.00  0.00    +0.000 A 
ATOM     16  C   UNL     1       1.700   7.680  20.314  0.00  0.00    +0.000 A 
ATOM     17  C   UNL     1       2.533   6.722  19.735  0.00  0.00    +0.000 A 
ATOM     18  C   UNL     1       2.974   6.884  18.423  0.00  0.00    +0.000 A 
ATOM     19  C   UNL     1       2.659   8.042  17.720  0.00  0.00    +0.000 A 
ATOM     20  C   UNL     1       1.835   9.015  18.314  0.00  0.00    +0.000 A 
BRANCH  18  21
ATOM     21  O   UNL     1       3.797   5.981  17.784  0.00  0.00    +0.000 OA
BRANCH  21  22
ATOM     22  C   UNL     1       5.152   5.988  18.095  0.00  0.00    +0.000 A 
ATOM     23  C   UNL     1       5.558   5.256  19.201  0.00  0.00    +0.000 A 
ATOM     24  N   UNL     1       6.855   5.181  19.594  0.00  0.00    +0.000 NA
ATOM     25  C   UNL     1       7.726   5.881  18.829  0.00  0.00    +0.000 A 
ATOM     26  C   UNL     1       7.320   6.632  17.739  0.00  0.00    +0.000 A 
ATOM     27  N   UNL     1       6.026   6.715  17.358  0.00  0.00    +0.000 NA
ENDBRANCH  21  22
ENDBRANCH  18  21
ENDBRANCH   3  15
TORSDOF 4
ENDMDL
MODEL 8
REMARK VINA RESULT:      -8.0      1.513      2.232
REMARK  Name = 
REMARK  4 active torsions:
REMARK  status: ('A' for Active; 'I' for Inactive)
REMARK    1  A    between atoms: C_2  and  C_17
REMARK    2  A    between atoms: N_3  and  C_4
REMARK    3  A    between atoms: C_7  and  O_8
REMARK    4  A    between atoms: O_8  and  C_9
REMARK                            x       y       z     vdW  Elec       q    Type
REMARK                         _______ _______ _______ _____ _____    ______ ____
ROOT
ATOM      1  O   UNL     1       8.257   6.553  19.028  0.00  0.00    +0.000 OA
ATOM      2  C   UNL     1       7.681   6.919  18.010  0.00  0.00    +0.000 C 
ATOM      3  N   UNL     1       7.646   8.199  17.493  0.00  0.00    +0.000 N 
ATOM      4  H   UNL     1       7.173   8.271  16.593  0.00  0.00    +0.000 HD
ENDROOT
BRANCH   2   5
ATOM      5  C   UNL     1       6.919   5.946  17.143  0.00  0.00    +0.000 A 
ATOM      6  N   UNL     1       7.431   5.857  15.868  0.00  0.00    +0.000 NA
ATOM      7  C   UNL     1       6.896   4.922  15.065  0.00  0.00    +0.000 A 
ATOM      8  C   UNL     1       5.858   4.101  15.449  0.00  0.00    +0.000 A 
ATOM      9  C   UNL     1       5.172   4.414  16.624  0.00  0.00    +0.000 A 
ATOM     10  C   UNL     1       3.868   3.939  16.811  0.00  0.00    +0.000 A 
ATOM     11  C   UNL     1       3.135   4.293  17.936  0.00  0.00    +0.000 A 
ATOM     12  C   UNL     1       3.760   4.995  18.969  0.00  0.00    +0.000 A 
ATOM     13  C   UNL     1       5.057   5.456  18.796  0.00  0.00    +0.000 A 
ATOM     14  C   UNL     1       5.749   5.288  17.568  0.00  0.00    +0.000 A 
ENDBRANCH   2   5
BRANCH   3  15
ATOM     15  C   UNL     1       8.237   9.361  18.013  0.00  0.00    +0.000 A 
ATOM     16  C   UNL     1       9.063   9.359  19.136  0.00  0.00    +0.000 A 
ATOM     17  C   UNL     1       9.631  10.546  19.602  0.00  0.00    +0.000 A 
ATOM     18  C   UNL     1       9.413  11.739  18.915  0.00  0.00    +0.000 A 
ATOM     19  C   UNL     1       8.558  11.766  17.819  0.00  0.00    +0.000 A 
ATOM     20  C   UNL     1       7.972  10.571  17.364  0.00  0.00    +0.000 A 
BRANCH  18  21
ATOM     21  O   UNL     1       9.941  12.949  19.313  0.00  0.00    +0.000 OA
BRANCH  21  22
ATOM     22  C   UNL     1       9.065  13.953  19.709  0.00  0.00    +0.000 A 
ATOM     23  C   UNL     1       8.387  13.776  20.906  0.00  0.00    +0.000 A 
ATOM     24  N   UNL     1       7.515  14.693  21.397  0.00  0.00    +0.000 NA
ATOM     25  C   UNL     1       7.349  15.794  20.627  0.00  0.00    +0.000 A 
ATOM     26  C   UNL     1       8.006  15.962  19.420  0.00  0.00    +0.000 A 
ATOM     27  N   UNL     1       8.864  15.042  18.928  0.00  0.00    +0.000 NA
ENDBRANCH  21  22
ENDBRANCH  18  21
ENDBRANCH   3  15
TORSDOF 4
ENDMDL
MODEL 9
REMARK VINA RESULT:      -7.9      6.737      9.999
REMARK  Name = 
REMARK  4 active torsions:
REMARK  status: ('A' for Active; 'I' for Inactive)
REMARK    1  A    between atoms: C_2  and  C_17
REMARK    2  A    between atoms: N_3  and  C_4
REMARK    3  A    between atoms: C_7  and  O_8
REMARK    4  A    between atoms: O_8  and  C_9
REMARK                            x       y       z     vdW  Elec       q    Type
REMARK                         _______ _______ _______ _____ _____    ______ ____
ROOT
ATOM      1  O   UNL     1      -0.770  10.030  18.075  0.00  0.00    +0.000 OA
ATOM      2  C   UNL     1       0.016  10.603  18.820  0.00  0.00    +0.000 C 
ATOM      3  N   UNL     1       1.219  10.113  19.291  0.00  0.00    +0.000 N 
ATOM      4  H   UNL     1       1.756  10.784  19.838  0.00  0.00    +0.000 HD
ENDROOT
BRANCH   2   5
ATOM      5  C   UNL     1      -0.247  12.004  19.317  0.00  0.00    +0.000 A 
ATOM      6  N   UNL     1       0.188  12.971  18.438  0.00  0.00    +0.000 NA
ATOM      7  C   UNL     1      -0.120  14.243  18.739  0.00  0.00    +0.000 A 
ATOM      8  C   UNL     1      -0.801  14.607  19.880  0.00  0.00    +0.000 A 
ATOM      9  C   UNL     1      -0.962  13.649  20.882  0.00  0.00    +0.000 A 
ATOM     10  C   UNL     1      -1.200  14.060  22.201  0.00  0.00    +0.000 A 
ATOM     11  C   UNL     1      -1.293  13.134  23.230  0.00  0.00    +0.000 A 
ATOM     12  C   UNL     1      -1.313  11.771  22.926  0.00  0.00    +0.000 A 
ATOM     13  C   UNL     1      -1.092  11.358  21.621  0.00  0.00    +0.000 A 
ATOM     14  C   UNL     1      -0.783  12.282  20.589  0.00  0.00    +0.000 A 
ENDBRANCH   2   5
BRANCH   3  15
ATOM     15  C   UNL     1       1.801   8.860  19.044  0.00  0.00    +0.000 A 
ATOM     16  C   UNL     1       2.432   8.536  17.843  0.00  0.00    +0.000 A 
ATOM     17  C   UNL     1       3.002   7.275  17.658  0.00  0.00    +0.000 A 
ATOM     18  C   UNL     1       2.986   6.345  18.696  0.00  0.00    +0.000 A 
ATOM     19  C   UNL     1       2.325   6.636  19.884  0.00  0.00    +0.000 A 
ATOM     20  C   UNL     1       1.734   7.901  20.059  0.00  0.00    +0.000 A 
BRANCH  18  21
ATOM     21  O   UNL     1       3.529   5.082  18.588  0.00  0.00    +0.000 OA
BRANCH  21  22
ATOM     22  C   UNL     1       4.879   4.967  18.279  0.00  0.00    +0.000 A 
ATOM     23  C   UNL     1       5.793   5.269  19.278  0.00  0.00    +0.000 A 
ATOM     24  N   UNL     1       7.134   5.184  19.095  0.00  0.00    +0.000 NA
ATOM     25  C   UNL     1       7.519   4.788  17.858  0.00  0.00    +0.000 A 
ATOM     26  C   UNL     1       6.610   4.509  16.852  0.00  0.00    +0.000 A 
ATOM     27  N   UNL     1       5.274   4.607  17.034  0.00  0.00    +0.000 NA
ENDBRANCH  21  22
ENDBRANCH  18  21
ENDBRANCH   3  15
TORSDOF 4
ENDMDL
