MODEL 1
REMARK VINA RESULT:      -7.7      0.000      0.000
REMARK  Name = 
REMARK  4 active torsions:
REMARK  status: ('A' for Active; 'I' for Inactive)
REMARK    1  A    between atoms: C_1  and  C_2
REMARK    2  A    between atoms: C_9  and  C_10
REMARK    3  A    between atoms: N_20  and  C_21
REMARK    4  A    between atoms: C_24  and  C_25
REMARK                            x       y       z     vdW  Elec       q    Type
REMARK                         _______ _______ _______ _____ _____    ______ ____
ROOT
ATOM      1  C   UNL     1      -4.544  11.457  17.146  0.00  0.00    +0.000 C 
ATOM      2  C   UNL     1      -3.190  11.041  17.633  0.00  0.00    +0.000 A 
ATOM      3  N   UNL     1      -2.846  11.444  18.880  0.00  0.00    +0.000 NA
ATOM      4  C   UNL     1      -1.632  11.087  19.337  0.00  0.00    +0.000 A 
ATOM      5  C   UNL     1      -1.310  11.488  20.623  0.00  0.00    +0.000 A 
ATOM      6  C   UNL     1      -0.098  11.135  21.181  0.00  0.00    +0.000 A 
ATOM      7  F   UNL     1       0.198  11.523  22.428  0.00  0.00    +0.000 F 
ATOM      8  C   UNL     1       0.817  10.389  20.464  0.00  0.00    +0.000 A 
ATOM      9  C   UNL     1       0.539  10.034  19.137  0.00  0.00    +0.000 A 
ATOM     10  C   UNL     1      -0.709  10.344  18.558  0.00  0.00    +0.000 A 
ATOM     11  N   UNL     1      -1.070   9.978  17.301  0.00  0.00    +0.000 NA
ATOM     12  C   UNL     1      -2.314  10.293  16.857  0.00  0.00    +0.000 A 
ATOM     13  C   UNL     1      -2.677   9.800  15.490  0.00  0.00    +0.000 C 
ENDROOT
BRANCH   9  14
ATOM     14  C   UNL     1       1.574   9.271  18.374  0.00  0.00    +0.000 C 
ATOM     15  O   UNL     1       2.072   9.759  17.366  0.00  0.00    +0.000 OA
ATOM     16  N   UNL     1       1.910   7.986  18.807  0.00  0.00    +0.000 N 
ATOM     17  C   UNL     1       2.863   7.149  18.075  0.00  0.00    +0.000 C 
ATOM     18  C   UNL     1       2.904   5.780  18.818  0.00  0.00    +0.000 C 
ATOM     19  C   UNL     1       2.571   6.241  20.258  0.00  0.00    +0.000 C 
ATOM     20  C   UNL     1       1.544   7.353  20.061  0.00  0.00    +0.000 C 
ATOM     21  O   UNL     1       2.155   5.204  21.143  0.00  0.00    +0.000 OA
ATOM     22  C   UNL     1       1.106   4.404  20.595  0.00  0.00    +0.000 C 
ATOM     23  C   UNL     1       1.513   3.796  19.252  0.00  0.00    +0.000 C 
ATOM     24  N   UNL     1       1.950   4.789  18.247  0.00  0.00    +0.000 NA
ATOM     25  C   UNL     1       2.574   4.066  17.126  0.00  0.00    +0.000 C 
ENDBRANCH   9  14
TORSDOF 1
ENDMDL
MODEL 2
REMARK VINA RESULT:      -7.3      2.839      7.600
REMARK  Name = 
REMARK  4 active torsions:
REMARK  status: ('A' for Active; 'I' for Inactive)
REMARK    1  A    between atoms: C_1  and  C_2
REMARK    2  A    between atoms: C_9  and  C_10
REMARK    3  A    between atoms: N_20  and  C_21
REMARK    4  A    between atoms: C_24  and  C_25
REMARK                            x       y       z     vdW  Elec       q    Type
REMARK                         _______ _______ _______ _____ _____    ______ ____
ROOT
ATOM      1  C   UNL     1       6.371   4.389  15.520  0.00  0.00    +0.000 C 
ATOM      2  C   UNL     1       5.322   4.542  16.579  0.00  0.00    +0.000 A 
ATOM      3  N   UNL     1       4.287   3.670  16.535  0.00  0.00    +0.000 NA
ATOM      4  C   UNL     1       3.330   3.793  17.473  0.00  0.00    +0.000 A 
ATOM      5  C   UNL     1       2.292   2.876  17.425  0.00  0.00    +0.000 A 
ATOM      6  C   UNL     1       1.286   2.910  18.370  0.00  0.00    +0.000 A 
ATOM      7  F   UNL     1       0.294   2.014  18.316  0.00  0.00    +0.000 F 
ATOM      8  C   UNL     1       1.291   3.864  19.368  0.00  0.00    +0.000 A 
ATOM      9  C   UNL     1       2.293   4.843  19.393  0.00  0.00    +0.000 A 
ATOM     10  C   UNL     1       3.356   4.805  18.465  0.00  0.00    +0.000 A 
ATOM     11  N   UNL     1       4.392   5.683  18.468  0.00  0.00    +0.000 NA
ATOM     12  C   UNL     1       5.385   5.529  17.555  0.00  0.00    +0.000 A 
ATOM     13  C   UNL     1       6.534   6.485  17.654  0.00  0.00    +0.000 C 
ENDROOT
BRANCH   9  14
ATOM     14  C   UNL     1       2.238   5.891  20.457  0.00  0.00    +0.000 C 
ATOM     15  O   UNL     1       2.496   5.597  21.618  0.00  0.00    +0.000 OA
ATOM     16  N   UNL     1       1.838   7.182  20.102  0.00  0.00    +0.000 N 
ATOM     17  C   UNL     1       1.692   8.247  21.097  0.00  0.00    +0.000 C 
ATOM     18  C   UNL     1       1.157   9.493  20.330  0.00  0.00    +0.000 C 
ATOM     19  C   UNL     1       1.766   9.234  18.930  0.00  0.00    +0.000 C 
ATOM     20  C   UNL     1       1.675   7.719  18.763  0.00  0.00    +0.000 C 
ATOM     21  O   UNL     1       1.177   9.980  17.868  0.00  0.00    +0.000 OA
ATOM     22  C   UNL     1      -0.247   9.873  17.847  0.00  0.00    +0.000 C 
ATOM     23  C   UNL     1      -0.859  10.310  19.179  0.00  0.00    +0.000 C 
ATOM     24  N   UNL     1      -0.329   9.585  20.353  0.00  0.00    +0.000 NA
ATOM     25  C   UNL     1      -0.778  10.287  21.568  0.00  0.00    +0.000 C 
ENDBRANCH   9  14
TORSDOF 1
ENDMDL
MODEL 3
REMARK VINA RESULT:      -7.0      3.700      6.908
REMARK  Name = 
REMARK  4 active torsions:
REMARK  status: ('A' for Active; 'I' for Inactive)
REMARK    1  A    between atoms: C_1  and  C_2
REMARK    2  A    between atoms: C_9  and  C_10
REMARK    3  A    between atoms: N_20  and  C_21
REMARK    4  A    between atoms: C_24  and  C_25
REMARK                            x       y       z     vdW  Elec       q    Type
REMARK                         _______ _______ _______ _____ _____    ______ ____
ROOT
ATOM      1  C   UNL     1       2.792   5.930  19.546  0.00  0.00    +0.000 C 
ATOM      2  C   UNL     1       2.118   7.257  19.722  0.00  0.00    +0.000 A 
ATOM      3  N   UNL     1       1.407   7.427  20.862  0.00  0.00    +0.000 NA
ATOM      4  C   UNL     1       0.788   8.608  21.039  0.00  0.00    +0.000 A 
ATOM      5  C   UNL     1       0.086   8.770  22.223  0.00  0.00    +0.000 A 
ATOM      6  C   UNL     1      -0.551   9.963  22.499  0.00  0.00    +0.000 A 
ATOM      7  F   UNL     1      -1.218  10.109  23.650  0.00  0.00    +0.000 F 
ATOM      8  C   UNL     1      -0.510  11.008  21.597  0.00  0.00    +0.000 A 
ATOM      9  C   UNL     1       0.135  10.840  20.364  0.00  0.00    +0.000 A 
ATOM     10  C   UNL     1       0.830   9.646  20.075  0.00  0.00    +0.000 A 
ATOM     11  N   UNL     1       1.527   9.437  18.929  0.00  0.00    +0.000 NA
ATOM     12  C   UNL     1       2.195   8.266  18.771  0.00  0.00    +0.000 A 
ATOM     13  C   UNL     1       3.003   8.125  17.517  0.00  0.00    +0.000 C 
ENDROOT
BRANCH   9  14
ATOM     14  C   UNL     1       0.115  11.974  19.391  0.00  0.00    +0.000 C 
ATOM     15  O   UNL     1      -0.623  11.927  18.413  0.00  0.00    +0.000 OA
ATOM     16  N   UNL     1       0.986  13.046  19.598  0.00  0.00    +0.000 N 
ATOM     17  C   UNL     1       1.077  14.162  18.653  0.00  0.00    +0.000 C 
ATOM     18  C   UNL     1       2.204  15.097  19.186  0.00  0.00    +0.000 C 
ATOM     19  C   UNL     1       2.096  14.816  20.705  0.00  0.00    +0.000 C 
ATOM     20  C   UNL     1       1.779  13.324  20.782  0.00  0.00    +0.000 C 
ATOM     21  O   UNL     1       3.226  15.218  21.474  0.00  0.00    +0.000 OA
ATOM     22  C   UNL     1       4.457  14.730  20.938  0.00  0.00    +0.000 C 
ATOM     23  C   UNL     1       4.645  15.171  19.486  0.00  0.00    +0.000 C 
ATOM     24  N   UNL     1       3.533  14.789  18.590  0.00  0.00    +0.000 NA
ATOM     25  C   UNL     1       3.700  15.508  17.316  0.00  0.00    +0.000 C 
ENDBRANCH   9  14
TORSDOF 1
ENDMDL
MODEL 4
REMARK VINA RESULT:      -6.8      1.290      1.471
REMARK  Name = 
REMARK  4 active torsions:
REMARK  status: ('A' for Active; 'I' for Inactive)
REMARK    1  A    between atoms: C_1  and  C_2
REMARK    2  A    between atoms: C_9  and  C_10
REMARK    3  A    between atoms: N_20  and  C_21
REMARK    4  A    between atoms: C_24  and  C_25
REMARK                            x       y       z     vdW  Elec       q    Type
REMARK                         _______ _______ _______ _____ _____    ______ ____
ROOT
ATOM      1  C   UNL     1      -3.438  11.935  18.442  0.00  0.00    +0.000 C 
ATOM      2  C   UNL     1      -2.235  11.125  18.818  0.00  0.00    +0.000 A 
ATOM      3  N   UNL     1      -1.892  11.124  20.128  0.00  0.00    +0.000 NA
ATOM      4  C   UNL     1      -0.811  10.408  20.488  0.00  0.00    +0.000 A 
ATOM      5  C   UNL     1      -0.492  10.402  21.836  0.00  0.00    +0.000 A 
ATOM      6  C   UNL     1       0.582   9.666  22.295  0.00  0.00    +0.000 A 
ATOM      7  F   UNL     1       0.875   9.662  23.601  0.00  0.00    +0.000 F 
ATOM      8  C   UNL     1       1.361   8.935  21.419  0.00  0.00    +0.000 A 
ATOM      9  C   UNL     1       1.097   8.985  20.044  0.00  0.00    +0.000 A 
ATOM     10  C   UNL     1      -0.020   9.694  19.553  0.00  0.00    +0.000 A 
ATOM     11  N   UNL     1      -0.372   9.735  18.242  0.00  0.00    +0.000 NA
ATOM     12  C   UNL     1      -1.491  10.415  17.884  0.00  0.00    +0.000 A 
ATOM     13  C   UNL     1      -1.866  10.363  16.434  0.00  0.00    +0.000 C 
ENDROOT
BRANCH   9  14
ATOM     14  C   UNL     1       1.992   8.223  19.120  0.00  0.00    +0.000 C 
ATOM     15  O   UNL     1       2.479   8.782  18.144  0.00  0.00    +0.000 OA
ATOM     16  N   UNL     1       2.208   6.866  19.369  0.00  0.00    +0.000 N 
ATOM     17  C   UNL     1       3.015   6.035  18.473  0.00  0.00    +0.000 C 
ATOM     18  C   UNL     1       2.949   4.586  19.040  0.00  0.00    +0.000 C 
ATOM     19  C   UNL     1       2.758   4.891  20.546  0.00  0.00    +0.000 C 
ATOM     20  C   UNL     1       1.850   6.119  20.561  0.00  0.00    +0.000 C 
ATOM     21  O   UNL     1       2.282   3.798  21.328  0.00  0.00    +0.000 OA
ATOM     22  C   UNL     1       1.120   3.187  20.766  0.00  0.00    +0.000 C 
ATOM     23  C   UNL     1       1.375   2.717  19.333  0.00  0.00    +0.000 C 
ATOM     24  N   UNL     1       1.857   3.780  18.426  0.00  0.00    +0.000 NA
ATOM     25  C   UNL     1       2.329   3.145  17.184  0.00  0.00    +0.000 C 
ENDBRANCH   9  14
TORSDOF 1
ENDMDL
MODEL 5
REMARK VINA RESULT:      -6.5      2.030      3.298
REMARK  Name = 
REMARK  4 active torsions:
REMARK  status: ('A' for Active; 'I' for Inactive)
REMARK    1  A    between atoms: C_1  and  C_2
REMARK    2  A    between atoms: C_9  and  C_10
REMARK    3  A    between atoms: N_20  and  C_21
REMARK    4  A    between atoms: C_24  and  C_25
REMARK                            x       y       z     vdW  Elec       q    Type
REMARK                         _______ _______ _______ _____ _____    ______ ____
ROOT
ATOM      1  C   UNL     1      -0.564  14.445  21.773  0.00  0.00    +0.000 C 
ATOM      2  C   UNL     1      -0.289  13.304  20.842  0.00  0.00    +0.000 A 
ATOM      3  N   UNL     1      -1.367  12.717  20.272  0.00  0.00    +0.000 NA
ATOM      4  C   UNL     1      -1.145  11.686  19.436  0.00  0.00    +0.000 A 
ATOM      5  C   UNL     1      -2.261  11.114  18.845  0.00  0.00    +0.000 A 
ATOM      6  C   UNL     1      -2.119  10.074  17.949  0.00  0.00    +0.000 A 
ATOM      7  F   UNL     1      -3.204   9.536  17.379  0.00  0.00    +0.000 F 
ATOM      8  C   UNL     1      -0.868   9.578  17.637  0.00  0.00    +0.000 A 
ATOM      9  C   UNL     1       0.266  10.096  18.277  0.00  0.00    +0.000 A 
ATOM     10  C   UNL     1       0.154  11.188  19.164  0.00  0.00    +0.000 A 
ATOM     11  N   UNL     1       1.215  11.779  19.771  0.00  0.00    +0.000 NA
ATOM     12  C   UNL     1       0.997  12.851  20.574  0.00  0.00    +0.000 A 
ATOM     13  C   UNL     1       2.213  13.503  21.158  0.00  0.00    +0.000 C 
ENDROOT
BRANCH   9  14
ATOM     14  C   UNL     1       1.599   9.501  17.954  0.00  0.00    +0.000 C 
ATOM     15  O   UNL     1       2.337  10.057  17.150  0.00  0.00    +0.000 OA
ATOM     16  N   UNL     1       1.947   8.284  18.546  0.00  0.00    +0.000 N 
ATOM     17  C   UNL     1       3.204   7.602  18.228  0.00  0.00    +0.000 C 
ATOM     18  C   UNL     1       3.184   6.258  19.015  0.00  0.00    +0.000 C 
ATOM     19  C   UNL     1       2.313   6.665  20.229  0.00  0.00    +0.000 C 
ATOM     20  C   UNL     1       1.267   7.604  19.633  0.00  0.00    +0.000 C 
ATOM     21  O   UNL     1       1.772   5.578  20.975  0.00  0.00    +0.000 OA
ATOM     22  C   UNL     1       1.103   4.625  20.149  0.00  0.00    +0.000 C 
ATOM     23  C   UNL     1       2.031   4.084  19.060  0.00  0.00    +0.000 C 
ATOM     24  N   UNL     1       2.638   5.130  18.210  0.00  0.00    +0.000 NA
ATOM     25  C   UNL     1       3.707   4.510  17.410  0.00  0.00    +0.000 C 
ENDBRANCH   9  14
TORSDOF 1
ENDMDL
MODEL 6
REMARK VINA RESULT:      -6.5      4.762      8.128
REMARK  Name = 
REMARK  4 active torsions:
REMARK  status: ('A' for Active; 'I' for Inactive)
REMARK    1  A    between atoms: C_1  and  C_2
REMARK    2  A    between atoms: C_9  and  C_10
REMARK    3  A    between atoms: N_20  and  C_21
REMARK    4  A    between atoms: C_24  and  C_25
REMARK                            x       y       z     vdW  Elec       q    Type
REMARK                         _______ _______ _______ _____ _____    ______ ____
ROOT
ATOM      1  C   UNL     1       3.130  13.536  18.183  0.00  0.00    +0.000 C 
ATOM      2  C   UNL     1       2.105  13.155  19.207  0.00  0.00    +0.000 A 
ATOM      3  N   UNL     1       1.922  11.829  19.415  0.00  0.00    +0.000 NA
ATOM      4  C   UNL     1       1.003  11.462  20.326  0.00  0.00    +0.000 A 
ATOM      5  C   UNL     1       0.848  10.102  20.540  0.00  0.00    +0.000 A 
ATOM      6  C   UNL     1      -0.050   9.642  21.482  0.00  0.00    +0.000 A 
ATOM      7  F   UNL     1      -0.184   8.326  21.684  0.00  0.00    +0.000 F 
ATOM      8  C   UNL     1      -0.816  10.526  22.215  0.00  0.00    +0.000 A 
ATOM      9  C   UNL     1      -0.725  11.902  21.965  0.00  0.00    +0.000 A 
ATOM     10  C   UNL     1       0.215  12.402  21.039  0.00  0.00    +0.000 A 
ATOM     11  N   UNL     1       0.401  13.723  20.790  0.00  0.00    +0.000 NA
ATOM     12  C   UNL     1       1.364  14.097  19.909  0.00  0.00    +0.000 A 
ATOM     13  C   UNL     1       1.568  15.570  19.731  0.00  0.00    +0.000 C 
ENDROOT
BRANCH   9  14
ATOM     14  C   UNL     1      -1.607  12.826  22.741  0.00  0.00    +0.000 C 
ATOM     15  O   UNL     1      -1.185  13.359  23.760  0.00  0.00    +0.000 OA
ATOM     16  N   UNL     1      -2.920  13.019  22.305  0.00  0.00    +0.000 N 
ATOM     17  C   UNL     1      -3.867  13.853  23.048  0.00  0.00    +0.000 C 
ATOM     18  C   UNL     1      -5.227  13.748  22.296  0.00  0.00    +0.000 C 
ATOM     19  C   UNL     1      -4.723  13.499  20.853  0.00  0.00    +0.000 C 
ATOM     20  C   UNL     1      -3.500  12.604  21.040  0.00  0.00    +0.000 C 
ATOM     21  O   UNL     1      -5.700  12.981  19.954  0.00  0.00    +0.000 OA
ATOM     22  C   UNL     1      -6.375  11.836  20.478  0.00  0.00    +0.000 C 
ATOM     23  C   UNL     1      -7.033  12.145  21.824  0.00  0.00    +0.000 C 
ATOM     24  N   UNL     1      -6.103  12.675  22.843  0.00  0.00    +0.000 NA
ATOM     25  C   UNL     1      -6.899  13.190  23.969  0.00  0.00    +0.000 C 
ENDBRANCH   9  14
TORSDOF 1
ENDMDL
MODEL 7
REMARK VINA RESULT:      -6.5      4.700      7.533
REMARK  Name = 
REMARK  4 active torsions:
REMARK  status: ('A' for Active; 'I' for Inactive)
REMARK    1  A    between atoms: C_1  and  C_2
REMARK    2  A    between atoms: C_9  and  C_10
REMARK    3  A    between atoms: N_20  and  C_21
REMARK    4  A    between atoms: C_24  and  C_25
REMARK                            x       y       z     vdW  Elec       q    Type
REMARK                         _______ _______ _______ _____ _____    ______ ____
ROOT
ATOM      1  C   UNL     1       1.505   2.622  20.995  0.00  0.00    +0.000 C 
ATOM      2  C   UNL     1       2.326   3.585  20.194  0.00  0.00    +0.000 A 
ATOM      3  N   UNL     1       1.689   4.691  19.740  0.00  0.00    +0.000 NA
ATOM      4  C   UNL     1       2.405   5.568  19.013  0.00  0.00    +0.000 A 
ATOM      5  C   UNL     1       1.741   6.704  18.579  0.00  0.00    +0.000 A 
ATOM      6  C   UNL     1       2.411   7.670  17.856  0.00  0.00    +0.000 A 
ATOM      7  F   UNL     1       1.759   8.766  17.450  0.00  0.00    +0.000 F 
ATOM      8  C   UNL     1       3.747   7.516  17.543  0.00  0.00    +0.000 A 
ATOM      9  C   UNL     1       4.418   6.342  17.912  0.00  0.00    +0.000 A 
ATOM     10  C   UNL     1       3.770   5.359  18.689  0.00  0.00    +0.000 A 
ATOM     11  N   UNL     1       4.375   4.228  19.133  0.00  0.00    +0.000 NA
ATOM     12  C   UNL     1       3.669   3.367  19.910  0.00  0.00    +0.000 A 
ATOM     13  C   UNL     1       4.412   2.175  20.428  0.00  0.00    +0.000 C 
ENDROOT
BRANCH   9  14
ATOM     14  C   UNL     1       5.850   6.186  17.512  0.00  0.00    +0.000 C 
ATOM     15  O   UNL     1       6.729   6.747  18.155  0.00  0.00    +0.000 OA
ATOM     16  N   UNL     1       6.145   5.438  16.370  0.00  0.00    +0.000 N 
ATOM     17  C   UNL     1       7.515   5.295  15.872  0.00  0.00    +0.000 C 
ATOM     18  C   UNL     1       7.419   4.470  14.554  0.00  0.00    +0.000 C 
ATOM     19  C   UNL     1       6.156   3.625  14.851  0.00  0.00    +0.000 C 
ATOM     20  C   UNL     1       5.245   4.582  15.618  0.00  0.00    +0.000 C 
ATOM     21  O   UNL     1       5.551   3.022  13.711  0.00  0.00    +0.000 OA
ATOM     22  C   UNL     1       5.318   3.956  12.655  0.00  0.00    +0.000 C 
ATOM     23  C   UNL     1       6.611   4.656  12.236  0.00  0.00    +0.000 C 
ATOM     24  N   UNL     1       7.317   5.334  13.344  0.00  0.00    +0.000 NA
ATOM     25  C   UNL     1       8.660   5.711  12.872  0.00  0.00    +0.000 C 
ENDBRANCH   9  14
TORSDOF 1
ENDMDL
MODEL 8
REMARK VINA RESULT:      -6.5      9.022     10.910
REMARK  Name = 
REMARK  4 active torsions:
REMARK  status: ('A' for Active; 'I' for Inactive)
REMARK    1  A    between atoms: C_1  and  C_2
REMARK    2  A    between atoms: C_9  and  C_10
REMARK    3  A    between atoms: N_20  and  C_21
REMARK    4  A    between atoms: C_24  and  C_25
REMARK                            x       y       z     vdW  Elec       q    Type
REMARK                         _______ _______ _______ _____ _____    ______ ____
ROOT
ATOM      1  C   UNL     1      10.749  11.637  17.566  0.00  0.00    +0.000 C 
ATOM      2  C   UNL     1       9.831  12.575  18.288  0.00  0.00    +0.000 A 
ATOM      3  N   UNL     1       8.717  12.962  17.622  0.00  0.00    +0.000 NA
ATOM      4  C   UNL     1       7.880  13.809  18.249  0.00  0.00    +0.000 A 
ATOM      5  C   UNL     1       6.735  14.174  17.559  0.00  0.00    +0.000 A 
ATOM      6  C   UNL     1       5.807  15.013  18.143  0.00  0.00    +0.000 A 
ATOM      7  F   UNL     1       4.702  15.352  17.469  0.00  0.00    +0.000 F 
ATOM      8  C   UNL     1       6.010  15.511  19.415  0.00  0.00    +0.000 A 
ATOM      9  C   UNL     1       7.194  15.210  20.101  0.00  0.00    +0.000 A 
ATOM     10  C   UNL     1       8.139  14.321  19.546  0.00  0.00    +0.000 A 
ATOM     11  N   UNL     1       9.277  13.937  20.178  0.00  0.00    +0.000 NA
ATOM     12  C   UNL     1      10.097  13.042  19.569  0.00  0.00    +0.000 A 
ATOM     13  C   UNL     1      11.299  12.604  20.347  0.00  0.00    +0.000 C 
ENDROOT
BRANCH   9  14
ATOM     14  C   UNL     1       7.404  15.808  21.455  0.00  0.00    +0.000 C 
ATOM     15  O   UNL     1       7.906  16.921  21.560  0.00  0.00    +0.000 OA
ATOM     16  N   UNL     1       7.065  15.051  22.579  0.00  0.00    +0.000 N 
ATOM     17  C   UNL     1       7.304  15.537  23.939  0.00  0.00    +0.000 C 
ATOM     18  C   UNL     1       6.875  14.386  24.898  0.00  0.00    +0.000 C 
ATOM     19  C   UNL     1       5.776  13.711  24.040  0.00  0.00    +0.000 C 
ATOM     20  C   UNL     1       6.311  13.811  22.613  0.00  0.00    +0.000 C 
ATOM     21  O   UNL     1       5.419  12.392  24.445  0.00  0.00    +0.000 OA
ATOM     22  C   UNL     1       6.555  11.541  24.604  0.00  0.00    +0.000 C 
ATOM     23  C   UNL     1       7.556  12.128  25.601  0.00  0.00    +0.000 C 
ATOM     24  N   UNL     1       8.009  13.495  25.267  0.00  0.00    +0.000 NA
ATOM     25  C   UNL     1       8.728  14.039  26.432  0.00  0.00    +0.000 C 
ENDBRANCH   9  14
TORSDOF 1
ENDMDL
MODEL 9
REMARK VINA RESULT:      -6.5      4.858      8.369
REMARK  Name = 
REMARK  4 active torsions:
REMARK  status: ('A' for Active; 'I' for Inactive)
REMARK    1  A    between atoms: C_1  and  C_2
REMARK    2  A    between atoms: C_9  and  C_10
REMARK    3  A    between atoms: N_20  and  C_21
REMARK    4  A    between atoms: C_24  and  C_25
REMARK                            x       y       z     vdW  Elec       q    Type
REMARK                         _______ _______ _______ _____ _____    ______ ____
ROOT
ATOM      1  C   UNL     1       2.440  11.983  17.923  0.00  0.00    +0.000 C 
ATOM      2  C   UNL     1       1.530  12.069  19.110  0.00  0.00    +0.000 A 
ATOM      3  N   UNL     1       1.282  10.912  19.767  0.00  0.00    +0.000 NA
ATOM      4  C   UNL     1       0.464  10.964  20.834  0.00  0.00    +0.000 A 
ATOM      5  C   UNL     1       0.242   9.773  21.506  0.00  0.00    +0.000 A 
ATOM      6  C   UNL     1      -0.558   9.745  22.630  0.00  0.00    +0.000 A 
ATOM      7  F   UNL     1      -0.758   8.589  23.274  0.00  0.00    +0.000 F 
ATOM      8  C   UNL     1      -1.159  10.898  23.096  0.00  0.00    +0.000 A 
ATOM      9  C   UNL     1      -1.004  12.098  22.390  0.00  0.00    +0.000 A 
ATOM     10  C   UNL     1      -0.158  12.164  21.263  0.00  0.00    +0.000 A 
ATOM     11  N   UNL     1       0.088  13.305  20.569  0.00  0.00    +0.000 NA
ATOM     12  C   UNL     1       0.954  13.264  19.524  0.00  0.00    +0.000 A 
ATOM     13  C   UNL     1       1.237  14.567  18.844  0.00  0.00    +0.000 C 
ENDROOT
BRANCH   9  14
ATOM     14  C   UNL     1      -1.711  13.315  22.894  0.00  0.00    +0.000 C 
ATOM     15  O   UNL     1      -1.192  14.008  23.762  0.00  0.00    +0.000 OA
ATOM     16  N   UNL     1      -2.982  13.604  22.391  0.00  0.00    +0.000 N 
ATOM     17  C   UNL     1      -3.768  14.738  22.882  0.00  0.00    +0.000 C 
ATOM     18  C   UNL     1      -5.140  14.673  22.146  0.00  0.00    +0.000 C 
ATOM     19  C   UNL     1      -4.706  13.997  20.821  0.00  0.00    +0.000 C 
ATOM     20  C   UNL     1      -3.642  12.990  21.253  0.00  0.00    +0.000 C 
ATOM     21  O   UNL     1      -5.768  13.439  20.053  0.00  0.00    +0.000 OA
ATOM     22  C   UNL     1      -6.612  12.583  20.824  0.00  0.00    +0.000 C 
ATOM     23  C   UNL     1      -7.190  13.316  22.036  0.00  0.00    +0.000 C 
ATOM     24  N   UNL     1      -6.169  13.923  22.917  0.00  0.00    +0.000 NA
ATOM     25  C   UNL     1      -6.853  14.821  23.862  0.00  0.00    +0.000 C 
ENDBRANCH   9  14
TORSDOF 1
ENDMDL
