MODEL 1
REMARK VINA RESULT:      -8.5      0.000      0.000
REMARK  Name = 
REMARK  6 active torsions:
REMARK  status: ('A' for Active; 'I' for Inactive)
REMARK    1  A    between atoms: C_1  and  C_2
REMARK    2  A    between atoms: C_4  and  C_5
REMARK    3  A    between atoms: C_8  and  N_9
REMARK    4  A    between atoms: C_10  and  C_12
REMARK    5  A    between atoms: C_14  and  C_15
REMARK    6  A    between atoms: C_25  and  C_26
REMARK                            x       y       z     vdW  Elec       q    Type
REMARK                         _______ _______ _______ _____ _____    ______ ____
ROOT
ATOM      1  N   UNL     1       3.129   7.057  17.822  0.00  0.00    +0.000 N 
ATOM      2  C   UNL     1       3.892   6.033  18.359  0.00  0.00    +0.000 C 
ATOM      3  O   UNL     1       4.004   5.756  19.552  0.00  0.00    +0.000 OA
ATOM      4  H   UNL     1       3.177   7.129  16.808  0.00  0.00    +0.000 HD
ENDROOT
BRANCH   1   8
ATOM      5  C   UNL     1       0.696   9.867  19.882  0.00  0.00    +0.000 A 
ATOM      6  C   UNL     1       1.142   8.712  20.526  0.00  0.00    +0.000 A 
ATOM      7  C   UNL     1       1.941   7.781  19.859  0.00  0.00    +0.000 A 
ATOM      8  C   UNL     1       2.323   7.976  18.531  0.00  0.00    +0.000 A 
ATOM      9  C   UNL     1       1.887   9.136  17.879  0.00  0.00    +0.000 A 
ATOM     10  C   UNL     1       1.088  10.078  18.553  0.00  0.00    +0.000 A 
BRANCH   5  14
ATOM     11  C   UNL     1      -1.127  13.040  23.193  0.00  0.00    +0.000 C 
ATOM     12  C   UNL     1      -1.036  12.236  21.954  0.00  0.00    +0.000 A 
ATOM     13  N   UNL     1       0.001  11.352  21.762  0.00  0.00    +0.000 NA
ATOM     14  C   UNL     1      -0.177  10.822  20.566  0.00  0.00    +0.000 A 
ATOM     15  N   UNL     1      -1.312  11.345  19.990  0.00  0.00    +0.000 N 
ATOM     16  C   UNL     1      -1.865  12.256  20.851  0.00  0.00    +0.000 A 
ATOM     17  C   UNL     1      -3.072  13.045  20.527  0.00  0.00    +0.000 C 
ATOM     18  H   UNL     1      -1.639  11.130  19.060  0.00  0.00    +0.000 HD
ENDBRANCH   5  14
ENDBRANCH   1   8
BRANCH   2  19
ATOM     19  C   UNL     1       4.603   5.230  17.351  0.00  0.00    +0.000 A 
ATOM     20  C   UNL     1       4.969   5.674  16.052  0.00  0.00    +0.000 A 
ATOM     21  C   UNL     1       5.680   4.640  15.492  0.00  0.00    +0.000 A 
ATOM     22  N   UNL     1       5.659   3.640  16.422  0.00  0.00    +0.000 N 
ATOM     23  N   UNL     1       5.013   3.962  17.567  0.00  0.00    +0.000 NA
ATOM     24  H   UNL     1       6.084   2.722  16.339  0.00  0.00    +0.000 HD
BRANCH  21  25
ATOM     25  C   UNL     1       6.346   4.524  14.238  0.00  0.00    +0.000 A 
ATOM     26  C   UNL     1       6.094   3.644  13.198  0.00  0.00    +0.000 A 
ATOM     27  C   UNL     1       7.031   3.923  12.174  0.00  0.00    +0.000 A 
ATOM     28  C   UNL     1       7.796   4.964  12.638  0.00  0.00    +0.000 A 
ATOM     29  O   UNL     1       7.390   5.337  13.878  0.00  0.00    +0.000 OA
ENDBRANCH  21  25
ENDBRANCH   2  19
TORSDOF 4
ENDMDL
MODEL 2
REMARK VINA RESULT:      -8.3      0.408      1.172
REMARK  Name = 
REMARK  6 active torsions:
REMARK  status: ('A' for Active; 'I' for Inactive)
REMARK    1  A    between atoms: C_1  and  C_2
REMARK    2  A    between atoms: C_4  and  C_5
REMARK    3  A    between atoms: C_8  and  N_9
REMARK    4  A    between atoms: C_10  and  C_12
REMARK    5  A    between atoms: C_14  and  C_15
REMARK    6  A    between atoms: C_25  and  C_26
REMARK                            x       y       z     vdW  Elec       q    Type
REMARK                         _______ _______ _______ _____ _____    ______ ____
ROOT
ATOM      1  N   UNL     1       3.254   7.117  17.842  0.00  0.00    +0.000 N 
ATOM      2  C   UNL     1       3.926   6.042  18.401  0.00  0.00    +0.000 C 
ATOM      3  O   UNL     1       3.875   5.681  19.575  0.00  0.00    +0.000 OA
ATOM      4  H   UNL     1       3.437   7.258  16.851  0.00  0.00    +0.000 HD
ENDROOT
BRANCH   1   8
ATOM      5  C   UNL     1       0.587   9.819  19.753  0.00  0.00    +0.000 A 
ATOM      6  C   UNL     1       1.121   8.736  20.455  0.00  0.00    +0.000 A 
ATOM      7  C   UNL     1       1.997   7.841  19.837  0.00  0.00    +0.000 A 
ATOM      8  C   UNL     1       2.372   8.002  18.502  0.00  0.00    +0.000 A 
ATOM      9  C   UNL     1       1.848   9.089  17.792  0.00  0.00    +0.000 A 
ATOM     10  C   UNL     1       0.971   9.995  18.416  0.00  0.00    +0.000 A 
BRANCH   5  14
ATOM     11  C   UNL     1      -2.993  13.143  20.450  0.00  0.00    +0.000 C 
ATOM     12  C   UNL     1      -1.930  12.167  20.779  0.00  0.00    +0.000 A 
ATOM     13  N   UNL     1      -1.193  11.565  19.784  0.00  0.00    +0.000 NA
ATOM     14  C   UNL     1      -0.364  10.733  20.386  0.00  0.00    +0.000 A 
ATOM     15  N   UNL     1      -0.550  10.794  21.748  0.00  0.00    +0.000 N 
ATOM     16  C   UNL     1      -1.551  11.690  22.017  0.00  0.00    +0.000 A 
ATOM     17  C   UNL     1      -2.044  11.965  23.383  0.00  0.00    +0.000 C 
ATOM     18  H   UNL     1      -0.065  10.223  22.424  0.00  0.00    +0.000 HD
ENDBRANCH   5  14
ENDBRANCH   1   8
BRANCH   2  19
ATOM     19  C   UNL     1       4.756   5.296  17.441  0.00  0.00    +0.000 A 
ATOM     20  C   UNL     1       4.934   5.629  16.071  0.00  0.00    +0.000 A 
ATOM     21  C   UNL     1       5.843   4.723  15.582  0.00  0.00    +0.000 A 
ATOM     22  N   UNL     1       6.115   3.884  16.626  0.00  0.00    +0.000 N 
ATOM     23  N   UNL     1       5.472   4.201  17.774  0.00  0.00    +0.000 NA
ATOM     24  H   UNL     1       6.745   3.088  16.619  0.00  0.00    +0.000 HD
BRANCH  21  25
ATOM     25  C   UNL     1       6.449   4.594  14.300  0.00  0.00    +0.000 A 
ATOM     26  C   UNL     1       6.164   3.687  13.291  0.00  0.00    +0.000 A 
ATOM     27  C   UNL     1       7.045   3.964  12.217  0.00  0.00    +0.000 A 
ATOM     28  C   UNL     1       7.810   5.029  12.622  0.00  0.00    +0.000 A 
ATOM     29  O   UNL     1       7.457   5.420  13.873  0.00  0.00    +0.000 OA
ENDBRANCH  21  25
ENDBRANCH   2  19
TORSDOF 4
ENDMDL
MODEL 3
REMARK VINA RESULT:      -8.2      0.443      1.038
REMARK  Name = 
REMARK  6 active torsions:
REMARK  status: ('A' for Active; 'I' for Inactive)
REMARK    1  A    between atoms: C_1  and  C_2
REMARK    2  A    between atoms: C_4  and  C_5
REMARK    3  A    between atoms: C_8  and  N_9
REMARK    4  A    between atoms: C_10  and  C_12
REMARK    5  A    between atoms: C_14  and  C_15
REMARK    6  A    between atoms: C_25  and  C_26
REMARK                            x       y       z     vdW  Elec       q    Type
REMARK                         _______ _______ _______ _____ _____    ______ ____
ROOT
ATOM      1  N   UNL     1       3.262   7.082  17.788  0.00  0.00    +0.000 N 
ATOM      2  C   UNL     1       3.999   6.062  18.366  0.00  0.00    +0.000 C 
ATOM      3  O   UNL     1       3.998   5.743  19.554  0.00  0.00    +0.000 OA
ATOM      4  H   UNL     1       3.411   7.194  16.788  0.00  0.00    +0.000 HD
ENDROOT
BRANCH   1   8
ATOM      5  C   UNL     1       0.558   9.651  19.826  0.00  0.00    +0.000 A 
ATOM      6  C   UNL     1       0.855   9.863  18.479  0.00  0.00    +0.000 A 
ATOM      7  C   UNL     1       1.744   9.026  17.799  0.00  0.00    +0.000 A 
ATOM      8  C   UNL     1       2.357   7.950  18.441  0.00  0.00    +0.000 A 
ATOM      9  C   UNL     1       2.059   7.725  19.790  0.00  0.00    +0.000 A 
ATOM     10  C   UNL     1       1.158   8.562  20.474  0.00  0.00    +0.000 A 
BRANCH   5  14
ATOM     11  C   UNL     1      -1.841  11.993  23.448  0.00  0.00    +0.000 C 
ATOM     12  C   UNL     1      -1.418  11.637  22.075  0.00  0.00    +0.000 A 
ATOM     13  N   UNL     1      -0.547  10.594  21.853  0.00  0.00    +0.000 NA
ATOM     14  C   UNL     1      -0.339  10.552  20.551  0.00  0.00    +0.000 A 
ATOM     15  N   UNL     1      -1.064  11.544  19.932  0.00  0.00    +0.000 N 
ATOM     16  C   UNL     1      -1.746  12.253  20.885  0.00  0.00    +0.000 A 
ATOM     17  C   UNL     1      -2.589  13.427  20.571  0.00  0.00    +0.000 C 
ATOM     18  H   UNL     1      -1.041  11.745  18.943  0.00  0.00    +0.000 HD
ENDBRANCH   5  14
ENDBRANCH   1   8
BRANCH   2  19
ATOM     19  C   UNL     1       4.836   5.319  17.410  0.00  0.00    +0.000 A 
ATOM     20  C   UNL     1       4.970   5.616  16.027  0.00  0.00    +0.000 A 
ATOM     21  C   UNL     1       5.903   4.730  15.544  0.00  0.00    +0.000 A 
ATOM     22  N   UNL     1       6.231   3.935  16.606  0.00  0.00    +0.000 N 
ATOM     23  N   UNL     1       5.602   4.263  17.758  0.00  0.00    +0.000 NA
ATOM     24  H   UNL     1       6.891   3.164  16.608  0.00  0.00    +0.000 HD
BRANCH  21  25
ATOM     25  C   UNL     1       6.486   4.586  14.253  0.00  0.00    +0.000 A 
ATOM     26  C   UNL     1       6.177   3.671  13.258  0.00  0.00    +0.000 A 
ATOM     27  C   UNL     1       7.040   3.932  12.166  0.00  0.00    +0.000 A 
ATOM     28  C   UNL     1       7.819   4.995  12.547  0.00  0.00    +0.000 A 
ATOM     29  O   UNL     1       7.492   5.400  13.800  0.00  0.00    +0.000 OA
ENDBRANCH  21  25
ENDBRANCH   2  19
TORSDOF 4
ENDMDL
MODEL 4
REMARK VINA RESULT:      -8.1      1.896      2.748
REMARK  Name = 
REMARK  6 active torsions:
REMARK  status: ('A' for Active; 'I' for Inactive)
REMARK    1  A    between atoms: C_1  and  C_2
REMARK    2  A    between atoms: C_4  and  C_5
REMARK    3  A    between atoms: C_8  and  N_9
REMARK    4  A    between atoms: C_10  and  C_12
REMARK    5  A    between atoms: C_14  and  C_15
REMARK    6  A    between atoms: C_25  and  C_26
REMARK                            x       y       z     vdW  Elec       q    Type
REMARK                         _______ _______ _______ _____ _____    ______ ____
ROOT
ATOM      1  N   UNL     1       2.251   7.508  19.925  0.00  0.00    +0.000 N 
ATOM      2  C   UNL     1       2.131   6.136  20.071  0.00  0.00    +0.000 C 
ATOM      3  O   UNL     1       1.323   5.547  20.787  0.00  0.00    +0.000 OA
ATOM      4  H   UNL     1       2.992   7.799  19.291  0.00  0.00    +0.000 HD
ENDROOT
BRANCH   1   8
ATOM      5  C   UNL     1      -0.075  10.467  21.897  0.00  0.00    +0.000 A 
ATOM      6  C   UNL     1      -0.035  10.413  20.503  0.00  0.00    +0.000 A 
ATOM      7  C   UNL     1       0.727   9.445  19.844  0.00  0.00    +0.000 A 
ATOM      8  C   UNL     1       1.468   8.500  20.556  0.00  0.00    +0.000 A 
ATOM      9  C   UNL     1       1.428   8.542  21.954  0.00  0.00    +0.000 A 
ATOM     10  C   UNL     1       0.654   9.512  22.619  0.00  0.00    +0.000 A 
BRANCH   5  14
ATOM     11  C   UNL     1      -1.477  14.804  23.789  0.00  0.00    +0.000 C 
ATOM     12  C   UNL     1      -1.534  13.369  23.432  0.00  0.00    +0.000 A 
ATOM     13  N   UNL     1      -0.474  12.756  22.804  0.00  0.00    +0.000 NA
ATOM     14  C   UNL     1      -0.838  11.506  22.590  0.00  0.00    +0.000 A 
ATOM     15  N   UNL     1      -2.110  11.303  23.074  0.00  0.00    +0.000 N 
ATOM     16  C   UNL     1      -2.575  12.480  23.601  0.00  0.00    +0.000 A 
ATOM     17  C   UNL     1      -3.933  12.631  24.166  0.00  0.00    +0.000 C 
ATOM     18  H   UNL     1      -2.628  10.441  22.993  0.00  0.00    +0.000 HD
ENDBRANCH   5  14
ENDBRANCH   1   8
BRANCH   2  19
ATOM     19  C   UNL     1       3.084   5.365  19.256  0.00  0.00    +0.000 A 
ATOM     20  C   UNL     1       3.608   5.768  17.998  0.00  0.00    +0.000 A 
ATOM     21  C   UNL     1       4.513   4.797  17.643  0.00  0.00    +0.000 A 
ATOM     22  N   UNL     1       4.451   3.863  18.638  0.00  0.00    +0.000 N 
ATOM     23  N   UNL     1       3.593   4.175  19.638  0.00  0.00    +0.000 NA
ATOM     24  H   UNL     1       4.985   3.002  18.699  0.00  0.00    +0.000 HD
BRANCH  21  25
ATOM     25  C   UNL     1       5.385   4.687  16.523  0.00  0.00    +0.000 A 
ATOM     26  C   UNL     1       6.684   5.152  16.384  0.00  0.00    +0.000 A 
ATOM     27  C   UNL     1       7.120   4.798  15.084  0.00  0.00    +0.000 A 
ATOM     28  C   UNL     1       6.072   4.126  14.505  0.00  0.00    +0.000 A 
ATOM     29  O   UNL     1       5.024   4.050  15.364  0.00  0.00    +0.000 OA
ENDBRANCH  21  25
ENDBRANCH   2  19
TORSDOF 4
ENDMDL
MODEL 5
REMARK VINA RESULT:      -8.1      2.008      2.992
REMARK  Name = 
REMARK  6 active torsions:
REMARK  status: ('A' for Active; 'I' for Inactive)
REMARK    1  A    between atoms: C_1  and  C_2
REMARK    2  A    between atoms: C_4  and  C_5
REMARK    3  A    between atoms: C_8  and  N_9
REMARK    4  A    between atoms: C_10  and  C_12
REMARK    5  A    between atoms: C_14  and  C_15
REMARK    6  A    between atoms: C_25  and  C_26
REMARK                            x       y       z     vdW  Elec       q    Type
REMARK                         _______ _______ _______ _____ _____    ______ ____
ROOT
ATOM      1  N   UNL     1       2.073   7.755  20.045  0.00  0.00    +0.000 N 
ATOM      2  C   UNL     1       1.984   6.380  20.186  0.00  0.00    +0.000 C 
ATOM      3  O   UNL     1       1.170   5.769  20.877  0.00  0.00    +0.000 OA
ATOM      4  H   UNL     1       2.824   8.067  19.434  0.00  0.00    +0.000 HD
ENDROOT
BRANCH   1   8
ATOM      5  C   UNL     1      -0.386  10.650  21.952  0.00  0.00    +0.000 A 
ATOM      6  C   UNL     1      -0.297  10.604  20.560  0.00  0.00    +0.000 A 
ATOM      7  C   UNL     1       0.510   9.659  19.922  0.00  0.00    +0.000 A 
ATOM      8  C   UNL     1       1.246   8.726  20.654  0.00  0.00    +0.000 A 
ATOM      9  C   UNL     1       1.157   8.758  22.050  0.00  0.00    +0.000 A 
ATOM     10  C   UNL     1       0.339   9.706  22.693  0.00  0.00    +0.000 A 
BRANCH   5  14
ATOM     11  C   UNL     1      -3.970  12.876  24.513  0.00  0.00    +0.000 C 
ATOM     12  C   UNL     1      -2.713  12.715  23.748  0.00  0.00    +0.000 A 
ATOM     13  N   UNL     1      -2.370  11.499  23.202  0.00  0.00    +0.000 NA
ATOM     14  C   UNL     1      -1.196  11.667  22.623  0.00  0.00    +0.000 A 
ATOM     15  N   UNL     1      -0.782  12.969  22.782  0.00  0.00    +0.000 N 
ATOM     16  C   UNL     1      -1.726  13.648  23.506  0.00  0.00    +0.000 A 
ATOM     17  C   UNL     1      -1.575  15.064  23.904  0.00  0.00    +0.000 C 
ATOM     18  H   UNL     1       0.103  13.336  22.465  0.00  0.00    +0.000 HD
ENDBRANCH   5  14
ENDBRANCH   1   8
BRANCH   2  19
ATOM     19  C   UNL     1       2.980   5.636  19.399  0.00  0.00    +0.000 A 
ATOM     20  C   UNL     1       3.279   5.857  18.027  0.00  0.00    +0.000 A 
ATOM     21  C   UNL     1       4.316   5.006  17.730  0.00  0.00    +0.000 A 
ATOM     22  N   UNL     1       4.545   4.300  18.878  0.00  0.00    +0.000 N 
ATOM     23  N   UNL     1       3.752   4.656  19.915  0.00  0.00    +0.000 NA
ATOM     24  H   UNL     1       5.242   3.575  19.018  0.00  0.00    +0.000 HD
BRANCH  21  25
ATOM     25  C   UNL     1       5.072   4.821  16.538  0.00  0.00    +0.000 A 
ATOM     26  C   UNL     1       5.456   5.764  15.597  0.00  0.00    +0.000 A 
ATOM     27  C   UNL     1       6.187   5.083  14.594  0.00  0.00    +0.000 A 
ATOM     28  C   UNL     1       6.220   3.766  14.980  0.00  0.00    +0.000 A 
ATOM     29  O   UNL     1       5.556   3.598  16.151  0.00  0.00    +0.000 OA
ENDBRANCH  21  25
ENDBRANCH   2  19
TORSDOF 4
ENDMDL
MODEL 6
REMARK VINA RESULT:      -8.0      1.732      2.316
REMARK  Name = 
REMARK  6 active torsions:
REMARK  status: ('A' for Active; 'I' for Inactive)
REMARK    1  A    between atoms: C_1  and  C_2
REMARK    2  A    between atoms: C_4  and  C_5
REMARK    3  A    between atoms: C_8  and  N_9
REMARK    4  A    between atoms: C_10  and  C_12
REMARK    5  A    between atoms: C_14  and  C_15
REMARK    6  A    between atoms: C_25  and  C_26
REMARK                            x       y       z     vdW  Elec       q    Type
REMARK                         _______ _______ _______ _____ _____    ______ ____
ROOT
ATOM      1  N   UNL     1       2.198   7.457  19.631  0.00  0.00    +0.000 N 
ATOM      2  C   UNL     1       2.162   6.092  19.863  0.00  0.00    +0.000 C 
ATOM      3  O   UNL     1       1.521   5.518  20.741  0.00  0.00    +0.000 OA
ATOM      4  H   UNL     1       2.800   7.737  18.860  0.00  0.00    +0.000 HD
ENDROOT
BRANCH   1   8
ATOM      5  C   UNL     1       0.073  10.499  21.703  0.00  0.00    +0.000 A 
ATOM      6  C   UNL     1       0.676   9.454  22.405  0.00  0.00    +0.000 A 
ATOM      7  C   UNL     1       1.375   8.448  21.734  0.00  0.00    +0.000 A 
ATOM      8  C   UNL     1       1.500   8.457  20.345  0.00  0.00    +0.000 A 
ATOM      9  C   UNL     1       0.905   9.506  19.632  0.00  0.00    +0.000 A 
ATOM     10  C   UNL     1       0.207  10.524  20.307  0.00  0.00    +0.000 A 
BRANCH   5  14
ATOM     11  C   UNL     1      -1.415  14.843  23.513  0.00  0.00    +0.000 C 
ATOM     12  C   UNL     1      -1.427  13.394  23.212  0.00  0.00    +0.000 A 
ATOM     13  N   UNL     1      -0.377  12.803  22.546  0.00  0.00    +0.000 NA
ATOM     14  C   UNL     1      -0.696  11.531  22.399  0.00  0.00    +0.000 A 
ATOM     15  N   UNL     1      -1.929  11.293  22.963  0.00  0.00    +0.000 N 
ATOM     16  C   UNL     1      -2.416  12.467  23.473  0.00  0.00    +0.000 A 
ATOM     17  C   UNL     1      -3.746  12.583  24.109  0.00  0.00    +0.000 C 
ATOM     18  H   UNL     1      -2.411  10.406  22.944  0.00  0.00    +0.000 HD
ENDBRANCH   5  14
ENDBRANCH   1   8
BRANCH   2  19
ATOM     19  C   UNL     1       2.985   5.309  18.927  0.00  0.00    +0.000 A 
ATOM     20  C   UNL     1       3.747   5.843  17.852  0.00  0.00    +0.000 A 
ATOM     21  C   UNL     1       4.415   4.775  17.303  0.00  0.00    +0.000 A 
ATOM     22  N   UNL     1       3.996   3.683  18.009  0.00  0.00    +0.000 N 
ATOM     23  N   UNL     1       3.126   3.968  19.006  0.00  0.00    +0.000 NA
ATOM     24  H   UNL     1       4.283   2.720  17.868  0.00  0.00    +0.000 HD
BRANCH  21  25
ATOM     25  C   UNL     1       5.365   4.702  16.245  0.00  0.00    +0.000 A 
ATOM     26  C   UNL     1       5.182   4.264  14.942  0.00  0.00    +0.000 A 
ATOM     27  C   UNL     1       6.429   4.380  14.281  0.00  0.00    +0.000 A 
ATOM     28  C   UNL     1       7.302   4.892  15.210  0.00  0.00    +0.000 A 
ATOM     29  O   UNL     1       6.670   5.093  16.394  0.00  0.00    +0.000 OA
ENDBRANCH  21  25
ENDBRANCH   2  19
TORSDOF 4
ENDMDL
MODEL 7
REMARK VINA RESULT:      -7.9      1.843      2.627
REMARK  Name = 
REMARK  6 active torsions:
REMARK  status: ('A' for Active; 'I' for Inactive)
REMARK    1  A    between atoms: C_1  and  C_2
REMARK    2  A    between atoms: C_4  and  C_5
REMARK    3  A    between atoms: C_8  and  N_9
REMARK    4  A    between atoms: C_10  and  C_12
REMARK    5  A    between atoms: C_14  and  C_15
REMARK    6  A    between atoms: C_25  and  C_26
REMARK                            x       y       z     vdW  Elec       q    Type
REMARK                         _______ _______ _______ _____ _____    ______ ____
ROOT
ATOM      1  N   UNL     1       2.236   7.501  19.906  0.00  0.00    +0.000 N 
ATOM      2  C   UNL     1       2.137   6.128  20.056  0.00  0.00    +0.000 C 
ATOM      3  O   UNL     1       1.356   5.529  20.794  0.00  0.00    +0.000 OA
ATOM      4  H   UNL     1       2.954   7.802  19.252  0.00  0.00    +0.000 HD
ENDROOT
BRANCH   1   8
ATOM      5  C   UNL     1      -0.133  10.483  21.792  0.00  0.00    +0.000 A 
ATOM      6  C   UNL     1       0.573   9.553  22.557  0.00  0.00    +0.000 A 
ATOM      7  C   UNL     1       1.353   8.567  21.947  0.00  0.00    +0.000 A 
ATOM      8  C   UNL     1       1.458   8.484  20.559  0.00  0.00    +0.000 A 
ATOM      9  C   UNL     1       0.759   9.417  19.783  0.00  0.00    +0.000 A 
ATOM     10  C   UNL     1      -0.021  10.415  20.396  0.00  0.00    +0.000 A 
BRANCH   5  14
ATOM     11  C   UNL     1      -3.843  12.657  24.215  0.00  0.00    +0.000 C 
ATOM     12  C   UNL     1      -2.559  12.515  23.493  0.00  0.00    +0.000 A 
ATOM     13  N   UNL     1      -2.174  11.302  22.969  0.00  0.00    +0.000 NA
ATOM     14  C   UNL     1      -0.986  11.489  22.427  0.00  0.00    +0.000 A 
ATOM     15  N   UNL     1      -0.603  12.801  22.586  0.00  0.00    +0.000 N 
ATOM     16  C   UNL     1      -1.584  13.467  23.273  0.00  0.00    +0.000 A 
ATOM     17  C   UNL     1      -1.476  14.889  23.662  0.00  0.00    +0.000 C 
ATOM     18  H   UNL     1       0.284  13.184  22.295  0.00  0.00    +0.000 HD
ENDBRANCH   5  14
ENDBRANCH   1   8
BRANCH   2  19
ATOM     19  C   UNL     1       3.077   5.369  19.214  0.00  0.00    +0.000 A 
ATOM     20  C   UNL     1       3.631   5.819  17.986  0.00  0.00    +0.000 A 
ATOM     21  C   UNL     1       4.509   4.838  17.593  0.00  0.00    +0.000 A 
ATOM     22  N   UNL     1       4.403   3.857  18.537  0.00  0.00    +0.000 N 
ATOM     23  N   UNL     1       3.542   4.144  19.540  0.00  0.00    +0.000 NA
ATOM     24  H   UNL     1       4.908   2.976  18.560  0.00  0.00    +0.000 HD
BRANCH  21  25
ATOM     25  C   UNL     1       5.395   4.756  16.480  0.00  0.00    +0.000 A 
ATOM     26  C   UNL     1       6.737   5.095  16.411  0.00  0.00    +0.000 A 
ATOM     27  C   UNL     1       7.167   4.837  15.086  0.00  0.00    +0.000 A 
ATOM     28  C   UNL     1       6.071   4.345  14.423  0.00  0.00    +0.000 A 
ATOM     29  O   UNL     1       4.999   4.287  15.254  0.00  0.00    +0.000 OA
ENDBRANCH  21  25
ENDBRANCH   2  19
TORSDOF 4
ENDMDL
MODEL 8
REMARK VINA RESULT:      -7.9      7.105      9.782
REMARK  Name = 
REMARK  6 active torsions:
REMARK  status: ('A' for Active; 'I' for Inactive)
REMARK    1  A    between atoms: C_1  and  C_2
REMARK    2  A    between atoms: C_4  and  C_5
REMARK    3  A    between atoms: C_8  and  N_9
REMARK    4  A    between atoms: C_10  and  C_12
REMARK    5  A    between atoms: C_14  and  C_15
REMARK    6  A    between atoms: C_25  and  C_26
REMARK                            x       y       z     vdW  Elec       q    Type
REMARK                         _______ _______ _______ _____ _____    ______ ____
ROOT
ATOM      1  N   UNL     1       8.523   9.490  17.595  0.00  0.00    +0.000 N 
ATOM      2  C   UNL     1       9.094  10.263  18.593  0.00  0.00    +0.000 C 
ATOM      3  O   UNL     1       9.020  10.062  19.804  0.00  0.00    +0.000 OA
ATOM      4  H   UNL     1       8.693   9.830  16.651  0.00  0.00    +0.000 HD
ENDROOT
BRANCH   1   8
ATOM      5  C   UNL     1       6.264   5.936  18.166  0.00  0.00    +0.000 A 
ATOM      6  C   UNL     1       5.776   6.961  17.355  0.00  0.00    +0.000 A 
ATOM      7  C   UNL     1       6.509   8.135  17.161  0.00  0.00    +0.000 A 
ATOM      8  C   UNL     1       7.753   8.318  17.766  0.00  0.00    +0.000 A 
ATOM      9  C   UNL     1       8.255   7.292  18.576  0.00  0.00    +0.000 A 
ATOM     10  C   UNL     1       7.521   6.106  18.765  0.00  0.00    +0.000 A 
BRANCH   5  14
ATOM     11  C   UNL     1       4.412   1.863  20.249  0.00  0.00    +0.000 C 
ATOM     12  C   UNL     1       4.603   2.942  19.254  0.00  0.00    +0.000 A 
ATOM     13  N   UNL     1       5.584   3.893  19.424  0.00  0.00    +0.000 NA
ATOM     14  C   UNL     1       5.479   4.724  18.405  0.00  0.00    +0.000 A 
ATOM     15  N   UNL     1       4.453   4.322  17.581  0.00  0.00    +0.000 N 
ATOM     16  C   UNL     1       3.875   3.199  18.111  0.00  0.00    +0.000 A 
ATOM     17  C   UNL     1       2.706   2.528  17.503  0.00  0.00    +0.000 C 
ATOM     18  H   UNL     1       4.147   4.818  16.756  0.00  0.00    +0.000 HD
ENDBRANCH   5  14
ENDBRANCH   1   8
BRANCH   2  19
ATOM     19  C   UNL     1       9.862  11.413  18.088  0.00  0.00    +0.000 A 
ATOM     20  C   UNL     1       9.441  12.770  18.135  0.00  0.00    +0.000 A 
ATOM     21  C   UNL     1      10.490  13.503  17.637  0.00  0.00    +0.000 A 
ATOM     22  N   UNL     1      11.434  12.584  17.273  0.00  0.00    +0.000 N 
ATOM     23  N   UNL     1      11.087  11.302  17.533  0.00  0.00    +0.000 NA
ATOM     24  H   UNL     1      12.341  12.774  16.860  0.00  0.00    +0.000 HD
BRANCH  21  25
ATOM     25  C   UNL     1      10.675  14.908  17.494  0.00  0.00    +0.000 A 
ATOM     26  C   UNL     1      11.829  15.603  17.169  0.00  0.00    +0.000 A 
ATOM     27  C   UNL     1      11.500  16.981  17.156  0.00  0.00    +0.000 A 
ATOM     28  C   UNL     1      10.163  17.051  17.461  0.00  0.00    +0.000 A 
ATOM     29  O   UNL     1       9.655  15.808  17.662  0.00  0.00    +0.000 OA
ENDBRANCH  21  25
ENDBRANCH   2  19
TORSDOF 4
ENDMDL
MODEL 9
REMARK VINA RESULT:      -7.8      3.246     11.080
REMARK  Name = 
REMARK  6 active torsions:
REMARK  status: ('A' for Active; 'I' for Inactive)
REMARK    1  A    between atoms: C_1  and  C_2
REMARK    2  A    between atoms: C_4  and  C_5
REMARK    3  A    between atoms: C_8  and  N_9
REMARK    4  A    between atoms: C_10  and  C_12
REMARK    5  A    between atoms: C_14  and  C_15
REMARK    6  A    between atoms: C_25  and  C_26
REMARK                            x       y       z     vdW  Elec       q    Type
REMARK                         _______ _______ _______ _____ _____    ______ ____
ROOT
ATOM      1  N   UNL     1       0.763  10.427  20.371  0.00  0.00    +0.000 N 
ATOM      2  C   UNL     1      -0.476  10.974  20.079  0.00  0.00    +0.000 C 
ATOM      3  O   UNL     1      -1.301  10.527  19.285  0.00  0.00    +0.000 OA
ATOM      4  H   UNL     1       1.305  10.955  21.051  0.00  0.00    +0.000 HD
ENDROOT
BRANCH   1   8
ATOM      5  C   UNL     1       2.450   6.922  18.659  0.00  0.00    +0.000 A 
ATOM      6  C   UNL     1       2.085   6.946  20.006  0.00  0.00    +0.000 A 
ATOM      7  C   UNL     1       1.531   8.093  20.580  0.00  0.00    +0.000 A 
ATOM      8  C   UNL     1       1.320   9.248  19.826  0.00  0.00    +0.000 A 
ATOM      9  C   UNL     1       1.676   9.231  18.472  0.00  0.00    +0.000 A 
ATOM     10  C   UNL     1       2.227   8.074  17.891  0.00  0.00    +0.000 A 
BRANCH   5  14
ATOM     11  C   UNL     1       5.494   3.964  16.141  0.00  0.00    +0.000 C 
ATOM     12  C   UNL     1       4.364   4.371  17.005  0.00  0.00    +0.000 A 
ATOM     13  N   UNL     1       4.101   5.701  17.243  0.00  0.00    +0.000 NA
ATOM     14  C   UNL     1       3.070   5.736  18.067  0.00  0.00    +0.000 A 
ATOM     15  N   UNL     1       2.663   4.454  18.357  0.00  0.00    +0.000 N 
ATOM     16  C   UNL     1       3.482   3.572  17.703  0.00  0.00    +0.000 A 
ATOM     17  C   UNL     1       3.357   2.104  17.834  0.00  0.00    +0.000 C 
ATOM     18  H   UNL     1       1.921   4.215  18.998  0.00  0.00    +0.000 HD
ENDBRANCH   5  14
ENDBRANCH   1   8
BRANCH   2  19
ATOM     19  C   UNL     1      -0.777  12.200  20.835  0.00  0.00    +0.000 A 
ATOM     20  C   UNL     1      -1.237  12.249  22.178  0.00  0.00    +0.000 A 
ATOM     21  C   UNL     1      -1.304  13.583  22.501  0.00  0.00    +0.000 A 
ATOM     22  N   UNL     1      -0.949  14.249  21.362  0.00  0.00    +0.000 N 
ATOM     23  N   UNL     1      -0.621  13.442  20.327  0.00  0.00    +0.000 NA
ATOM     24  H   UNL     1      -0.895  15.255  21.237  0.00  0.00    +0.000 HD
BRANCH  21  25
ATOM     25  C   UNL     1      -1.640  14.243  23.717  0.00  0.00    +0.000 A 
ATOM     26  C   UNL     1      -2.866  14.308  24.360  0.00  0.00    +0.000 A 
ATOM     27  C   UNL     1      -2.686  15.086  25.530  0.00  0.00    +0.000 A 
ATOM     28  C   UNL     1      -1.360  15.443  25.544  0.00  0.00    +0.000 A 
ATOM     29  O   UNL     1      -0.720  14.938  24.460  0.00  0.00    +0.000 OA
ENDBRANCH  21  25
ENDBRANCH   2  19
TORSDOF 4
ENDMDL
