MODEL 1
REMARK VINA RESULT:      -8.4      0.000      0.000
REMARK  Name = 
REMARK  6 active torsions:
REMARK  status: ('A' for Active; 'I' for Inactive)
REMARK    1  A    between atoms: C_1  and  C_2
REMARK    2  A    between atoms: C_2  and  C_3
REMARK    3  A    between atoms: C_2  and  C_9
REMARK    4  A    between atoms: C_3  and  C_4
REMARK    5  A    between atoms: C_13  and  N_14
REMARK    6  A    between atoms: C_21  and  C_22
REMARK                            x       y       z     vdW  Elec       q    Type
REMARK                         _______ _______ _______ _____ _____    ______ ____
ROOT
ATOM      1  C   UNL     1       1.497   8.973  19.198  0.00  0.00    +0.000 A 
ATOM      2  C   UNL     1       2.143   9.263  17.989  0.00  0.00    +0.000 A 
ATOM      3  C   UNL     1       2.880   8.285  17.325  0.00  0.00    +0.000 A 
ATOM      4  C   UNL     1       3.061   7.037  17.904  0.00  0.00    +0.000 A 
ATOM      5  C   UNL     1       2.600   6.802  19.209  0.00  0.00    +0.000 A 
ATOM      6  C   UNL     1       1.724   7.726  19.798  0.00  0.00    +0.000 A 
ENDROOT
BRANCH   5   7
ATOM      7  N   UNL     1       3.323   5.894  20.090  0.00  0.00    +0.000 N 
ATOM      8  C   UNL     1       4.572   5.438  19.429  0.00  0.00    +0.000 C 
ATOM      9  C   UNL     1       4.123   4.184  18.751  0.00  0.00    +0.000 A 
ATOM     10  C   UNL     1       3.060   3.663  19.496  0.00  0.00    +0.000 A 
ATOM     11  C   UNL     1       2.313   2.579  19.093  0.00  0.00    +0.000 A 
ATOM     12  C   UNL     1       2.638   1.996  17.867  0.00  0.00    +0.000 A 
ATOM     13  C   UNL     1       3.686   2.537  17.083  0.00  0.00    +0.000 A 
ATOM     14  C   UNL     1       4.448   3.639  17.510  0.00  0.00    +0.000 A 
ATOM     15  C   UNL     1       2.631   4.704  20.450  0.00  0.00    +0.000 C 
ATOM     16  O   UNL     1       1.720   4.580  21.242  0.00  0.00    +0.000 OA
BRANCH  14  17
ATOM     17  C   UNL     1       5.458   4.249  16.569  0.00  0.00    +0.000 C 
ATOM     18  F   UNL     1       6.620   4.636  17.162  0.00  0.00    +0.000 F 
ATOM     19  F   UNL     1       5.824   3.383  15.578  0.00  0.00    +0.000 F 
ATOM     20  F   UNL     1       4.977   5.358  15.936  0.00  0.00    +0.000 F 
ENDBRANCH  14  17
ENDBRANCH   5   7
BRANCH   1  22
ATOM     21  C   UNL     1      -0.782  10.073  19.315  0.00  0.00    +0.000 C 
ATOM     22  C   UNL     1       0.651  10.047  19.865  0.00  0.00    +0.000 C 
BRANCH  22  23
ATOM     23  C   UNL     1       0.684   9.882  21.394  0.00  0.00    +0.000 C 
BRANCH  23  24
ATOM     24  C   UNL     1      -0.137  10.937  22.083  0.00  0.00    +0.000 C 
ATOM     25  N   UNL     1       0.053  12.205  21.874  0.00  0.00    +0.000 NA
ATOM     26  C   UNL     1      -0.879  12.893  22.791  0.00  0.00    +0.000 C 
ATOM     27  C   UNL     1      -1.944  11.866  23.131  0.00  0.00    +0.000 C 
ATOM     28  C   UNL     1      -1.168  10.571  23.107  0.00  0.00    +0.000 C 
ENDBRANCH  23  24
ENDBRANCH  22  23
ENDBRANCH   1  22
TORSDOF 5
ENDMDL
MODEL 2
REMARK VINA RESULT:      -8.4      1.324      2.305
REMARK  Name = 
REMARK  6 active torsions:
REMARK  status: ('A' for Active; 'I' for Inactive)
REMARK    1  A    between atoms: C_1  and  C_2
REMARK    2  A    between atoms: C_2  and  C_3
REMARK    3  A    between atoms: C_2  and  C_9
REMARK    4  A    between atoms: C_3  and  C_4
REMARK    5  A    between atoms: C_13  and  N_14
REMARK    6  A    between atoms: C_21  and  C_22
REMARK                            x       y       z     vdW  Elec       q    Type
REMARK                         _______ _______ _______ _____ _____    ______ ____
ROOT
ATOM      1  C   UNL     1       1.264   8.859  19.437  0.00  0.00    +0.000 A 
ATOM      2  C   UNL     1       1.909   9.312  18.279  0.00  0.00    +0.000 A 
ATOM      3  C   UNL     1       2.739   8.465  17.550  0.00  0.00    +0.000 A 
ATOM      4  C   UNL     1       3.012   7.187  18.017  0.00  0.00    +0.000 A 
ATOM      5  C   UNL     1       2.546   6.794  19.281  0.00  0.00    +0.000 A 
ATOM      6  C   UNL     1       1.583   7.584  19.927  0.00  0.00    +0.000 A 
ENDROOT
BRANCH   5   7
ATOM      7  N   UNL     1       3.325   5.870  20.095  0.00  0.00    +0.000 N 
ATOM      8  C   UNL     1       4.538   5.444  19.355  0.00  0.00    +0.000 C 
ATOM      9  C   UNL     1       4.062   4.204  18.668  0.00  0.00    +0.000 A 
ATOM     10  C   UNL     1       3.047   3.653  19.457  0.00  0.00    +0.000 A 
ATOM     11  C   UNL     1       2.288   2.573  19.067  0.00  0.00    +0.000 A 
ATOM     12  C   UNL     1       2.549   2.026  17.808  0.00  0.00    +0.000 A 
ATOM     13  C   UNL     1       3.547   2.598  16.983  0.00  0.00    +0.000 A 
ATOM     14  C   UNL     1       4.322   3.696  17.397  0.00  0.00    +0.000 A 
ATOM     15  C   UNL     1       2.664   4.664  20.461  0.00  0.00    +0.000 C 
ATOM     16  O   UNL     1       1.799   4.510  21.298  0.00  0.00    +0.000 OA
BRANCH  14  17
ATOM     17  C   UNL     1       5.273   4.341  16.418  0.00  0.00    +0.000 C 
ATOM     18  F   UNL     1       4.887   5.572  15.985  0.00  0.00    +0.000 F 
ATOM     19  F   UNL     1       6.518   4.516  16.951  0.00  0.00    +0.000 F 
ATOM     20  F   UNL     1       5.451   3.590  15.293  0.00  0.00    +0.000 F 
ENDBRANCH  14  17
ENDBRANCH   5   7
BRANCH   1  22
ATOM     21  C   UNL     1       0.805  10.094  21.600  0.00  0.00    +0.000 C 
ATOM     22  C   UNL     1       0.317   9.792  20.176  0.00  0.00    +0.000 C 
BRANCH  22  23
ATOM     23  C   UNL     1       0.080  11.072  19.358  0.00  0.00    +0.000 C 
BRANCH  23  24
ATOM     24  C   UNL     1      -1.290  11.088  18.738  0.00  0.00    +0.000 C 
ATOM     25  N   UNL     1      -2.225  11.891  19.150  0.00  0.00    +0.000 NA
ATOM     26  C   UNL     1      -3.418  11.538  18.355  0.00  0.00    +0.000 C 
ATOM     27  C   UNL     1      -2.888  10.824  17.123  0.00  0.00    +0.000 C 
ATOM     28  C   UNL     1      -1.664  10.119  17.658  0.00  0.00    +0.000 C 
ENDBRANCH  23  24
ENDBRANCH  22  23
ENDBRANCH   1  22
TORSDOF 5
ENDMDL
MODEL 3
REMARK VINA RESULT:      -8.3      3.213      4.122
REMARK  Name = 
REMARK  6 active torsions:
REMARK  status: ('A' for Active; 'I' for Inactive)
REMARK    1  A    between atoms: C_1  and  C_2
REMARK    2  A    between atoms: C_2  and  C_3
REMARK    3  A    between atoms: C_2  and  C_9
REMARK    4  A    between atoms: C_3  and  C_4
REMARK    5  A    between atoms: C_13  and  N_14
REMARK    6  A    between atoms: C_21  and  C_22
REMARK                            x       y       z     vdW  Elec       q    Type
REMARK                         _______ _______ _______ _____ _____    ______ ____
ROOT
ATOM      1  C   UNL     1       1.298   9.265  19.137  0.00  0.00    +0.000 A 
ATOM      2  C   UNL     1       1.029   8.734  20.405  0.00  0.00    +0.000 A 
ATOM      3  C   UNL     1       1.623   7.544  20.817  0.00  0.00    +0.000 A 
ATOM      4  C   UNL     1       2.416   6.821  19.937  0.00  0.00    +0.000 A 
ATOM      5  C   UNL     1       2.521   7.230  18.598  0.00  0.00    +0.000 A 
ATOM      6  C   UNL     1       2.060   8.505  18.239  0.00  0.00    +0.000 A 
ENDROOT
BRANCH   5   7
ATOM      7  N   UNL     1       2.682   6.241  17.540  0.00  0.00    +0.000 N 
ATOM      8  C   UNL     1       1.770   5.095  17.776  0.00  0.00    +0.000 C 
ATOM      9  C   UNL     1       2.636   4.169  18.568  0.00  0.00    +0.000 A 
ATOM     10  C   UNL     1       3.962   4.417  18.198  0.00  0.00    +0.000 A 
ATOM     11  C   UNL     1       5.043   3.836  18.821  0.00  0.00    +0.000 A 
ATOM     12  C   UNL     1       4.782   2.972  19.887  0.00  0.00    +0.000 A 
ATOM     13  C   UNL     1       3.446   2.741  20.298  0.00  0.00    +0.000 A 
ATOM     14  C   UNL     1       2.350   3.334  19.646  0.00  0.00    +0.000 A 
ATOM     15  C   UNL     1       3.981   5.672  17.422  0.00  0.00    +0.000 C 
ATOM     16  O   UNL     1       4.981   6.180  16.957  0.00  0.00    +0.000 OA
BRANCH  14  17
ATOM     17  C   UNL     1       0.964   3.155  20.219  0.00  0.00    +0.000 C 
ATOM     18  F   UNL     1       0.926   2.472  21.396  0.00  0.00    +0.000 F 
ATOM     19  F   UNL     1       0.355   4.351  20.472  0.00  0.00    +0.000 F 
ATOM     20  F   UNL     1       0.133   2.484  19.372  0.00  0.00    +0.000 F 
ENDBRANCH  14  17
ENDBRANCH   5   7
BRANCH   1  22
ATOM     21  C   UNL     1      -0.767  10.435  18.253  0.00  0.00    +0.000 C 
ATOM     22  C   UNL     1       0.679  10.598  18.742  0.00  0.00    +0.000 C 
BRANCH  22  23
ATOM     23  C   UNL     1       0.792  11.605  19.898  0.00  0.00    +0.000 C 
BRANCH  23  24
ATOM     24  C   UNL     1       1.767  12.706  19.581  0.00  0.00    +0.000 C 
ATOM     25  N   UNL     1       2.392  13.363  20.511  0.00  0.00    +0.000 NA
ATOM     26  C   UNL     1       3.173  14.395  19.800  0.00  0.00    +0.000 C 
ATOM     27  C   UNL     1       3.306  13.891  18.374  0.00  0.00    +0.000 C 
ATOM     28  C   UNL     1       2.008  13.147  18.169  0.00  0.00    +0.000 C 
ENDBRANCH  23  24
ENDBRANCH  22  23
ENDBRANCH   1  22
TORSDOF 5
ENDMDL
MODEL 4
REMARK VINA RESULT:      -8.2      1.535      2.485
REMARK  Name = 
REMARK  6 active torsions:
REMARK  status: ('A' for Active; 'I' for Inactive)
REMARK    1  A    between atoms: C_1  and  C_2
REMARK    2  A    between atoms: C_2  and  C_3
REMARK    3  A    between atoms: C_2  and  C_9
REMARK    4  A    between atoms: C_3  and  C_4
REMARK    5  A    between atoms: C_13  and  N_14
REMARK    6  A    between atoms: C_21  and  C_22
REMARK                            x       y       z     vdW  Elec       q    Type
REMARK                         _______ _______ _______ _____ _____    ______ ____
ROOT
ATOM      1  C   UNL     1       1.334   8.794  19.251  0.00  0.00    +0.000 A 
ATOM      2  C   UNL     1       2.039   9.214  18.116  0.00  0.00    +0.000 A 
ATOM      3  C   UNL     1       2.904   8.345  17.455  0.00  0.00    +0.000 A 
ATOM      4  C   UNL     1       3.149   7.080  17.972  0.00  0.00    +0.000 A 
ATOM      5  C   UNL     1       2.617   6.724  19.221  0.00  0.00    +0.000 A 
ATOM      6  C   UNL     1       1.624   7.534  19.793  0.00  0.00    +0.000 A 
ENDROOT
BRANCH   5   7
ATOM      7  N   UNL     1       3.350   5.822  20.100  0.00  0.00    +0.000 N 
ATOM      8  C   UNL     1       4.591   5.362  19.430  0.00  0.00    +0.000 C 
ATOM      9  C   UNL     1       4.134   4.103  18.766  0.00  0.00    +0.000 A 
ATOM     10  C   UNL     1       3.080   3.587  19.526  0.00  0.00    +0.000 A 
ATOM     11  C   UNL     1       2.329   2.500  19.139  0.00  0.00    +0.000 A 
ATOM     12  C   UNL     1       2.640   1.909  17.913  0.00  0.00    +0.000 A 
ATOM     13  C   UNL     1       3.680   2.443  17.114  0.00  0.00    +0.000 A 
ATOM     14  C   UNL     1       4.446   3.549  17.525  0.00  0.00    +0.000 A 
ATOM     15  C   UNL     1       2.662   4.635  20.476  0.00  0.00    +0.000 C 
ATOM     16  O   UNL     1       1.759   4.517  21.279  0.00  0.00    +0.000 OA
BRANCH  14  17
ATOM     17  C   UNL     1       5.446   4.152  16.568  0.00  0.00    +0.000 C 
ATOM     18  F   UNL     1       5.780   3.348  15.522  0.00  0.00    +0.000 F 
ATOM     19  F   UNL     1       4.985   5.309  16.007  0.00  0.00    +0.000 F 
ATOM     20  F   UNL     1       6.622   4.476  17.179  0.00  0.00    +0.000 F 
ENDBRANCH  14  17
ENDBRANCH   5   7
BRANCH   1  22
ATOM     21  C   UNL     1       0.832  10.191  21.304  0.00  0.00    +0.000 C 
ATOM     22  C   UNL     1       0.353   9.750  19.914  0.00  0.00    +0.000 C 
BRANCH  22  23
ATOM     23  C   UNL     1       0.064  10.945  18.991  0.00  0.00    +0.000 C 
BRANCH  23  24
ATOM     24  C   UNL     1      -1.251  10.791  18.279  0.00  0.00    +0.000 C 
ATOM     25  N   UNL     1      -1.430   9.909  17.342  0.00  0.00    +0.000 NA
ATOM     26  C   UNL     1      -2.803  10.137  16.850  0.00  0.00    +0.000 C 
ATOM     27  C   UNL     1      -3.515  10.882  17.965  0.00  0.00    +0.000 C 
ATOM     28  C   UNL     1      -2.402  11.707  18.568  0.00  0.00    +0.000 C 
ENDBRANCH  23  24
ENDBRANCH  22  23
ENDBRANCH   1  22
TORSDOF 5
ENDMDL
MODEL 5
REMARK VINA RESULT:      -8.1      1.354      1.803
REMARK  Name = 
REMARK  6 active torsions:
REMARK  status: ('A' for Active; 'I' for Inactive)
REMARK    1  A    between atoms: C_1  and  C_2
REMARK    2  A    between atoms: C_2  and  C_3
REMARK    3  A    between atoms: C_2  and  C_9
REMARK    4  A    between atoms: C_3  and  C_4
REMARK    5  A    between atoms: C_13  and  N_14
REMARK    6  A    between atoms: C_21  and  C_22
REMARK                            x       y       z     vdW  Elec       q    Type
REMARK                         _______ _______ _______ _____ _____    ______ ____
ROOT
ATOM      1  C   UNL     1       1.178   8.800  19.834  0.00  0.00    +0.000 A 
ATOM      2  C   UNL     1       1.676   9.296  18.623  0.00  0.00    +0.000 A 
ATOM      3  C   UNL     1       2.423   8.481  17.775  0.00  0.00    +0.000 A 
ATOM      4  C   UNL     1       2.763   7.194  18.168  0.00  0.00    +0.000 A 
ATOM      5  C   UNL     1       2.454   6.759  19.466  0.00  0.00    +0.000 A 
ATOM      6  C   UNL     1       1.566   7.517  20.244  0.00  0.00    +0.000 A 
ENDROOT
BRANCH   5   7
ATOM      7  N   UNL     1       3.333   5.822  20.154  0.00  0.00    +0.000 N 
ATOM      8  C   UNL     1       4.495   5.494  19.291  0.00  0.00    +0.000 C 
ATOM      9  C   UNL     1       4.010   4.277  18.570  0.00  0.00    +0.000 A 
ATOM     10  C   UNL     1       3.087   3.637  19.403  0.00  0.00    +0.000 A 
ATOM     11  C   UNL     1       2.339   2.551  19.009  0.00  0.00    +0.000 A 
ATOM     12  C   UNL     1       2.513   2.091  17.701  0.00  0.00    +0.000 A 
ATOM     13  C   UNL     1       3.416   2.753  16.835  0.00  0.00    +0.000 A 
ATOM     14  C   UNL     1       4.181   3.857  17.252  0.00  0.00    +0.000 A 
ATOM     15  C   UNL     1       2.751   4.570  20.496  0.00  0.00    +0.000 C 
ATOM     16  O   UNL     1       1.966   4.329  21.390  0.00  0.00    +0.000 OA
BRANCH  14  17
ATOM     17  C   UNL     1       5.021   4.600  16.241  0.00  0.00    +0.000 C 
ATOM     18  F   UNL     1       6.342   4.681  16.558  0.00  0.00    +0.000 F 
ATOM     19  F   UNL     1       4.977   4.014  15.008  0.00  0.00    +0.000 F 
ATOM     20  F   UNL     1       4.602   5.885  16.059  0.00  0.00    +0.000 F 
ENDBRANCH  14  17
ENDBRANCH   5   7
BRANCH   1  22
ATOM     21  C   UNL     1       0.738   9.641  22.183  0.00  0.00    +0.000 C 
ATOM     22  C   UNL     1       0.316   9.699  20.708  0.00  0.00    +0.000 C 
BRANCH  22  23
ATOM     23  C   UNL     1       0.312  11.136  20.159  0.00  0.00    +0.000 C 
BRANCH  23  24
ATOM     24  C   UNL     1      -1.058  11.550  19.699  0.00  0.00    +0.000 C 
ATOM     25  N   UNL     1      -1.658  10.967  18.705  0.00  0.00    +0.000 NA
ATOM     26  C   UNL     1      -2.919  11.713  18.520  0.00  0.00    +0.000 C 
ATOM     27  C   UNL     1      -3.169  12.420  19.841  0.00  0.00    +0.000 C 
ATOM     28  C   UNL     1      -1.768  12.713  20.323  0.00  0.00    +0.000 C 
ENDBRANCH  23  24
ENDBRANCH  22  23
ENDBRANCH   1  22
TORSDOF 5
ENDMDL
MODEL 6
REMARK VINA RESULT:      -8.1      3.094      4.135
REMARK  Name = 
REMARK  6 active torsions:
REMARK  status: ('A' for Active; 'I' for Inactive)
REMARK    1  A    between atoms: C_1  and  C_2
REMARK    2  A    between atoms: C_2  and  C_3
REMARK    3  A    between atoms: C_2  and  C_9
REMARK    4  A    between atoms: C_3  and  C_4
REMARK    5  A    between atoms: C_13  and  N_14
REMARK    6  A    between atoms: C_21  and  C_22
REMARK                            x       y       z     vdW  Elec       q    Type
REMARK                         _______ _______ _______ _____ _____    ______ ____
ROOT
ATOM      1  C   UNL     1       0.912   9.416  19.895  0.00  0.00    +0.000 A 
ATOM      2  C   UNL     1       0.658   8.656  21.045  0.00  0.00    +0.000 A 
ATOM      3  C   UNL     1       1.312   7.445  21.254  0.00  0.00    +0.000 A 
ATOM      4  C   UNL     1       2.154   6.930  20.278  0.00  0.00    +0.000 A 
ATOM      5  C   UNL     1       2.251   7.573  19.034  0.00  0.00    +0.000 A 
ATOM      6  C   UNL     1       1.725   8.866  18.894  0.00  0.00    +0.000 A 
ENDROOT
BRANCH   5   7
ATOM      7  N   UNL     1       2.479   6.797  17.823  0.00  0.00    +0.000 N 
ATOM      8  C   UNL     1       1.672   5.552  17.862  0.00  0.00    +0.000 C 
ATOM      9  C   UNL     1       2.627   4.584  18.483  0.00  0.00    +0.000 A 
ATOM     10  C   UNL     1       3.921   5.005  18.158  0.00  0.00    +0.000 A 
ATOM     11  C   UNL     1       5.058   4.423  18.671  0.00  0.00    +0.000 A 
ATOM     12  C   UNL     1       4.889   3.372  19.575  0.00  0.00    +0.000 A 
ATOM     13  C   UNL     1       3.585   2.959  19.943  0.00  0.00    +0.000 A 
ATOM     14  C   UNL     1       2.431   3.557  19.404  0.00  0.00    +0.000 A 
ATOM     15  C   UNL     1       3.819   6.371  17.607  0.00  0.00    +0.000 C 
ATOM     16  O   UNL     1       4.764   7.035  17.234  0.00  0.00    +0.000 OA
BRANCH  14  17
ATOM     17  C   UNL     1       1.076   3.163  19.941  0.00  0.00    +0.000 C 
ATOM     18  F   UNL     1       1.116   2.337  21.022  0.00  0.00    +0.000 F 
ATOM     19  F   UNL     1       0.346   4.247  20.337  0.00  0.00    +0.000 F 
ATOM     20  F   UNL     1       0.313   2.520  19.010  0.00  0.00    +0.000 F 
ENDBRANCH  14  17
ENDBRANCH   5   7
BRANCH   1  22
ATOM     21  C   UNL     1       1.101  11.920  20.226  0.00  0.00    +0.000 C 
ATOM     22  C   UNL     1       0.225  10.762  19.727  0.00  0.00    +0.000 C 
BRANCH  22  23
ATOM     23  C   UNL     1      -0.223  10.958  18.269  0.00  0.00    +0.000 C 
BRANCH  23  24
ATOM     24  C   UNL     1      -1.722  10.981  18.147  0.00  0.00    +0.000 C 
ATOM     25  N   UNL     1      -2.438  11.955  18.623  0.00  0.00    +0.000 NA
ATOM     26  C   UNL     1      -3.840  11.562  18.379  0.00  0.00    +0.000 C 
ATOM     27  C   UNL     1      -3.783  10.530  17.266  0.00  0.00    +0.000 C 
ATOM     28  C   UNL     1      -2.468   9.837  17.532  0.00  0.00    +0.000 C 
ENDBRANCH  23  24
ENDBRANCH  22  23
ENDBRANCH   1  22
TORSDOF 5
ENDMDL
MODEL 7
REMARK VINA RESULT:      -8.1      3.027      3.844
REMARK  Name = 
REMARK  6 active torsions:
REMARK  status: ('A' for Active; 'I' for Inactive)
REMARK    1  A    between atoms: C_1  and  C_2
REMARK    2  A    between atoms: C_2  and  C_3
REMARK    3  A    between atoms: C_2  and  C_9
REMARK    4  A    between atoms: C_3  and  C_4
REMARK    5  A    between atoms: C_13  and  N_14
REMARK    6  A    between atoms: C_21  and  C_22
REMARK                            x       y       z     vdW  Elec       q    Type
REMARK                         _______ _______ _______ _____ _____    ______ ____
ROOT
ATOM      1  C   UNL     1       1.134   9.342  19.412  0.00  0.00    +0.000 A 
ATOM      2  C   UNL     1       0.880   8.714  20.638  0.00  0.00    +0.000 A 
ATOM      3  C   UNL     1       1.518   7.521  20.970  0.00  0.00    +0.000 A 
ATOM      4  C   UNL     1       2.342   6.892  20.047  0.00  0.00    +0.000 A 
ATOM      5  C   UNL     1       2.436   7.398  18.741  0.00  0.00    +0.000 A 
ATOM      6  C   UNL     1       1.928   8.677  18.468  0.00  0.00    +0.000 A 
ENDROOT
BRANCH   5   7
ATOM      7  N   UNL     1       2.640   6.493  17.617  0.00  0.00    +0.000 N 
ATOM      8  C   UNL     1       1.763   5.304  17.761  0.00  0.00    +0.000 C 
ATOM      9  C   UNL     1       2.652   4.352  18.496  0.00  0.00    +0.000 A 
ATOM     10  C   UNL     1       3.972   4.668  18.160  0.00  0.00    +0.000 A 
ATOM     11  C   UNL     1       5.066   4.079  18.753  0.00  0.00    +0.000 A 
ATOM     12  C   UNL     1       4.823   3.134  19.752  0.00  0.00    +0.000 A 
ATOM     13  C   UNL     1       3.492   2.832  20.130  0.00  0.00    +0.000 A 
ATOM     14  C   UNL     1       2.383   3.434  19.509  0.00  0.00    +0.000 A 
ATOM     15  C   UNL     1       3.957   5.975  17.475  0.00  0.00    +0.000 C 
ATOM     16  O   UNL     1       4.944   6.546  17.059  0.00  0.00    +0.000 OA
BRANCH  14  17
ATOM     17  C   UNL     1       0.999   3.171  20.052  0.00  0.00    +0.000 C 
ATOM     18  F   UNL     1       0.181   2.490  19.203  0.00  0.00    +0.000 F 
ATOM     19  F   UNL     1       1.030   2.431  21.199  0.00  0.00    +0.000 F 
ATOM     20  F   UNL     1       0.334   4.320  20.366  0.00  0.00    +0.000 F 
ENDBRANCH  14  17
ENDBRANCH   5   7
BRANCH   1  22
ATOM     21  C   UNL     1      -0.799  10.500  18.254  0.00  0.00    +0.000 C 
ATOM     22  C   UNL     1       0.465  10.675  19.107  0.00  0.00    +0.000 C 
BRANCH  22  23
ATOM     23  C   UNL     1       0.187  11.446  20.408  0.00  0.00    +0.000 C 
BRANCH  23  24
ATOM     24  C   UNL     1       1.093  12.638  20.550  0.00  0.00    +0.000 C 
ATOM     25  N   UNL     1       1.020  13.442  21.569  0.00  0.00    +0.000 NA
ATOM     26  C   UNL     1       2.000  14.510  21.291  0.00  0.00    +0.000 C 
ATOM     27  C   UNL     1       2.966  13.921  20.278  0.00  0.00    +0.000 C 
ATOM     28  C   UNL     1       2.077  12.998  19.479  0.00  0.00    +0.000 C 
ENDBRANCH  23  24
ENDBRANCH  22  23
ENDBRANCH   1  22
TORSDOF 5
ENDMDL
MODEL 8
REMARK VINA RESULT:      -8.1      3.310      4.130
REMARK  Name = 
REMARK  6 active torsions:
REMARK  status: ('A' for Active; 'I' for Inactive)
REMARK    1  A    between atoms: C_1  and  C_2
REMARK    2  A    between atoms: C_2  and  C_3
REMARK    3  A    between atoms: C_2  and  C_9
REMARK    4  A    between atoms: C_3  and  C_4
REMARK    5  A    between atoms: C_13  and  N_14
REMARK    6  A    between atoms: C_21  and  C_22
REMARK                            x       y       z     vdW  Elec       q    Type
REMARK                         _______ _______ _______ _____ _____    ______ ____
ROOT
ATOM      1  C   UNL     1       1.342   9.235  19.091  0.00  0.00    +0.000 A 
ATOM      2  C   UNL     1       1.056   8.714  20.359  0.00  0.00    +0.000 A 
ATOM      3  C   UNL     1       1.637   7.522  20.784  0.00  0.00    +0.000 A 
ATOM      4  C   UNL     1       2.434   6.788  19.917  0.00  0.00    +0.000 A 
ATOM      5  C   UNL     1       2.555   7.188  18.577  0.00  0.00    +0.000 A 
ATOM      6  C   UNL     1       2.107   8.464  18.205  0.00  0.00    +0.000 A 
ENDROOT
BRANCH   5   7
ATOM      7  N   UNL     1       2.720   6.192  17.526  0.00  0.00    +0.000 N 
ATOM      8  C   UNL     1       1.798   5.053  17.761  0.00  0.00    +0.000 C 
ATOM      9  C   UNL     1       2.651   4.126  18.567  0.00  0.00    +0.000 A 
ATOM     10  C   UNL     1       3.981   4.363  18.208  0.00  0.00    +0.000 A 
ATOM     11  C   UNL     1       5.053   3.779  18.845  0.00  0.00    +0.000 A 
ATOM     12  C   UNL     1       4.775   2.923  19.914  0.00  0.00    +0.000 A 
ATOM     13  C   UNL     1       3.434   2.704  20.313  0.00  0.00    +0.000 A 
ATOM     14  C   UNL     1       2.348   3.300  19.648  0.00  0.00    +0.000 A 
ATOM     15  C   UNL     1       4.016   5.613  17.425  0.00  0.00    +0.000 C 
ATOM     16  O   UNL     1       5.023   6.112  16.967  0.00  0.00    +0.000 OA
BRANCH  14  17
ATOM     17  C   UNL     1       0.956   3.134  20.209  0.00  0.00    +0.000 C 
ATOM     18  F   UNL     1       0.100   2.454  19.398  0.00  0.00    +0.000 F 
ATOM     19  F   UNL     1       0.958   2.452  21.392  0.00  0.00    +0.000 F 
ATOM     20  F   UNL     1       0.352   4.329  20.468  0.00  0.00    +0.000 F 
ENDBRANCH  14  17
ENDBRANCH   5   7
BRANCH   1  22
ATOM     21  C   UNL     1      -0.739  10.431  18.280  0.00  0.00    +0.000 C 
ATOM     22  C   UNL     1       0.736  10.570  18.682  0.00  0.00    +0.000 C 
BRANCH  22  23
ATOM     23  C   UNL     1       0.941  11.614  19.791  0.00  0.00    +0.000 C 
BRANCH  23  24
ATOM     24  C   UNL     1       1.653  12.836  19.278  0.00  0.00    +0.000 C 
ATOM     25  N   UNL     1       2.570  12.766  18.360  0.00  0.00    +0.000 NA
ATOM     26  C   UNL     1       3.071  14.146  18.205  0.00  0.00    +0.000 C 
ATOM     27  C   UNL     1       1.975  15.039  18.759  0.00  0.00    +0.000 C 
ATOM     28  C   UNL     1       1.389  14.190  19.862  0.00  0.00    +0.000 C 
ENDBRANCH  23  24
ENDBRANCH  22  23
ENDBRANCH   1  22
TORSDOF 5
ENDMDL
MODEL 9
REMARK VINA RESULT:      -8.1      1.397      1.921
REMARK  Name = 
REMARK  6 active torsions:
REMARK  status: ('A' for Active; 'I' for Inactive)
REMARK    1  A    between atoms: C_1  and  C_2
REMARK    2  A    between atoms: C_2  and  C_3
REMARK    3  A    between atoms: C_2  and  C_9
REMARK    4  A    between atoms: C_3  and  C_4
REMARK    5  A    between atoms: C_13  and  N_14
REMARK    6  A    between atoms: C_21  and  C_22
REMARK                            x       y       z     vdW  Elec       q    Type
REMARK                         _______ _______ _______ _____ _____    ______ ____
ROOT
ATOM      1  C   UNL     1       1.147   8.822  19.807  0.00  0.00    +0.000 A 
ATOM      2  C   UNL     1       1.646   9.316  18.595  0.00  0.00    +0.000 A 
ATOM      3  C   UNL     1       2.403   8.503  17.755  0.00  0.00    +0.000 A 
ATOM      4  C   UNL     1       2.751   7.220  18.156  0.00  0.00    +0.000 A 
ATOM      5  C   UNL     1       2.440   6.789  19.455  0.00  0.00    +0.000 A 
ATOM      6  C   UNL     1       1.543   7.544  20.226  0.00  0.00    +0.000 A 
ENDROOT
BRANCH   5   7
ATOM      7  N   UNL     1       3.324   5.864  20.152  0.00  0.00    +0.000 N 
ATOM      8  C   UNL     1       4.491   5.538  19.295  0.00  0.00    +0.000 C 
ATOM      9  C   UNL     1       4.017   4.314  18.580  0.00  0.00    +0.000 A 
ATOM     10  C   UNL     1       3.096   3.672  19.414  0.00  0.00    +0.000 A 
ATOM     11  C   UNL     1       2.357   2.578  19.024  0.00  0.00    +0.000 A 
ATOM     12  C   UNL     1       2.539   2.111  17.721  0.00  0.00    +0.000 A 
ATOM     13  C   UNL     1       3.440   2.774  16.852  0.00  0.00    +0.000 A 
ATOM     14  C   UNL     1       4.196   3.887  17.265  0.00  0.00    +0.000 A 
ATOM     15  C   UNL     1       2.750   4.609  20.500  0.00  0.00    +0.000 C 
ATOM     16  O   UNL     1       1.964   4.369  21.393  0.00  0.00    +0.000 OA
BRANCH  14  17
ATOM     17  C   UNL     1       5.033   4.628  16.252  0.00  0.00    +0.000 C 
ATOM     18  F   UNL     1       4.662   5.922  16.053  0.00  0.00    +0.000 F 
ATOM     19  F   UNL     1       6.350   4.678  16.612  0.00  0.00    +0.000 F 
ATOM     20  F   UNL     1       5.005   4.040  15.022  0.00  0.00    +0.000 F 
ENDBRANCH  14  17
ENDBRANCH   5   7
BRANCH   1  22
ATOM     21  C   UNL     1      -0.237   8.988  21.922  0.00  0.00    +0.000 C 
ATOM     22  C   UNL     1       0.274   9.719  20.672  0.00  0.00    +0.000 C 
BRANCH  22  23
ATOM     23  C   UNL     1       1.019  11.018  21.022  0.00  0.00    +0.000 C 
BRANCH  23  24
ATOM     24  C   UNL     1       0.700  12.120  20.050  0.00  0.00    +0.000 C 
ATOM     25  N   UNL     1       1.617  12.908  19.575  0.00  0.00    +0.000 NA
ATOM     26  C   UNL     1       0.892  13.889  18.741  0.00  0.00    +0.000 C 
ATOM     27  C   UNL     1      -0.436  13.232  18.406  0.00  0.00    +0.000 C 
ATOM     28  C   UNL     1      -0.713  12.408  19.641  0.00  0.00    +0.000 C 
ENDBRANCH  23  24
ENDBRANCH  22  23
ENDBRANCH   1  22
TORSDOF 5
ENDMDL
