MODEL 1
REMARK VINA RESULT:      -7.2      0.000      0.000
REMARK  Name = 
REMARK  7 active torsions:
REMARK  status: ('A' for Active; 'I' for Inactive)
REMARK    1  A    between atoms: C_1  and  C_2
REMARK    2  A    between atoms: C_2  and  C_3
REMARK    3  A    between atoms: N_5  and  C_6
REMARK    4  A    between atoms: N_14  and  C_15
REMARK    5  A    between atoms: C_15  and  C_16
REMARK    6  A    between atoms: C_16  and  C_17
REMARK    7  A    between atoms: C_17  and  O_18
REMARK                            x       y       z     vdW  Elec       q    Type
REMARK                         _______ _______ _______ _____ _____    ______ ____
ROOT
ATOM      1  C   UNL     1       1.710   9.134  19.312  0.00  0.00    +0.000 A 
ATOM      2  N   UNL     1       2.201   9.300  18.049  0.00  0.00    +0.000 NA
ATOM      3  C   UNL     1       2.837   8.284  17.439  0.00  0.00    +0.000 A 
ATOM      4  N   UNL     1       3.051   7.036  17.901  0.00  0.00    +0.000 NA
ATOM      5  C   UNL     1       2.525   6.894  19.130  0.00  0.00    +0.000 A 
ATOM      6  C   UNL     1       1.860   7.845  19.886  0.00  0.00    +0.000 A 
ATOM      7  N   UNL     1       1.451   7.294  21.091  0.00  0.00    +0.000 NA
ATOM      8  C   UNL     1       1.868   6.046  21.062  0.00  0.00    +0.000 A 
ATOM      9  N   UNL     1       2.518   5.759  19.894  0.00  0.00    +0.000 N 
ENDROOT
BRANCH   1  14
ATOM     10  C   UNL     1      -1.616  10.060  18.703  0.00  0.00    +0.000 C 
ATOM     11  C   UNL     1      -0.966  11.404  19.121  0.00  0.00    +0.000 C 
ATOM     12  C   UNL     1      -1.320  12.369  17.948  0.00  0.00    +0.000 C 
ATOM     13  C   UNL     1       0.597  11.327  19.152  0.00  0.00    +0.000 C 
ATOM     14  N   UNL     1       1.116  10.213  19.942  0.00  0.00    +0.000 N 
ATOM     15  C   UNL     1       0.969  10.227  21.392  0.00  0.00    +0.000 C 
ATOM     16  C   UNL     1      -0.470   9.942  21.808  0.00  0.00    +0.000 C 
ATOM     17  C   UNL     1      -1.298  11.206  21.705  0.00  0.00    +0.000 A 
ATOM     18  C   UNL     1      -1.767  11.740  22.925  0.00  0.00    +0.000 A 
ATOM     19  C   UNL     1      -2.394  12.977  22.978  0.00  0.00    +0.000 A 
ATOM     20  C   UNL     1      -2.580  13.692  21.807  0.00  0.00    +0.000 A 
ATOM     21  C   UNL     1      -2.154  13.161  20.586  0.00  0.00    +0.000 A 
ATOM     22  C   UNL     1      -1.502  11.910  20.489  0.00  0.00    +0.000 A 
ENDBRANCH   1  14
BRANCH   9  23
ATOM     23  C   UNL     1       3.178   4.507  19.559  0.00  0.00    +0.000 C 
BRANCH  23  24
ATOM     24  C   UNL     1       2.244   3.392  19.104  0.00  0.00    +0.000 C 
ATOM     25  C   UNL     1       2.917   2.229  18.352  0.00  0.00    +0.000 C 
ATOM     26  O   UNL     1       2.088   2.450  17.187  0.00  0.00    +0.000 OA
ATOM     27  C   UNL     1       1.597   3.695  17.740  0.00  0.00    +0.000 C 
BRANCH  24  28
ATOM     28  C   UNL     1       1.216   2.924  20.127  0.00  0.00    +0.000 C 
BRANCH  28  29
ATOM     29  O   UNL     1       0.031   2.507  19.460  0.00  0.00    +0.000 OA
ATOM     30  H   UNL     1      -0.568   2.136  20.143  0.00  0.00    +0.000 HD
ENDBRANCH  28  29
ENDBRANCH  24  28
ENDBRANCH  23  24
ENDBRANCH   9  23
TORSDOF 5
ENDMDL
MODEL 2
REMARK VINA RESULT:      -7.2      1.338      2.409
REMARK  Name = 
REMARK  7 active torsions:
REMARK  status: ('A' for Active; 'I' for Inactive)
REMARK    1  A    between atoms: C_1  and  C_2
REMARK    2  A    between atoms: C_2  and  C_3
REMARK    3  A    between atoms: N_5  and  C_6
REMARK    4  A    between atoms: N_14  and  C_15
REMARK    5  A    between atoms: C_15  and  C_16
REMARK    6  A    between atoms: C_16  and  C_17
REMARK    7  A    between atoms: C_17  and  O_18
REMARK                            x       y       z     vdW  Elec       q    Type
REMARK                         _______ _______ _______ _____ _____    ______ ____
ROOT
ATOM      1  C   UNL     1       1.590   8.736  19.095  0.00  0.00    +0.000 A 
ATOM      2  N   UNL     1       2.251   9.059  17.945  0.00  0.00    +0.000 NA
ATOM      3  C   UNL     1       3.176   8.220  17.446  0.00  0.00    +0.000 A 
ATOM      4  N   UNL     1       3.554   7.017  17.920  0.00  0.00    +0.000 NA
ATOM      5  C   UNL     1       2.860   6.712  19.030  0.00  0.00    +0.000 A 
ATOM      6  C   UNL     1       1.895   7.474  19.667  0.00  0.00    +0.000 A 
ATOM      7  N   UNL     1       1.402   6.792  20.769  0.00  0.00    +0.000 NA
ATOM      8  C   UNL     1       2.061   5.653  20.798  0.00  0.00    +0.000 A 
ATOM      9  N   UNL     1       2.950   5.560  19.764  0.00  0.00    +0.000 N 
ENDROOT
BRANCH   1  14
ATOM     10  C   UNL     1       1.608   9.634  22.483  0.00  0.00    +0.000 C 
ATOM     11  C   UNL     1       0.126   9.857  22.086  0.00  0.00    +0.000 C 
ATOM     12  C   UNL     1      -0.670   9.020  23.134  0.00  0.00    +0.000 C 
ATOM     13  C   UNL     1      -0.219   9.234  20.693  0.00  0.00    +0.000 C 
ATOM     14  N   UNL     1       0.690   9.643  19.623  0.00  0.00    +0.000 N 
ATOM     15  C   UNL     1       0.668  11.020  19.146  0.00  0.00    +0.000 C 
ATOM     16  C   UNL     1       1.314  11.967  20.152  0.00  0.00    +0.000 C 
ATOM     17  C   UNL     1       0.321  12.321  21.239  0.00  0.00    +0.000 A 
ATOM     18  C   UNL     1      -0.107  13.666  21.273  0.00  0.00    +0.000 A 
ATOM     19  C   UNL     1      -1.133  14.077  22.113  0.00  0.00    +0.000 A 
ATOM     20  C   UNL     1      -1.733  13.151  22.949  0.00  0.00    +0.000 A 
ATOM     21  C   UNL     1      -1.296  11.823  22.955  0.00  0.00    +0.000 A 
ATOM     22  C   UNL     1      -0.263  11.362  22.108  0.00  0.00    +0.000 A 
ENDBRANCH   1  14
BRANCH   9  23
ATOM     23  C   UNL     1       3.897   4.481  19.535  0.00  0.00    +0.000 C 
BRANCH  23  24
ATOM     24  C   UNL     1       3.363   3.325  18.696  0.00  0.00    +0.000 C 
ATOM     25  C   UNL     1       3.499   3.494  17.172  0.00  0.00    +0.000 C 
ATOM     26  O   UNL     1       2.070   3.371  16.990  0.00  0.00    +0.000 OA
ATOM     27  C   UNL     1       1.854   3.456  18.419  0.00  0.00    +0.000 C 
BRANCH  24  28
ATOM     28  C   UNL     1       3.732   1.926  19.176  0.00  0.00    +0.000 C 
BRANCH  28  29
ATOM     29  O   UNL     1       4.045   1.103  18.059  0.00  0.00    +0.000 OA
ATOM     30  H   UNL     1       4.873   1.454  17.667  0.00  0.00    +0.000 HD
ENDBRANCH  28  29
ENDBRANCH  24  28
ENDBRANCH  23  24
ENDBRANCH   9  23
TORSDOF 5
ENDMDL
MODEL 3
REMARK VINA RESULT:      -7.1      0.725      1.371
REMARK  Name = 
REMARK  7 active torsions:
REMARK  status: ('A' for Active; 'I' for Inactive)
REMARK    1  A    between atoms: C_1  and  C_2
REMARK    2  A    between atoms: C_2  and  C_3
REMARK    3  A    between atoms: N_5  and  C_6
REMARK    4  A    between atoms: N_14  and  C_15
REMARK    5  A    between atoms: C_15  and  C_16
REMARK    6  A    between atoms: C_16  and  C_17
REMARK    7  A    between atoms: C_17  and  O_18
REMARK                            x       y       z     vdW  Elec       q    Type
REMARK                         _______ _______ _______ _____ _____    ______ ____
ROOT
ATOM      1  C   UNL     1       1.894   8.697  19.372  0.00  0.00    +0.000 A 
ATOM      2  N   UNL     1       2.319   8.929  18.096  0.00  0.00    +0.000 NA
ATOM      3  C   UNL     1       2.907   7.943  17.395  0.00  0.00    +0.000 A 
ATOM      4  N   UNL     1       3.126   6.669  17.772  0.00  0.00    +0.000 NA
ATOM      5  C   UNL     1       2.665   6.461  19.018  0.00  0.00    +0.000 A 
ATOM      6  C   UNL     1       2.056   7.375  19.862  0.00  0.00    +0.000 A 
ATOM      7  N   UNL     1       1.705   6.758  21.054  0.00  0.00    +0.000 NA
ATOM      8  C   UNL     1       2.101   5.510  20.931  0.00  0.00    +0.000 A 
ATOM      9  N   UNL     1       2.683   5.284  19.715  0.00  0.00    +0.000 N 
ENDROOT
BRANCH   1  14
ATOM     10  C   UNL     1      -1.301   9.974  18.704  0.00  0.00    +0.000 C 
ATOM     11  C   UNL     1      -0.572  11.199  19.313  0.00  0.00    +0.000 C 
ATOM     12  C   UNL     1      -0.772  12.320  18.248  0.00  0.00    +0.000 C 
ATOM     13  C   UNL     1       0.974  10.982  19.418  0.00  0.00    +0.000 C 
ATOM     14  N   UNL     1       1.351   9.743  20.095  0.00  0.00    +0.000 N 
ATOM     15  C   UNL     1       1.115   9.603  21.527  0.00  0.00    +0.000 C 
ATOM     16  C   UNL     1      -0.366   9.400  21.828  0.00  0.00    +0.000 C 
ATOM     17  C   UNL     1      -1.080  10.735  21.834  0.00  0.00    +0.000 A 
ATOM     18  C   UNL     1      -1.581  11.164  23.082  0.00  0.00    +0.000 A 
ATOM     19  C   UNL     1      -2.108  12.437  23.251  0.00  0.00    +0.000 A 
ATOM     20  C   UNL     1      -2.161  13.296  22.166  0.00  0.00    +0.000 A 
ATOM     21  C   UNL     1      -1.703  12.874  20.914  0.00  0.00    +0.000 A 
ATOM     22  C   UNL     1      -1.150  11.590  20.702  0.00  0.00    +0.000 A 
ENDBRANCH   1  14
BRANCH   9  23
ATOM     23  C   UNL     1       3.305   4.046  19.272  0.00  0.00    +0.000 C 
BRANCH  23  24
ATOM     24  C   UNL     1       2.342   3.013  18.700  0.00  0.00    +0.000 C 
ATOM     25  C   UNL     1       0.957   3.550  18.294  0.00  0.00    +0.000 C 
ATOM     26  O   UNL     1       0.293   2.642  19.203  0.00  0.00    +0.000 OA
ATOM     27  C   UNL     1       1.559   2.274  19.802  0.00  0.00    +0.000 C 
BRANCH  24  28
ATOM     28  C   UNL     1       2.929   2.047  17.678  0.00  0.00    +0.000 C 
BRANCH  28  29
ATOM     29  O   UNL     1       3.994   1.313  18.270  0.00  0.00    +0.000 OA
ATOM     30  H   UNL     1       3.830   0.365  18.078  0.00  0.00    +0.000 HD
ENDBRANCH  28  29
ENDBRANCH  24  28
ENDBRANCH  23  24
ENDBRANCH   9  23
TORSDOF 5
ENDMDL
MODEL 4
REMARK VINA RESULT:      -7.1      1.247      1.860
REMARK  Name = 
REMARK  7 active torsions:
REMARK  status: ('A' for Active; 'I' for Inactive)
REMARK    1  A    between atoms: C_1  and  C_2
REMARK    2  A    between atoms: C_2  and  C_3
REMARK    3  A    between atoms: N_5  and  C_6
REMARK    4  A    between atoms: N_14  and  C_15
REMARK    5  A    between atoms: C_15  and  C_16
REMARK    6  A    between atoms: C_16  and  C_17
REMARK    7  A    between atoms: C_17  and  O_18
REMARK                            x       y       z     vdW  Elec       q    Type
REMARK                         _______ _______ _______ _____ _____    ______ ____
ROOT
ATOM      1  C   UNL     1       1.357   9.179  19.403  0.00  0.00    +0.000 A 
ATOM      2  N   UNL     1       1.879   9.523  18.189  0.00  0.00    +0.000 NA
ATOM      3  C   UNL     1       2.696   8.671  17.545  0.00  0.00    +0.000 A 
ATOM      4  N   UNL     1       3.080   7.436  17.924  0.00  0.00    +0.000 NA
ATOM      5  C   UNL     1       2.522   7.113  19.103  0.00  0.00    +0.000 A 
ATOM      6  C   UNL     1       1.680   7.884  19.886  0.00  0.00    +0.000 A 
ATOM      7  N   UNL     1       1.303   7.177  21.018  0.00  0.00    +0.000 NA
ATOM      8  C   UNL     1       1.912   6.015  20.922  0.00  0.00    +0.000 A 
ATOM      9  N   UNL     1       2.657   5.929  19.778  0.00  0.00    +0.000 N 
ENDROOT
BRANCH   1  14
ATOM     10  C   UNL     1       1.418  12.601  18.649  0.00  0.00    +0.000 C 
ATOM     11  C   UNL     1       0.998  12.595  20.142  0.00  0.00    +0.000 C 
ATOM     12  C   UNL     1       2.035  13.540  20.824  0.00  0.00    +0.000 C 
ATOM     13  C   UNL     1       1.195  11.194  20.811  0.00  0.00    +0.000 C 
ATOM     14  N   UNL     1       0.571  10.096  20.075  0.00  0.00    +0.000 N 
ATOM     15  C   UNL     1      -0.882   9.999  20.020  0.00  0.00    +0.000 C 
ATOM     16  C   UNL     1      -1.475  11.052  19.091  0.00  0.00    +0.000 C 
ATOM     17  C   UNL     1      -1.585  12.378  19.815  0.00  0.00    +0.000 A 
ATOM     18  C   UNL     1      -2.895  12.840  20.066  0.00  0.00    +0.000 A 
ATOM     19  C   UNL     1      -3.129  13.954  20.861  0.00  0.00    +0.000 A 
ATOM     20  C   UNL     1      -2.051  14.635  21.402  0.00  0.00    +0.000 A 
ATOM     21  C   UNL     1      -0.746  14.213  21.133  0.00  0.00    +0.000 A 
ATOM     22  C   UNL     1      -0.466  13.078  20.337  0.00  0.00    +0.000 A 
ENDBRANCH   1  14
BRANCH   9  23
ATOM     23  C   UNL     1       3.521   4.826  19.391  0.00  0.00    +0.000 C 
BRANCH  23  24
ATOM     24  C   UNL     1       2.800   3.632  18.776  0.00  0.00    +0.000 C 
ATOM     25  C   UNL     1       3.420   3.079  17.480  0.00  0.00    +0.000 C 
ATOM     26  O   UNL     1       2.196   3.310  16.747  0.00  0.00    +0.000 OA
ATOM     27  C   UNL     1       1.644   4.062  17.854  0.00  0.00    +0.000 C 
BRANCH  24  28
ATOM     28  C   UNL     1       2.373   2.537  19.746  0.00  0.00    +0.000 C 
BRANCH  28  29
ATOM     29  O   UNL     1       1.726   1.490  19.034  0.00  0.00    +0.000 OA
ATOM     30  H   UNL     1       2.317   1.240  18.292  0.00  0.00    +0.000 HD
ENDBRANCH  28  29
ENDBRANCH  24  28
ENDBRANCH  23  24
ENDBRANCH   9  23
TORSDOF 5
ENDMDL
MODEL 5
REMARK VINA RESULT:      -7.1      1.374      2.694
REMARK  Name = 
REMARK  7 active torsions:
REMARK  status: ('A' for Active; 'I' for Inactive)
REMARK    1  A    between atoms: C_1  and  C_2
REMARK    2  A    between atoms: C_2  and  C_3
REMARK    3  A    between atoms: N_5  and  C_6
REMARK    4  A    between atoms: N_14  and  C_15
REMARK    5  A    between atoms: C_15  and  C_16
REMARK    6  A    between atoms: C_16  and  C_17
REMARK    7  A    between atoms: C_17  and  O_18
REMARK                            x       y       z     vdW  Elec       q    Type
REMARK                         _______ _______ _______ _____ _____    ______ ____
ROOT
ATOM      1  C   UNL     1       1.642   8.679  19.065  0.00  0.00    +0.000 A 
ATOM      2  N   UNL     1       2.350   9.041  17.955  0.00  0.00    +0.000 NA
ATOM      3  C   UNL     1       3.277   8.208  17.450  0.00  0.00    +0.000 A 
ATOM      4  N   UNL     1       3.615   6.977  17.880  0.00  0.00    +0.000 NA
ATOM      5  C   UNL     1       2.877   6.635  18.950  0.00  0.00    +0.000 A 
ATOM      6  C   UNL     1       1.903   7.386  19.587  0.00  0.00    +0.000 A 
ATOM      7  N   UNL     1       1.358   6.663  20.638  0.00  0.00    +0.000 NA
ATOM      8  C   UNL     1       1.995   5.512  20.638  0.00  0.00    +0.000 A 
ATOM      9  N   UNL     1       2.919   5.448  19.632  0.00  0.00    +0.000 N 
ENDROOT
BRANCH   1  14
ATOM     10  C   UNL     1       1.653   9.534  22.464  0.00  0.00    +0.000 C 
ATOM     11  C   UNL     1       0.171   9.760  22.067  0.00  0.00    +0.000 C 
ATOM     12  C   UNL     1      -0.626   8.909  23.103  0.00  0.00    +0.000 C 
ATOM     13  C   UNL     1      -0.170   9.154  20.665  0.00  0.00    +0.000 C 
ATOM     14  N   UNL     1       0.740   9.578  19.603  0.00  0.00    +0.000 N 
ATOM     15  C   UNL     1       0.718  10.961  19.143  0.00  0.00    +0.000 C 
ATOM     16  C   UNL     1       1.361  11.896  20.162  0.00  0.00    +0.000 C 
ATOM     17  C   UNL     1       0.365  12.235  21.252  0.00  0.00    +0.000 A 
ATOM     18  C   UNL     1      -0.064  13.579  21.302  0.00  0.00    +0.000 A 
ATOM     19  C   UNL     1      -1.092  13.978  22.145  0.00  0.00    +0.000 A 
ATOM     20  C   UNL     1      -1.693  13.041  22.968  0.00  0.00    +0.000 A 
ATOM     21  C   UNL     1      -1.255  11.714  22.958  0.00  0.00    +0.000 A 
ATOM     22  C   UNL     1      -0.219  11.264  22.107  0.00  0.00    +0.000 A 
ENDBRANCH   1  14
BRANCH   9  23
ATOM     23  C   UNL     1       3.854   4.362  19.386  0.00  0.00    +0.000 C 
BRANCH  23  24
ATOM     24  C   UNL     1       3.600   3.573  18.107  0.00  0.00    +0.000 C 
ATOM     25  C   UNL     1       2.155   3.614  17.579  0.00  0.00    +0.000 C 
ATOM     26  O   UNL     1       2.041   2.175  17.662  0.00  0.00    +0.000 OA
ATOM     27  C   UNL     1       3.290   2.092  18.389  0.00  0.00    +0.000 C 
BRANCH  24  28
ATOM     28  C   UNL     1       4.641   3.735  17.006  0.00  0.00    +0.000 C 
BRANCH  28  29
ATOM     29  O   UNL     1       5.582   4.735  17.379  0.00  0.00    +0.000 OA
ATOM     30  H   UNL     1       6.125   4.928  16.584  0.00  0.00    +0.000 HD
ENDBRANCH  28  29
ENDBRANCH  24  28
ENDBRANCH  23  24
ENDBRANCH   9  23
TORSDOF 5
ENDMDL
MODEL 6
REMARK VINA RESULT:      -7.0      2.297      3.224
REMARK  Name = 
REMARK  7 active torsions:
REMARK  status: ('A' for Active; 'I' for Inactive)
REMARK    1  A    between atoms: C_1  and  C_2
REMARK    2  A    between atoms: C_2  and  C_3
REMARK    3  A    between atoms: N_5  and  C_6
REMARK    4  A    between atoms: N_14  and  C_15
REMARK    5  A    between atoms: C_15  and  C_16
REMARK    6  A    between atoms: C_16  and  C_17
REMARK    7  A    between atoms: C_17  and  O_18
REMARK                            x       y       z     vdW  Elec       q    Type
REMARK                         _______ _______ _______ _____ _____    ______ ____
ROOT
ATOM      1  C   UNL     1       1.745   7.630  20.336  0.00  0.00    +0.000 A 
ATOM      2  N   UNL     1       1.353   6.539  21.058  0.00  0.00    +0.000 NA
ATOM      3  C   UNL     1       1.646   5.303  20.615  0.00  0.00    +0.000 A 
ATOM      4  N   UNL     1       2.339   4.953  19.514  0.00  0.00    +0.000 NA
ATOM      5  C   UNL     1       2.741   6.048  18.846  0.00  0.00    +0.000 A 
ATOM      6  C   UNL     1       2.505   7.374  19.165  0.00  0.00    +0.000 A 
ATOM      7  N   UNL     1       3.112   8.202  18.233  0.00  0.00    +0.000 NA
ATOM      8  C   UNL     1       3.688   7.394  17.371  0.00  0.00    +0.000 A 
ATOM      9  N   UNL     1       3.494   6.082  17.704  0.00  0.00    +0.000 N 
ENDROOT
BRANCH   1  14
ATOM     10  C   UNL     1      -1.155   9.238  19.199  0.00  0.00    +0.000 C 
ATOM     11  C   UNL     1      -0.237  10.430  19.574  0.00  0.00    +0.000 C 
ATOM     12  C   UNL     1      -0.208  11.299  18.279  0.00  0.00    +0.000 C 
ATOM     13  C   UNL     1       1.243   9.987  19.823  0.00  0.00    +0.000 C 
ATOM     14  N   UNL     1       1.377   8.887  20.777  0.00  0.00    +0.000 N 
ATOM     15  C   UNL     1       1.082   9.115  22.186  0.00  0.00    +0.000 C 
ATOM     16  C   UNL     1      -0.419   9.234  22.427  0.00  0.00    +0.000 C 
ATOM     17  C   UNL     1      -0.886  10.636  22.096  0.00  0.00    +0.000 A 
ATOM     18  C   UNL     1      -1.336  11.413  23.186  0.00  0.00    +0.000 A 
ATOM     19  C   UNL     1      -1.633  12.761  23.039  0.00  0.00    +0.000 A 
ATOM     20  C   UNL     1      -1.505  13.349  21.792  0.00  0.00    +0.000 A 
ATOM     21  C   UNL     1      -1.096  12.586  20.695  0.00  0.00    +0.000 A 
ATOM     22  C   UNL     1      -0.774  11.213  20.804  0.00  0.00    +0.000 A 
ENDBRANCH   1  14
BRANCH   9  23
ATOM     23  C   UNL     1       3.919   4.924  16.933  0.00  0.00    +0.000 C 
BRANCH  23  24
ATOM     24  C   UNL     1       5.429   4.734  16.841  0.00  0.00    +0.000 C 
ATOM     25  C   UNL     1       6.146   5.615  15.802  0.00  0.00    +0.000 C 
ATOM     26  O   UNL     1       6.658   4.453  15.109  0.00  0.00    +0.000 OA
ATOM     27  C   UNL     1       5.813   3.580  15.896  0.00  0.00    +0.000 C 
BRANCH  24  28
ATOM     28  C   UNL     1       6.173   4.652  18.168  0.00  0.00    +0.000 C 
BRANCH  28  29
ATOM     29  O   UNL     1       7.495   4.175  17.947  0.00  0.00    +0.000 OA
ATOM     30  H   UNL     1       8.031   4.444  18.724  0.00  0.00    +0.000 HD
ENDBRANCH  28  29
ENDBRANCH  24  28
ENDBRANCH  23  24
ENDBRANCH   9  23
TORSDOF 5
ENDMDL
MODEL 7
REMARK VINA RESULT:      -7.0      1.881      3.135
REMARK  Name = 
REMARK  7 active torsions:
REMARK  status: ('A' for Active; 'I' for Inactive)
REMARK    1  A    between atoms: C_1  and  C_2
REMARK    2  A    between atoms: C_2  and  C_3
REMARK    3  A    between atoms: N_5  and  C_6
REMARK    4  A    between atoms: N_14  and  C_15
REMARK    5  A    between atoms: C_15  and  C_16
REMARK    6  A    between atoms: C_16  and  C_17
REMARK    7  A    between atoms: C_17  and  O_18
REMARK                            x       y       z     vdW  Elec       q    Type
REMARK                         _______ _______ _______ _____ _____    ______ ____
ROOT
ATOM      1  C   UNL     1       1.060   9.712  19.793  0.00  0.00    +0.000 A 
ATOM      2  N   UNL     1       0.554   9.421  21.028  0.00  0.00    +0.000 NA
ATOM      3  C   UNL     1       0.772   8.211  21.573  0.00  0.00    +0.000 A 
ATOM      4  N   UNL     1       1.486   7.186  21.069  0.00  0.00    +0.000 NA
ATOM      5  C   UNL     1       2.000   7.516  19.871  0.00  0.00    +0.000 A 
ATOM      6  C   UNL     1       1.851   8.706  19.181  0.00  0.00    +0.000 A 
ATOM      7  N   UNL     1       2.561   8.657  17.990  0.00  0.00    +0.000 NA
ATOM      8  C   UNL     1       3.113   7.463  17.963  0.00  0.00    +0.000 A 
ATOM      9  N   UNL     1       2.805   6.740  19.082  0.00  0.00    +0.000 N 
ENDROOT
BRANCH   1  14
ATOM     10  C   UNL     1      -0.198  12.391  21.673  0.00  0.00    +0.000 C 
ATOM     11  C   UNL     1      -0.756  12.685  20.256  0.00  0.00    +0.000 C 
ATOM     12  C   UNL     1      -2.290  12.843  20.486  0.00  0.00    +0.000 C 
ATOM     13  C   UNL     1      -0.593  11.468  19.286  0.00  0.00    +0.000 C 
ATOM     14  N   UNL     1       0.768  10.939  19.227  0.00  0.00    +0.000 N 
ATOM     15  C   UNL     1       1.822  11.730  18.603  0.00  0.00    +0.000 C 
ATOM     16  C   UNL     1       2.240  12.898  19.491  0.00  0.00    +0.000 C 
ATOM     17  C   UNL     1       1.268  14.048  19.322  0.00  0.00    +0.000 A 
ATOM     18  C   UNL     1       1.785  15.210  18.710  0.00  0.00    +0.000 A 
ATOM     19  C   UNL     1       0.959  16.267  18.353  0.00  0.00    +0.000 A 
ATOM     20  C   UNL     1      -0.397  16.185  18.621  0.00  0.00    +0.000 A 
ATOM     21  C   UNL     1      -0.919  15.057  19.260  0.00  0.00    +0.000 A 
ATOM     22  C   UNL     1      -0.114  13.955  19.631  0.00  0.00    +0.000 A 
ENDBRANCH   1  14
BRANCH   9  23
ATOM     23  C   UNL     1       3.176   5.359  19.346  0.00  0.00    +0.000 C 
BRANCH  23  24
ATOM     24  C   UNL     1       2.112   4.329  18.984  0.00  0.00    +0.000 C 
ATOM     25  C   UNL     1       2.628   3.067  18.269  0.00  0.00    +0.000 C 
ATOM     26  O   UNL     1       1.778   3.318  17.126  0.00  0.00    +0.000 OA
ATOM     27  C   UNL     1       1.443   4.633  17.631  0.00  0.00    +0.000 C 
BRANCH  24  28
ATOM     28  C   UNL     1       1.085   4.022  20.068  0.00  0.00    +0.000 C 
BRANCH  28  29
ATOM     29  O   UNL     1       0.310   2.892  19.686  0.00  0.00    +0.000 OA
ATOM     30  H   UNL     1       0.752   2.490  18.908  0.00  0.00    +0.000 HD
ENDBRANCH  28  29
ENDBRANCH  24  28
ENDBRANCH  23  24
ENDBRANCH   9  23
TORSDOF 5
ENDMDL
MODEL 8
REMARK VINA RESULT:      -7.0      1.331      2.309
REMARK  Name = 
REMARK  7 active torsions:
REMARK  status: ('A' for Active; 'I' for Inactive)
REMARK    1  A    between atoms: C_1  and  C_2
REMARK    2  A    between atoms: C_2  and  C_3
REMARK    3  A    between atoms: N_5  and  C_6
REMARK    4  A    between atoms: N_14  and  C_15
REMARK    5  A    between atoms: C_15  and  C_16
REMARK    6  A    between atoms: C_16  and  C_17
REMARK    7  A    between atoms: C_17  and  O_18
REMARK                            x       y       z     vdW  Elec       q    Type
REMARK                         _______ _______ _______ _____ _____    ______ ____
ROOT
ATOM      1  C   UNL     1       1.464   9.052  19.363  0.00  0.00    +0.000 A 
ATOM      2  N   UNL     1       2.015   9.412  18.167  0.00  0.00    +0.000 NA
ATOM      3  C   UNL     1       2.842   8.565  17.528  0.00  0.00    +0.000 A 
ATOM      4  N   UNL     1       3.211   7.323  17.897  0.00  0.00    +0.000 NA
ATOM      5  C   UNL     1       2.626   6.985  19.059  0.00  0.00    +0.000 A 
ATOM      6  C   UNL     1       1.770   7.749  19.834  0.00  0.00    +0.000 A 
ATOM      7  N   UNL     1       1.365   7.027  20.946  0.00  0.00    +0.000 NA
ATOM      8  C   UNL     1       1.970   5.863  20.846  0.00  0.00    +0.000 A 
ATOM      9  N   UNL     1       2.739   5.791  19.718  0.00  0.00    +0.000 N 
ENDROOT
BRANCH   1  14
ATOM     10  C   UNL     1       1.491  12.473  18.599  0.00  0.00    +0.000 C 
ATOM     11  C   UNL     1       1.070  12.467  20.091  0.00  0.00    +0.000 C 
ATOM     12  C   UNL     1       2.095  13.425  20.771  0.00  0.00    +0.000 C 
ATOM     13  C   UNL     1       1.280  11.070  20.765  0.00  0.00    +0.000 C 
ATOM     14  N   UNL     1       0.668   9.964  20.032  0.00  0.00    +0.000 N 
ATOM     15  C   UNL     1      -0.784   9.851  19.976  0.00  0.00    +0.000 C 
ATOM     16  C   UNL     1      -1.387  10.896  19.042  0.00  0.00    +0.000 C 
ATOM     17  C   UNL     1      -1.511  12.222  19.762  0.00  0.00    +0.000 A 
ATOM     18  C   UNL     1      -2.826  12.672  20.010  0.00  0.00    +0.000 A 
ATOM     19  C   UNL     1      -3.072  13.785  20.802  0.00  0.00    +0.000 A 
ATOM     20  C   UNL     1      -2.002  14.480  21.342  0.00  0.00    +0.000 A 
ATOM     21  C   UNL     1      -0.693  14.070  21.076  0.00  0.00    +0.000 A 
ATOM     22  C   UNL     1      -0.400  12.936  20.284  0.00  0.00    +0.000 A 
ENDBRANCH   1  14
BRANCH   9  23
ATOM     23  C   UNL     1       3.606   4.689  19.333  0.00  0.00    +0.000 C 
BRANCH  23  24
ATOM     24  C   UNL     1       3.093   3.844  18.173  0.00  0.00    +0.000 C 
ATOM     25  C   UNL     1       1.598   4.008  17.843  0.00  0.00    +0.000 C 
ATOM     26  O   UNL     1       1.353   2.600  18.065  0.00  0.00    +0.000 OA
ATOM     27  C   UNL     1       2.679   2.430  18.621  0.00  0.00    +0.000 C 
BRANCH  24  28
ATOM     28  C   UNL     1       3.977   3.809  16.932  0.00  0.00    +0.000 C 
BRANCH  28  29
ATOM     29  O   UNL     1       4.634   5.060  16.776  0.00  0.00    +0.000 OA
ATOM     30  H   UNL     1       4.392   5.610  17.552  0.00  0.00    +0.000 HD
ENDBRANCH  28  29
ENDBRANCH  24  28
ENDBRANCH  23  24
ENDBRANCH   9  23
TORSDOF 5
ENDMDL
MODEL 9
REMARK VINA RESULT:      -6.9      2.500      3.830
REMARK  Name = 
REMARK  7 active torsions:
REMARK  status: ('A' for Active; 'I' for Inactive)
REMARK    1  A    between atoms: C_1  and  C_2
REMARK    2  A    between atoms: C_2  and  C_3
REMARK    3  A    between atoms: N_5  and  C_6
REMARK    4  A    between atoms: N_14  and  C_15
REMARK    5  A    between atoms: C_15  and  C_16
REMARK    6  A    between atoms: C_16  and  C_17
REMARK    7  A    between atoms: C_17  and  O_18
REMARK                            x       y       z     vdW  Elec       q    Type
REMARK                         _______ _______ _______ _____ _____    ______ ____
ROOT
ATOM      1  C   UNL     1       1.197  10.146  19.595  0.00  0.00    +0.000 A 
ATOM      2  N   UNL     1       0.865   9.931  20.902  0.00  0.00    +0.000 NA
ATOM      3  C   UNL     1       1.013   8.707  21.439  0.00  0.00    +0.000 A 
ATOM      4  N   UNL     1       1.500   7.594  20.856  0.00  0.00    +0.000 NA
ATOM      5  C   UNL     1       1.851   7.846  19.583  0.00  0.00    +0.000 A 
ATOM      6  C   UNL     1       1.744   9.041  18.892  0.00  0.00    +0.000 A 
ATOM      7  N   UNL     1       2.239   8.892  17.605  0.00  0.00    +0.000 NA
ATOM      8  C   UNL     1       2.624   7.636  17.523  0.00  0.00    +0.000 A 
ATOM      9  N   UNL     1       2.412   6.967  18.697  0.00  0.00    +0.000 N 
ENDROOT
BRANCH   1  14
ATOM     10  C   UNL     1      -0.020  12.830  21.493  0.00  0.00    +0.000 C 
ATOM     11  C   UNL     1      -0.514  13.179  20.065  0.00  0.00    +0.000 C 
ATOM     12  C   UNL     1      -2.048  13.394  20.244  0.00  0.00    +0.000 C 
ATOM     13  C   UNL     1      -0.366  11.978  19.072  0.00  0.00    +0.000 C 
ATOM     14  N   UNL     1       0.975  11.396  19.048  0.00  0.00    +0.000 N 
ATOM     15  C   UNL     1       2.082  12.157  18.481  0.00  0.00    +0.000 C 
ATOM     16  C   UNL     1       2.513  13.286  19.410  0.00  0.00    +0.000 C 
ATOM     17  C   UNL     1       1.595  14.478  19.235  0.00  0.00    +0.000 A 
ATOM     18  C   UNL     1       2.180  15.632  18.669  0.00  0.00    +0.000 A 
ATOM     19  C   UNL     1       1.410  16.730  18.309  0.00  0.00    +0.000 A 
ATOM     20  C   UNL     1       0.043  16.697  18.527  0.00  0.00    +0.000 A 
ATOM     21  C   UNL     1      -0.547  15.577  19.120  0.00  0.00    +0.000 A 
ATOM     22  C   UNL     1       0.200  14.435  19.493  0.00  0.00    +0.000 A 
ENDBRANCH   1  14
BRANCH   9  23
ATOM     23  C   UNL     1       2.643   5.552  18.937  0.00  0.00    +0.000 C 
BRANCH  23  24
ATOM     24  C   UNL     1       4.025   5.050  18.535  0.00  0.00    +0.000 C 
ATOM     25  C   UNL     1       4.263   4.903  17.021  0.00  0.00    +0.000 C 
ATOM     26  O   UNL     1       4.558   3.494  17.163  0.00  0.00    +0.000 OA
ATOM     27  C   UNL     1       4.109   3.512  18.539  0.00  0.00    +0.000 C 
BRANCH  24  28
ATOM     28  C   UNL     1       5.203   5.684  19.264  0.00  0.00    +0.000 C 
BRANCH  28  29
ATOM     29  O   UNL     1       6.271   4.749  19.354  0.00  0.00    +0.000 OA
ATOM     30  H   UNL     1       6.796   4.989  20.147  0.00  0.00    +0.000 HD
ENDBRANCH  28  29
ENDBRANCH  24  28
ENDBRANCH  23  24
ENDBRANCH   9  23
TORSDOF 5
ENDMDL
