MODEL 1
REMARK VINA RESULT:      -7.9      0.000      0.000
REMARK  Name = 
REMARK  5 active torsions:
REMARK  status: ('A' for Active; 'I' for Inactive)
REMARK    1  A    between atoms: C_5  and  C_6
REMARK    2  A    between atoms: C_6  and  N_7
REMARK    3  A    between atoms: N_7  and  C_8
REMARK    4  A    between atoms: C_8  and  C_9
REMARK    5  A    between atoms: C_13  and  C_14
REMARK                            x       y       z     vdW  Elec       q    Type
REMARK                         _______ _______ _______ _____ _____    ______ ____
ROOT
ATOM      1  C   UNL     1       3.088   2.902  19.348  0.00  0.00    +0.000 A 
ATOM      2  C   UNL     1       2.584   1.719  18.833  0.00  0.00    +0.000 A 
ATOM      3  N   UNL     1       1.436   2.028  18.185  0.00  0.00    +0.000 N 
ATOM      4  N   UNL     1       1.128   3.322  18.238  0.00  0.00    +0.000 NA
ATOM      5  C   UNL     1       2.137   3.899  18.918  0.00  0.00    +0.000 A 
ATOM      6  H   UNL     1       0.810   1.403  17.688  0.00  0.00    +0.000 HD
ENDROOT
BRANCH   5   7
ATOM      7  C   UNL     1       2.118   5.359  19.090  0.00  0.00    +0.000 A 
ATOM      8  C   UNL     1       1.766   5.903  20.357  0.00  0.00    +0.000 A 
ATOM      9  C   UNL     1       1.624   7.281  20.555  0.00  0.00    +0.000 A 
ATOM     10  C   UNL     1       1.836   8.099  19.470  0.00  0.00    +0.000 A 
ATOM     11  C   UNL     1       2.188   7.591  18.242  0.00  0.00    +0.000 A 
ATOM     12  C   UNL     1       2.338   6.234  18.020  0.00  0.00    +0.000 A 
ATOM     13  O   UNL     1       2.326   8.564  17.301  0.00  0.00    +0.000 OA
ATOM     14  C   UNL     1       1.944   9.730  18.061  0.00  0.00    +0.000 C 
ATOM     15  O   UNL     1       1.704   9.452  19.456  0.00  0.00    +0.000 OA
ENDBRANCH   5   7
BRANCH   1  16
ATOM     16  C   UNL     1       4.336   3.067  20.171  0.00  0.00    +0.000 C 
BRANCH  16  17
ATOM     17  N   UNL     1       5.483   3.233  19.274  0.00  0.00    +0.000 NA
ATOM     18  H   UNL     1       6.333   2.988  19.777  0.00  0.00    +0.000 HD
BRANCH  17  19
ATOM     19  C   UNL     1       5.621   4.589  18.756  0.00  0.00    +0.000 C 
BRANCH  19  24
ATOM     20  F   UNL     1       6.761   4.575  13.219  0.00  0.00    +0.000 F 
ATOM     21  C   UNL     1       6.497   4.554  14.533  0.00  0.00    +0.000 A 
ATOM     22  C   UNL     1       7.495   4.891  15.437  0.00  0.00    +0.000 A 
ATOM     23  C   UNL     1       7.214   4.882  16.805  0.00  0.00    +0.000 A 
ATOM     24  C   UNL     1       5.930   4.545  17.272  0.00  0.00    +0.000 A 
ATOM     25  C   UNL     1       4.940   4.195  16.339  0.00  0.00    +0.000 A 
ATOM     26  C   UNL     1       5.225   4.201  14.971  0.00  0.00    +0.000 A 
ENDBRANCH  19  24
ENDBRANCH  17  19
ENDBRANCH  16  17
ENDBRANCH   1  16
TORSDOF 5
ENDMDL
MODEL 2
REMARK VINA RESULT:      -7.8      3.177      5.565
REMARK  Name = 
REMARK  5 active torsions:
REMARK  status: ('A' for Active; 'I' for Inactive)
REMARK    1  A    between atoms: C_5  and  C_6
REMARK    2  A    between atoms: C_6  and  N_7
REMARK    3  A    between atoms: N_7  and  C_8
REMARK    4  A    between atoms: C_8  and  C_9
REMARK    5  A    between atoms: C_13  and  C_14
REMARK                            x       y       z     vdW  Elec       q    Type
REMARK                         _______ _______ _______ _____ _____    ______ ____
ROOT
ATOM      1  C   UNL     1       1.985   3.190  19.662  0.00  0.00    +0.000 A 
ATOM      2  C   UNL     1       1.268   2.065  19.285  0.00  0.00    +0.000 A 
ATOM      3  N   UNL     1       1.782   1.647  18.105  0.00  0.00    +0.000 N 
ATOM      4  N   UNL     1       2.778   2.410  17.658  0.00  0.00    +0.000 NA
ATOM      5  C   UNL     1       2.953   3.352  18.604  0.00  0.00    +0.000 A 
ATOM      6  H   UNL     1       1.499   0.849  17.545  0.00  0.00    +0.000 HD
ENDROOT
BRANCH   5   7
ATOM      7  C   UNL     1       4.043   4.324  18.427  0.00  0.00    +0.000 A 
ATOM      8  C   UNL     1       4.075   5.123  17.250  0.00  0.00    +0.000 A 
ATOM      9  C   UNL     1       5.140   5.986  16.974  0.00  0.00    +0.000 A 
ATOM     10  C   UNL     1       6.168   6.034  17.886  0.00  0.00    +0.000 A 
ATOM     11  C   UNL     1       6.147   5.278  19.034  0.00  0.00    +0.000 A 
ATOM     12  C   UNL     1       5.105   4.420  19.334  0.00  0.00    +0.000 A 
ATOM     13  O   UNL     1       7.266   5.454  19.788  0.00  0.00    +0.000 OA
ATOM     14  C   UNL     1       8.024   6.344  18.943  0.00  0.00    +0.000 C 
ATOM     15  O   UNL     1       7.302   6.775  17.771  0.00  0.00    +0.000 OA
ENDBRANCH   5   7
BRANCH   1  16
ATOM     16  C   UNL     1       1.767   4.027  20.892  0.00  0.00    +0.000 C 
BRANCH  16  17
ATOM     17  N   UNL     1       1.317   5.362  20.489  0.00  0.00    +0.000 NA
ATOM     18  H   UNL     1       1.033   5.334  19.512  0.00  0.00    +0.000 HD
BRANCH  17  19
ATOM     19  C   UNL     1       2.340   6.389  20.648  0.00  0.00    +0.000 C 
BRANCH  19  24
ATOM     20  F   UNL     1       0.738  11.271  18.291  0.00  0.00    +0.000 F 
ATOM     21  C   UNL     1       1.096  10.104  18.843  0.00  0.00    +0.000 A 
ATOM     22  C   UNL     1       1.827   9.191  18.096  0.00  0.00    +0.000 A 
ATOM     23  C   UNL     1       2.212   7.980  18.677  0.00  0.00    +0.000 A 
ATOM     24  C   UNL     1       1.873   7.683  20.010  0.00  0.00    +0.000 A 
ATOM     25  C   UNL     1       1.121   8.619  20.741  0.00  0.00    +0.000 A 
ATOM     26  C   UNL     1       0.735   9.827  20.156  0.00  0.00    +0.000 A 
ENDBRANCH  19  24
ENDBRANCH  17  19
ENDBRANCH  16  17
ENDBRANCH   1  16
TORSDOF 5
ENDMDL
MODEL 3
REMARK VINA RESULT:      -7.7      3.113      4.850
REMARK  Name = 
REMARK  5 active torsions:
REMARK  status: ('A' for Active; 'I' for Inactive)
REMARK    1  A    between atoms: C_5  and  C_6
REMARK    2  A    between atoms: C_6  and  N_7
REMARK    3  A    between atoms: N_7  and  C_8
REMARK    4  A    between atoms: C_8  and  C_9
REMARK    5  A    between atoms: C_13  and  C_14
REMARK                            x       y       z     vdW  Elec       q    Type
REMARK                         _______ _______ _______ _____ _____    ______ ____
ROOT
ATOM      1  C   UNL     1       7.009   6.280  18.179  0.00  0.00    +0.000 A 
ATOM      2  C   UNL     1       8.153   6.358  18.957  0.00  0.00    +0.000 A 
ATOM      3  N   UNL     1       7.939   5.589  20.050  0.00  0.00    +0.000 N 
ATOM      4  N   UNL     1       6.738   5.014  20.070  0.00  0.00    +0.000 NA
ATOM      5  C   UNL     1       6.148   5.389  18.919  0.00  0.00    +0.000 A 
ATOM      6  H   UNL     1       8.569   5.415  20.827  0.00  0.00    +0.000 HD
ENDROOT
BRANCH   5   7
ATOM      7  C   UNL     1       4.812   4.855  18.614  0.00  0.00    +0.000 A 
ATOM      8  C   UNL     1       3.825   5.724  18.071  0.00  0.00    +0.000 A 
ATOM      9  C   UNL     1       2.508   5.304  17.860  0.00  0.00    +0.000 A 
ATOM     10  C   UNL     1       2.195   4.009  18.203  0.00  0.00    +0.000 A 
ATOM     11  C   UNL     1       3.139   3.153  18.718  0.00  0.00    +0.000 A 
ATOM     12  C   UNL     1       4.449   3.541  18.933  0.00  0.00    +0.000 A 
ATOM     13  O   UNL     1       2.621   1.929  19.011  0.00  0.00    +0.000 OA
ATOM     14  C   UNL     1       1.229   2.144  18.696  0.00  0.00    +0.000 C 
ATOM     15  O   UNL     1       0.966   3.436  18.112  0.00  0.00    +0.000 OA
ENDBRANCH   5   7
BRANCH   1  16
ATOM     16  C   UNL     1       6.757   6.985  16.874  0.00  0.00    +0.000 C 
BRANCH  16  17
ATOM     17  N   UNL     1       7.517   6.318  15.815  0.00  0.00    +0.000 NA
ATOM     18  H   UNL     1       7.210   6.677  14.913  0.00  0.00    +0.000 HD
BRANCH  17  19
ATOM     19  C   UNL     1       7.365   4.869  15.817  0.00  0.00    +0.000 C 
BRANCH  19  24
ATOM     20  F   UNL     1       4.892   3.049  11.070  0.00  0.00    +0.000 F 
ATOM     21  C   UNL     1       5.471   3.503  12.190  0.00  0.00    +0.000 A 
ATOM     22  C   UNL     1       4.755   3.503  13.379  0.00  0.00    +0.000 A 
ATOM     23  C   UNL     1       5.365   3.964  14.548  0.00  0.00    +0.000 A 
ATOM     24  C   UNL     1       6.696   4.419  14.532  0.00  0.00    +0.000 A 
ATOM     25  C   UNL     1       7.396   4.422  13.314  0.00  0.00    +0.000 A 
ATOM     26  C   UNL     1       6.782   3.963  12.145  0.00  0.00    +0.000 A 
ENDBRANCH  19  24
ENDBRANCH  17  19
ENDBRANCH  16  17
ENDBRANCH   1  16
TORSDOF 5
ENDMDL
MODEL 4
REMARK VINA RESULT:      -7.7      2.024      2.601
REMARK  Name = 
REMARK  5 active torsions:
REMARK  status: ('A' for Active; 'I' for Inactive)
REMARK    1  A    between atoms: C_5  and  C_6
REMARK    2  A    between atoms: C_6  and  N_7
REMARK    3  A    between atoms: N_7  and  C_8
REMARK    4  A    between atoms: C_8  and  C_9
REMARK    5  A    between atoms: C_13  and  C_14
REMARK                            x       y       z     vdW  Elec       q    Type
REMARK                         _______ _______ _______ _____ _____    ______ ____
ROOT
ATOM      1  C   UNL     1       2.359   3.460  19.541  0.00  0.00    +0.000 A 
ATOM      2  C   UNL     1       2.419   2.390  20.420  0.00  0.00    +0.000 A 
ATOM      3  N   UNL     1       2.380   2.903  21.671  0.00  0.00    +0.000 N 
ATOM      4  N   UNL     1       2.310   4.233  21.699  0.00  0.00    +0.000 NA
ATOM      5  C   UNL     1       2.263   4.611  20.407  0.00  0.00    +0.000 A 
ATOM      6  H   UNL     1       2.402   2.404  22.554  0.00  0.00    +0.000 HD
ENDROOT
BRANCH   5   7
ATOM      7  C   UNL     1       2.116   6.043  20.105  0.00  0.00    +0.000 A 
ATOM      8  C   UNL     1       1.464   6.887  21.047  0.00  0.00    +0.000 A 
ATOM      9  C   UNL     1       1.198   8.233  20.771  0.00  0.00    +0.000 A 
ATOM     10  C   UNL     1       1.589   8.715  19.543  0.00  0.00    +0.000 A 
ATOM     11  C   UNL     1       2.230   7.916  18.627  0.00  0.00    +0.000 A 
ATOM     12  C   UNL     1       2.509   6.585  18.875  0.00  0.00    +0.000 A 
ATOM     13  O   UNL     1       2.510   8.578  17.471  0.00  0.00    +0.000 OA
ATOM     14  C   UNL     1       1.899   9.858  17.740  0.00  0.00    +0.000 C 
ATOM     15  O   UNL     1       1.380   9.975  19.080  0.00  0.00    +0.000 OA
ENDBRANCH   5   7
BRANCH   1  16
ATOM     16  C   UNL     1       2.397   3.397  18.040  0.00  0.00    +0.000 C 
BRANCH  16  17
ATOM     17  N   UNL     1       3.775   3.155  17.605  0.00  0.00    +0.000 NA
ATOM     18  H   UNL     1       4.382   3.151  18.422  0.00  0.00    +0.000 HD
BRANCH  17  19
ATOM     19  C   UNL     1       4.267   4.152  16.662  0.00  0.00    +0.000 C 
BRANCH  19  24
ATOM     20  F   UNL     1       8.536   7.038  18.986  0.00  0.00    +0.000 F 
ATOM     21  C   UNL     1       7.540   6.336  18.428  0.00  0.00    +0.000 A 
ATOM     22  C   UNL     1       6.810   5.448  19.206  0.00  0.00    +0.000 A 
ATOM     23  C   UNL     1       5.763   4.727  18.626  0.00  0.00    +0.000 A 
ATOM     24  C   UNL     1       5.439   4.900  17.268  0.00  0.00    +0.000 A 
ATOM     25  C   UNL     1       6.200   5.795  16.499  0.00  0.00    +0.000 A 
ATOM     26  C   UNL     1       7.249   6.512  17.080  0.00  0.00    +0.000 A 
ENDBRANCH  19  24
ENDBRANCH  17  19
ENDBRANCH  16  17
ENDBRANCH   1  16
TORSDOF 5
ENDMDL
MODEL 5
REMARK VINA RESULT:      -7.6      1.983      2.459
REMARK  Name = 
REMARK  5 active torsions:
REMARK  status: ('A' for Active; 'I' for Inactive)
REMARK    1  A    between atoms: C_5  and  C_6
REMARK    2  A    between atoms: C_6  and  N_7
REMARK    3  A    between atoms: N_7  and  C_8
REMARK    4  A    between atoms: C_8  and  C_9
REMARK    5  A    between atoms: C_13  and  C_14
REMARK                            x       y       z     vdW  Elec       q    Type
REMARK                         _______ _______ _______ _____ _____    ______ ____
ROOT
ATOM      1  C   UNL     1       3.513   3.104  18.981  0.00  0.00    +0.000 A 
ATOM      2  C   UNL     1       3.089   1.907  18.425  0.00  0.00    +0.000 A 
ATOM      3  N   UNL     1       1.878   2.138  17.868  0.00  0.00    +0.000 N 
ATOM      4  N   UNL     1       1.453   3.391  18.018  0.00  0.00    +0.000 NA
ATOM      5  C   UNL     1       2.446   4.025  18.670  0.00  0.00    +0.000 A 
ATOM      6  H   UNL     1       1.281   1.483  17.373  0.00  0.00    +0.000 HD
ENDROOT
BRANCH   5   7
ATOM      7  C   UNL     1       2.300   5.465  18.932  0.00  0.00    +0.000 A 
ATOM      8  C   UNL     1       1.919   5.898  20.232  0.00  0.00    +0.000 A 
ATOM      9  C   UNL     1       1.660   7.243  20.515  0.00  0.00    +0.000 A 
ATOM     10  C   UNL     1       1.784   8.142  19.481  0.00  0.00    +0.000 A 
ATOM     11  C   UNL     1       2.162   7.741  18.222  0.00  0.00    +0.000 A 
ATOM     12  C   UNL     1       2.428   6.420  17.916  0.00  0.00    +0.000 A 
ATOM     13  O   UNL     1       2.202   8.778  17.341  0.00  0.00    +0.000 OA
ATOM     14  C   UNL     1       1.729   9.858  18.174  0.00  0.00    +0.000 C 
ATOM     15  O   UNL     1       1.533   9.476  19.551  0.00  0.00    +0.000 OA
ENDBRANCH   5   7
BRANCH   1  16
ATOM     16  C   UNL     1       4.791   3.346  19.735  0.00  0.00    +0.000 C 
BRANCH  16  17
ATOM     17  N   UNL     1       5.889   3.510  18.779  0.00  0.00    +0.000 NA
ATOM     18  H   UNL     1       6.710   3.853  19.274  0.00  0.00    +0.000 HD
BRANCH  17  19
ATOM     19  C   UNL     1       5.578   4.435  17.695  0.00  0.00    +0.000 C 
BRANCH  19  24
ATOM     20  F   UNL     1       8.718   9.116  18.129  0.00  0.00    +0.000 F 
ATOM     21  C   UNL     1       7.960   8.015  18.045  0.00  0.00    +0.000 A 
ATOM     22  C   UNL     1       6.872   7.997  17.183  0.00  0.00    +0.000 A 
ATOM     23  C   UNL     1       6.091   6.843  17.087  0.00  0.00    +0.000 A 
ATOM     24  C   UNL     1       6.401   5.700  17.847  0.00  0.00    +0.000 A 
ATOM     25  C   UNL     1       7.500   5.747  18.721  0.00  0.00    +0.000 A 
ATOM     26  C   UNL     1       8.277   6.903  18.819  0.00  0.00    +0.000 A 
ENDBRANCH  19  24
ENDBRANCH  17  19
ENDBRANCH  16  17
ENDBRANCH   1  16
TORSDOF 5
ENDMDL
MODEL 6
REMARK VINA RESULT:      -7.6      2.105      2.639
REMARK  Name = 
REMARK  5 active torsions:
REMARK  status: ('A' for Active; 'I' for Inactive)
REMARK    1  A    between atoms: C_5  and  C_6
REMARK    2  A    between atoms: C_6  and  N_7
REMARK    3  A    between atoms: N_7  and  C_8
REMARK    4  A    between atoms: C_8  and  C_9
REMARK    5  A    between atoms: C_13  and  C_14
REMARK                            x       y       z     vdW  Elec       q    Type
REMARK                         _______ _______ _______ _____ _____    ______ ____
ROOT
ATOM      1  C   UNL     1       3.253   3.431  18.670  0.00  0.00    +0.000 A 
ATOM      2  C   UNL     1       3.420   2.254  19.383  0.00  0.00    +0.000 A 
ATOM      3  N   UNL     1       3.240   2.555  20.690  0.00  0.00    +0.000 N 
ATOM      4  N   UNL     1       2.978   3.842  20.908  0.00  0.00    +0.000 NA
ATOM      5  C   UNL     1       2.946   4.408  19.687  0.00  0.00    +0.000 A 
ATOM      6  H   UNL     1       3.286   1.930  21.489  0.00  0.00    +0.000 HD
ENDROOT
BRANCH   5   7
ATOM      7  C   UNL     1       2.611   5.837  19.590  0.00  0.00    +0.000 A 
ATOM      8  C   UNL     1       1.916   6.461  20.663  0.00  0.00    +0.000 A 
ATOM      9  C   UNL     1       1.475   7.786  20.585  0.00  0.00    +0.000 A 
ATOM     10  C   UNL     1       1.735   8.471  19.421  0.00  0.00    +0.000 A 
ATOM     11  C   UNL     1       2.415   7.886  18.379  0.00  0.00    +0.000 A 
ATOM     12  C   UNL     1       2.866   6.580  18.431  0.00  0.00    +0.000 A 
ATOM     13  O   UNL     1       2.547   8.724  17.315  0.00  0.00    +0.000 OA
ATOM     14  C   UNL     1       1.803   9.870  17.780  0.00  0.00    +0.000 C 
ATOM     15  O   UNL     1       1.349   9.744  19.143  0.00  0.00    +0.000 OA
ENDBRANCH   5   7
BRANCH   1  16
ATOM     16  C   UNL     1       3.380   3.610  17.183  0.00  0.00    +0.000 C 
BRANCH  16  17
ATOM     17  N   UNL     1       4.771   3.374  16.789  0.00  0.00    +0.000 NA
ATOM     18  H   UNL     1       5.337   3.262  17.628  0.00  0.00    +0.000 HD
BRANCH  17  19
ATOM     19  C   UNL     1       5.335   4.451  15.985  0.00  0.00    +0.000 C 
BRANCH  19  24
ATOM     20  F   UNL     1       8.745   7.715  19.096  0.00  0.00    +0.000 F 
ATOM     21  C   UNL     1       7.918   6.946  18.375  0.00  0.00    +0.000 A 
ATOM     22  C   UNL     1       7.197   7.509  17.331  0.00  0.00    +0.000 A 
ATOM     23  C   UNL     1       6.346   6.702  16.572  0.00  0.00    +0.000 A 
ATOM     24  C   UNL     1       6.221   5.328  16.849  0.00  0.00    +0.000 A 
ATOM     25  C   UNL     1       6.953   4.785  17.918  0.00  0.00    +0.000 A 
ATOM     26  C   UNL     1       7.800   5.594  18.679  0.00  0.00    +0.000 A 
ENDBRANCH  19  24
ENDBRANCH  17  19
ENDBRANCH  16  17
ENDBRANCH   1  16
TORSDOF 5
ENDMDL
MODEL 7
REMARK VINA RESULT:      -7.6      3.432      6.203
REMARK  Name = 
REMARK  5 active torsions:
REMARK  status: ('A' for Active; 'I' for Inactive)
REMARK    1  A    between atoms: C_5  and  C_6
REMARK    2  A    between atoms: C_6  and  N_7
REMARK    3  A    between atoms: N_7  and  C_8
REMARK    4  A    between atoms: C_8  and  C_9
REMARK    5  A    between atoms: C_13  and  C_14
REMARK                            x       y       z     vdW  Elec       q    Type
REMARK                         _______ _______ _______ _____ _____    ______ ____
ROOT
ATOM      1  C   UNL     1       2.854   3.714  19.180  0.00  0.00    +0.000 A 
ATOM      2  C   UNL     1       2.532   3.036  20.345  0.00  0.00    +0.000 A 
ATOM      3  N   UNL     1       3.656   2.408  20.760  0.00  0.00    +0.000 N 
ATOM      4  N   UNL     1       4.702   2.603  19.959  0.00  0.00    +0.000 NA
ATOM      5  C   UNL     1       4.257   3.427  18.992  0.00  0.00    +0.000 A 
ATOM      6  H   UNL     1       3.781   1.825  21.582  0.00  0.00    +0.000 HD
ENDROOT
BRANCH   5   7
ATOM      7  C   UNL     1       5.212   3.886  17.972  0.00  0.00    +0.000 A 
ATOM      8  C   UNL     1       6.257   4.775  18.352  0.00  0.00    +0.000 A 
ATOM      9  C   UNL     1       7.130   5.331  17.410  0.00  0.00    +0.000 A 
ATOM     10  C   UNL     1       6.939   4.988  16.092  0.00  0.00    +0.000 A 
ATOM     11  C   UNL     1       5.942   4.122  15.710  0.00  0.00    +0.000 A 
ATOM     12  C   UNL     1       5.068   3.556  16.619  0.00  0.00    +0.000 A 
ATOM     13  O   UNL     1       5.910   3.935  14.363  0.00  0.00    +0.000 OA
ATOM     14  C   UNL     1       6.948   4.843  13.939  0.00  0.00    +0.000 C 
ATOM     15  O   UNL     1       7.655   5.458  15.036  0.00  0.00    +0.000 OA
ENDBRANCH   5   7
BRANCH   1  16
ATOM     16  C   UNL     1       1.928   4.538  18.330  0.00  0.00    +0.000 C 
BRANCH  16  17
ATOM     17  N   UNL     1       2.486   5.884  18.178  0.00  0.00    +0.000 NA
ATOM     18  H   UNL     1       3.406   5.813  17.748  0.00  0.00    +0.000 HD
BRANCH  17  19
ATOM     19  C   UNL     1       2.615   6.603  19.440  0.00  0.00    +0.000 C 
BRANCH  19  24
ATOM     20  F   UNL     1       0.378  11.777  19.009  0.00  0.00    +0.000 F 
ATOM     21  C   UNL     1       0.887  10.540  19.104  0.00  0.00    +0.000 A 
ATOM     22  C   UNL     1       1.552   9.990  18.018  0.00  0.00    +0.000 A 
ATOM     23  C   UNL     1       2.094   8.706  18.123  0.00  0.00    +0.000 A 
ATOM     24  C   UNL     1       1.978   7.974  19.319  0.00  0.00    +0.000 A 
ATOM     25  C   UNL     1       1.289   8.548  20.400  0.00  0.00    +0.000 A 
ATOM     26  C   UNL     1       0.745   9.830  20.291  0.00  0.00    +0.000 A 
ENDBRANCH  19  24
ENDBRANCH  17  19
ENDBRANCH  16  17
ENDBRANCH   1  16
TORSDOF 5
ENDMDL
MODEL 8
REMARK VINA RESULT:      -7.6      3.018      5.434
REMARK  Name = 
REMARK  5 active torsions:
REMARK  status: ('A' for Active; 'I' for Inactive)
REMARK    1  A    between atoms: C_5  and  C_6
REMARK    2  A    between atoms: C_6  and  N_7
REMARK    3  A    between atoms: N_7  and  C_8
REMARK    4  A    between atoms: C_8  and  C_9
REMARK    5  A    between atoms: C_13  and  C_14
REMARK                            x       y       z     vdW  Elec       q    Type
REMARK                         _______ _______ _______ _____ _____    ______ ____
ROOT
ATOM      1  C   UNL     1       2.210   3.199  18.714  0.00  0.00    +0.000 A 
ATOM      2  C   UNL     1       1.940   1.848  18.856  0.00  0.00    +0.000 A 
ATOM      3  N   UNL     1       3.053   1.181  18.472  0.00  0.00    +0.000 N 
ATOM      4  N   UNL     1       4.041   1.979  18.072  0.00  0.00    +0.000 NA
ATOM      5  C   UNL     1       3.572   3.231  18.236  0.00  0.00    +0.000 A 
ATOM      6  H   UNL     1       3.207   0.177  18.453  0.00  0.00    +0.000 HD
ENDROOT
BRANCH   5   7
ATOM      7  C   UNL     1       4.468   4.357  17.936  0.00  0.00    +0.000 A 
ATOM      8  C   UNL     1       4.360   5.013  16.678  0.00  0.00    +0.000 A 
ATOM      9  C   UNL     1       5.254   6.018  16.292  0.00  0.00    +0.000 A 
ATOM     10  C   UNL     1       6.252   6.350  17.177  0.00  0.00    +0.000 A 
ATOM     11  C   UNL     1       6.364   5.735  18.400  0.00  0.00    +0.000 A 
ATOM     12  C   UNL     1       5.493   4.742  18.810  0.00  0.00    +0.000 A 
ATOM     13  O   UNL     1       7.430   6.191  19.113  0.00  0.00    +0.000 OA
ATOM     14  C   UNL     1       8.018   7.105  18.162  0.00  0.00    +0.000 C 
ATOM     15  O   UNL     1       7.234   7.266  16.962  0.00  0.00    +0.000 OA
ENDBRANCH   5   7
BRANCH   1  16
ATOM     16  C   UNL     1       1.271   4.340  18.993  0.00  0.00    +0.000 C 
BRANCH  16  17
ATOM     17  N   UNL     1       1.410   4.745  20.393  0.00  0.00    +0.000 NA
ATOM     18  H   UNL     1       0.532   5.154  20.707  0.00  0.00    +0.000 HD
BRANCH  17  19
ATOM     19  C   UNL     1       2.480   5.710  20.613  0.00  0.00    +0.000 C 
BRANCH  19  24
ATOM     20  F   UNL     1       0.925  10.639  18.322  0.00  0.00    +0.000 F 
ATOM     21  C   UNL     1       1.315   9.481  18.873  0.00  0.00    +0.000 A 
ATOM     22  C   UNL     1       0.935   9.180  20.174  0.00  0.00    +0.000 A 
ATOM     23  C   UNL     1       1.331   7.967  20.742  0.00  0.00    +0.000 A 
ATOM     24  C   UNL     1       2.101   7.047  20.006  0.00  0.00    +0.000 A 
ATOM     25  C   UNL     1       2.482   7.379  18.696  0.00  0.00    +0.000 A 
ATOM     26  C   UNL     1       2.089   8.595  18.131  0.00  0.00    +0.000 A 
ENDBRANCH  19  24
ENDBRANCH  17  19
ENDBRANCH  16  17
ENDBRANCH   1  16
TORSDOF 5
ENDMDL
MODEL 9
REMARK VINA RESULT:      -7.6      4.173      7.386
REMARK  Name = 
REMARK  5 active torsions:
REMARK  status: ('A' for Active; 'I' for Inactive)
REMARK    1  A    between atoms: C_5  and  C_6
REMARK    2  A    between atoms: C_6  and  N_7
REMARK    3  A    between atoms: N_7  and  C_8
REMARK    4  A    between atoms: C_8  and  C_9
REMARK    5  A    between atoms: C_13  and  C_14
REMARK                            x       y       z     vdW  Elec       q    Type
REMARK                         _______ _______ _______ _____ _____    ______ ____
ROOT
ATOM      1  C   UNL     1       2.713   5.007  19.770  0.00  0.00    +0.000 A 
ATOM      2  C   UNL     1       2.109   4.385  20.851  0.00  0.00    +0.000 A 
ATOM      3  N   UNL     1       2.763   3.217  21.051  0.00  0.00    +0.000 N 
ATOM      4  N   UNL     1       3.749   3.005  20.182  0.00  0.00    +0.000 NA
ATOM      5  C   UNL     1       3.770   4.098  19.396  0.00  0.00    +0.000 A 
ATOM      6  H   UNL     1       2.587   2.514  21.761  0.00  0.00    +0.000 HD
ENDROOT
BRANCH   5   7
ATOM      7  C   UNL     1       4.810   4.193  18.360  0.00  0.00    +0.000 A 
ATOM      8  C   UNL     1       6.142   4.515  18.743  0.00  0.00    +0.000 A 
ATOM      9  C   UNL     1       7.150   4.726  17.796  0.00  0.00    +0.000 A 
ATOM     10  C   UNL     1       6.805   4.614  16.469  0.00  0.00    +0.000 A 
ATOM     11  C   UNL     1       5.526   4.292  16.084  0.00  0.00    +0.000 A 
ATOM     12  C   UNL     1       4.511   4.075  16.998  0.00  0.00    +0.000 A 
ATOM     13  O   UNL     1       5.389   4.254  14.730  0.00  0.00    +0.000 OA
ATOM     14  C   UNL     1       6.708   4.667  14.314  0.00  0.00    +0.000 C 
ATOM     15  O   UNL     1       7.632   4.824  15.411  0.00  0.00    +0.000 OA
ENDBRANCH   5   7
BRANCH   1  16
ATOM     16  C   UNL     1       2.321   6.320  19.151  0.00  0.00    +0.000 C 
BRANCH  16  17
ATOM     17  N   UNL     1       2.087   7.300  20.214  0.00  0.00    +0.000 NA
ATOM     18  H   UNL     1       1.349   6.954  20.825  0.00  0.00    +0.000 HD
BRANCH  17  19
ATOM     19  C   UNL     1       1.702   8.615  19.715  0.00  0.00    +0.000 C 
BRANCH  19  24
ATOM     20  F   UNL     1      -1.485  11.297  23.536  0.00  0.00    +0.000 F 
ATOM     21  C   UNL     1      -0.750  10.651  22.621  0.00  0.00    +0.000 A 
ATOM     22  C   UNL     1      -0.486  11.259  21.402  0.00  0.00    +0.000 A 
ATOM     23  C   UNL     1       0.293  10.588  20.455  0.00  0.00    +0.000 A 
ATOM     24  C   UNL     1       0.815   9.311  20.729  0.00  0.00    +0.000 A 
ATOM     25  C   UNL     1       0.523   8.712  21.965  0.00  0.00    +0.000 A 
ATOM     26  C   UNL     1      -0.258   9.382  22.909  0.00  0.00    +0.000 A 
ENDBRANCH  19  24
ENDBRANCH  17  19
ENDBRANCH  16  17
ENDBRANCH   1  16
TORSDOF 5
ENDMDL
