MODEL 1
REMARK VINA RESULT:      -8.6      0.000      0.000
REMARK  Name = 
REMARK  3 active torsions:
REMARK  status: ('A' for Active; 'I' for Inactive)
REMARK    1  A    between atoms: C_2  and  C_19
REMARK    2  A    between atoms: N_3  and  C_4
REMARK    3  A    between atoms: C_5  and  C_6
REMARK                            x       y       z     vdW  Elec       q    Type
REMARK                         _______ _______ _______ _____ _____    ______ ____
ROOT
ATOM      1  C   UNL     1       5.875   4.309  15.419  0.00  0.00    +0.000 A 
ATOM      2  C   UNL     1       6.982   5.100  15.667  0.00  0.00    +0.000 A 
ATOM      3  N   UNL     1       7.702   5.288  14.509  0.00  0.00    +0.000 NA
ATOM      4  C   UNL     1       7.048   4.657  13.555  0.00  0.00    +0.000 A 
ATOM      5  N   UNL     1       7.382   4.513  12.239  0.00  0.00    +0.000 NA
ATOM      6  C   UNL     1       6.565   3.817  11.511  0.00  0.00    +0.000 A 
ATOM      7  C   UNL     1       5.307   3.165  11.967  0.00  0.00    +0.000 A 
ATOM      8  C   UNL     1       5.033   3.321  13.269  0.00  0.00    +0.000 A 
ATOM      9  N   UNL     1       5.895   4.075  14.058  0.00  0.00    +0.000 N 
ENDROOT
BRANCH   2  10
ATOM     10  C   UNL     1       7.366   5.727  16.926  0.00  0.00    +0.000 A 
ATOM     11  C   UNL     1       7.642   4.919  18.037  0.00  0.00    +0.000 A 
ATOM     12  C   UNL     1       8.076   5.485  19.240  0.00  0.00    +0.000 A 
ATOM     13  C   UNL     1       8.244   6.863  19.344  0.00  0.00    +0.000 A 
ATOM     14  C   UNL     1       7.968   7.679  18.250  0.00  0.00    +0.000 A 
ATOM     15  C   UNL     1       7.539   7.114  17.047  0.00  0.00    +0.000 A 
ENDBRANCH   2  10
BRANCH   1  18
ATOM     16  O   UNL     1       4.112   5.877  16.781  0.00  0.00    +0.000 OA
ATOM     17  C   UNL     1       4.108   4.686  17.055  0.00  0.00    +0.000 C 
ATOM     18  N   UNL     1       4.984   3.798  16.355  0.00  0.00    +0.000 N 
ATOM     19  H   UNL     1       5.113   2.831  16.613  0.00  0.00    +0.000 HD
BRANCH  17  20
ATOM     20  C   UNL     1       3.236   4.118  18.112  0.00  0.00    +0.000 A 
ATOM     21  C   UNL     1       3.859   3.577  19.252  0.00  0.00    +0.000 A 
ATOM     22  C   UNL     1       3.088   3.047  20.287  0.00  0.00    +0.000 A 
ATOM     23  C   UNL     1       1.705   3.049  20.183  0.00  0.00    +0.000 A 
ATOM     24  F   UNL     1       0.967   2.542  21.176  0.00  0.00    +0.000 F 
ATOM     25  C   UNL     1       1.073   3.563  19.054  0.00  0.00    +0.000 A 
ATOM     26  C   UNL     1       1.837   4.097  18.013  0.00  0.00    +0.000 A 
ENDBRANCH  17  20
ENDBRANCH   1  18
TORSDOF 3
ENDMDL
MODEL 2
REMARK VINA RESULT:      -8.3      4.047      5.715
REMARK  Name = 
REMARK  3 active torsions:
REMARK  status: ('A' for Active; 'I' for Inactive)
REMARK    1  A    between atoms: C_2  and  C_19
REMARK    2  A    between atoms: N_3  and  C_4
REMARK    3  A    between atoms: C_5  and  C_6
REMARK                            x       y       z     vdW  Elec       q    Type
REMARK                         _______ _______ _______ _____ _____    ______ ____
ROOT
ATOM      1  C   UNL     1       3.276   5.229  18.515  0.00  0.00    +0.000 A 
ATOM      2  C   UNL     1       4.611   4.869  18.513  0.00  0.00    +0.000 A 
ATOM      3  N   UNL     1       4.736   3.502  18.606  0.00  0.00    +0.000 NA
ATOM      4  C   UNL     1       3.512   3.015  18.635  0.00  0.00    +0.000 A 
ATOM      5  N   UNL     1       3.109   1.717  18.764  0.00  0.00    +0.000 NA
ATOM      6  C   UNL     1       1.829   1.511  18.787  0.00  0.00    +0.000 A 
ATOM      7  C   UNL     1       0.763   2.545  18.684  0.00  0.00    +0.000 A 
ATOM      8  C   UNL     1       1.209   3.804  18.576  0.00  0.00    +0.000 A 
ATOM      9  N   UNL     1       2.579   4.036  18.539  0.00  0.00    +0.000 N 
ENDROOT
BRANCH   2  10
ATOM     10  C   UNL     1       5.769   5.743  18.377  0.00  0.00    +0.000 A 
ATOM     11  C   UNL     1       6.877   5.550  19.214  0.00  0.00    +0.000 A 
ATOM     12  C   UNL     1       8.028   6.327  19.065  0.00  0.00    +0.000 A 
ATOM     13  C   UNL     1       8.088   7.305  18.075  0.00  0.00    +0.000 A 
ATOM     14  C   UNL     1       6.995   7.513  17.240  0.00  0.00    +0.000 A 
ATOM     15  C   UNL     1       5.845   6.733  17.385  0.00  0.00    +0.000 A 
ENDBRANCH   2  10
BRANCH   1  18
ATOM     16  O   UNL     1       2.215   6.301  20.784  0.00  0.00    +0.000 OA
ATOM     17  C   UNL     1       2.186   7.002  19.783  0.00  0.00    +0.000 C 
ATOM     18  N   UNL     1       2.755   6.516  18.564  0.00  0.00    +0.000 N 
ATOM     19  H   UNL     1       2.660   6.994  17.680  0.00  0.00    +0.000 HD
BRANCH  17  20
ATOM     20  C   UNL     1       1.556   8.346  19.774  0.00  0.00    +0.000 A 
ATOM     21  C   UNL     1       1.576   9.067  18.566  0.00  0.00    +0.000 A 
ATOM     22  C   UNL     1       0.983  10.329  18.492  0.00  0.00    +0.000 A 
ATOM     23  C   UNL     1       0.380  10.869  19.619  0.00  0.00    +0.000 A 
ATOM     24  F   UNL     1      -0.190  12.077  19.548  0.00  0.00    +0.000 F 
ATOM     25  C   UNL     1       0.368  10.177  20.827  0.00  0.00    +0.000 A 
ATOM     26  C   UNL     1       0.959   8.913  20.909  0.00  0.00    +0.000 A 
ENDBRANCH  17  20
ENDBRANCH   1  18
TORSDOF 3
ENDMDL
MODEL 3
REMARK VINA RESULT:      -8.3      4.022      5.760
REMARK  Name = 
REMARK  3 active torsions:
REMARK  status: ('A' for Active; 'I' for Inactive)
REMARK    1  A    between atoms: C_2  and  C_19
REMARK    2  A    between atoms: N_3  and  C_4
REMARK    3  A    between atoms: C_5  and  C_6
REMARK                            x       y       z     vdW  Elec       q    Type
REMARK                         _______ _______ _______ _____ _____    ______ ____
ROOT
ATOM      1  C   UNL     1       3.383   5.208  18.400  0.00  0.00    +0.000 A 
ATOM      2  C   UNL     1       4.710   4.824  18.467  0.00  0.00    +0.000 A 
ATOM      3  N   UNL     1       4.803   3.463  18.647  0.00  0.00    +0.000 NA
ATOM      4  C   UNL     1       3.569   3.002  18.662  0.00  0.00    +0.000 A 
ATOM      5  N   UNL     1       3.135   1.722  18.856  0.00  0.00    +0.000 NA
ATOM      6  C   UNL     1       1.851   1.541  18.845  0.00  0.00    +0.000 A 
ATOM      7  C   UNL     1       0.811   2.587  18.642  0.00  0.00    +0.000 A 
ATOM      8  C   UNL     1       1.286   3.828  18.474  0.00  0.00    +0.000 A 
ATOM      9  N   UNL     1       2.662   4.032  18.471  0.00  0.00    +0.000 N 
ENDROOT
BRANCH   2  10
ATOM     10  C   UNL     1       5.890   5.667  18.320  0.00  0.00    +0.000 A 
ATOM     11  C   UNL     1       5.905   6.658  17.330  0.00  0.00    +0.000 A 
ATOM     12  C   UNL     1       6.993   7.526  17.206  0.00  0.00    +0.000 A 
ATOM     13  C   UNL     1       8.078   7.416  18.073  0.00  0.00    +0.000 A 
ATOM     14  C   UNL     1       8.081   6.432  19.058  0.00  0.00    +0.000 A 
ATOM     15  C   UNL     1       6.991   5.568  19.185  0.00  0.00    +0.000 A 
ENDBRANCH   2  10
BRANCH   1  18
ATOM     16  O   UNL     1       2.263   6.435  20.559  0.00  0.00    +0.000 OA
ATOM     17  C   UNL     1       2.285   7.075  19.518  0.00  0.00    +0.000 C 
ATOM     18  N   UNL     1       2.888   6.505  18.352  0.00  0.00    +0.000 N 
ATOM     19  H   UNL     1       2.835   6.930  17.439  0.00  0.00    +0.000 HD
BRANCH  17  20
ATOM     20  C   UNL     1       1.684   8.427  19.404  0.00  0.00    +0.000 A 
ATOM     21  C   UNL     1       1.836   9.108  18.183  0.00  0.00    +0.000 A 
ATOM     22  C   UNL     1       1.276  10.375  18.011  0.00  0.00    +0.000 A 
ATOM     23  C   UNL     1       0.575  10.961  19.055  0.00  0.00    +0.000 A 
ATOM     24  F   UNL     1       0.037  12.174  18.890  0.00  0.00    +0.000 F 
ATOM     25  C   UNL     1       0.432  10.309  20.277  0.00  0.00    +0.000 A 
ATOM     26  C   UNL     1       0.989   9.040  20.456  0.00  0.00    +0.000 A 
ENDBRANCH  17  20
ENDBRANCH   1  18
TORSDOF 3
ENDMDL
MODEL 4
REMARK VINA RESULT:      -8.2      3.479      5.509
REMARK  Name = 
REMARK  3 active torsions:
REMARK  status: ('A' for Active; 'I' for Inactive)
REMARK    1  A    between atoms: C_2  and  C_19
REMARK    2  A    between atoms: N_3  and  C_4
REMARK    3  A    between atoms: C_5  and  C_6
REMARK                            x       y       z     vdW  Elec       q    Type
REMARK                         _______ _______ _______ _____ _____    ______ ____
ROOT
ATOM      1  C   UNL     1       3.676   5.148  17.441  0.00  0.00    +0.000 A 
ATOM      2  C   UNL     1       3.593   3.883  17.993  0.00  0.00    +0.000 A 
ATOM      3  N   UNL     1       4.478   3.034  17.371  0.00  0.00    +0.000 NA
ATOM      4  C   UNL     1       5.121   3.753  16.474  0.00  0.00    +0.000 A 
ATOM      5  N   UNL     1       6.069   3.355  15.575  0.00  0.00    +0.000 NA
ATOM      6  C   UNL     1       6.530   4.271  14.781  0.00  0.00    +0.000 A 
ATOM      7  C   UNL     1       6.130   5.705  14.755  0.00  0.00    +0.000 A 
ATOM      8  C   UNL     1       5.185   6.042  15.644  0.00  0.00    +0.000 A 
ATOM      9  N   UNL     1       4.692   5.071  16.509  0.00  0.00    +0.000 N 
ENDROOT
BRANCH   2  10
ATOM     10  C   UNL     1       2.759   3.450  19.107  0.00  0.00    +0.000 A 
ATOM     11  C   UNL     1       3.367   3.045  20.302  0.00  0.00    +0.000 A 
ATOM     12  C   UNL     1       2.595   2.687  21.411  0.00  0.00    +0.000 A 
ATOM     13  C   UNL     1       1.205   2.734  21.339  0.00  0.00    +0.000 A 
ATOM     14  C   UNL     1       0.585   3.129  20.157  0.00  0.00    +0.000 A 
ATOM     15  C   UNL     1       1.357   3.491  19.050  0.00  0.00    +0.000 A 
ENDBRANCH   2  10
BRANCH   1  18
ATOM     16  O   UNL     1       3.787   6.519  19.793  0.00  0.00    +0.000 OA
ATOM     17  C   UNL     1       2.949   6.890  18.984  0.00  0.00    +0.000 C 
ATOM     18  N   UNL     1       2.857   6.237  17.715  0.00  0.00    +0.000 N 
ATOM     19  H   UNL     1       2.115   6.415  17.054  0.00  0.00    +0.000 HD
BRANCH  17  20
ATOM     20  C   UNL     1       1.996   7.989  19.276  0.00  0.00    +0.000 A 
ATOM     21  C   UNL     1       1.661   8.859  18.223  0.00  0.00    +0.000 A 
ATOM     22  C   UNL     1       0.755   9.900  18.434  0.00  0.00    +0.000 A 
ATOM     23  C   UNL     1       0.192  10.074  19.689  0.00  0.00    +0.000 A 
ATOM     24  F   UNL     1      -0.677  11.070  19.891  0.00  0.00    +0.000 F 
ATOM     25  C   UNL     1       0.527   9.234  20.747  0.00  0.00    +0.000 A 
ATOM     26  C   UNL     1       1.433   8.189  20.545  0.00  0.00    +0.000 A 
ENDBRANCH  17  20
ENDBRANCH   1  18
TORSDOF 3
ENDMDL
MODEL 5
REMARK VINA RESULT:      -8.1      4.090      5.795
REMARK  Name = 
REMARK  3 active torsions:
REMARK  status: ('A' for Active; 'I' for Inactive)
REMARK    1  A    between atoms: C_2  and  C_19
REMARK    2  A    between atoms: N_3  and  C_4
REMARK    3  A    between atoms: C_5  and  C_6
REMARK                            x       y       z     vdW  Elec       q    Type
REMARK                         _______ _______ _______ _____ _____    ______ ____
ROOT
ATOM      1  C   UNL     1       3.289   5.232  19.017  0.00  0.00    +0.000 A 
ATOM      2  C   UNL     1       4.579   4.891  18.656  0.00  0.00    +0.000 A 
ATOM      3  N   UNL     1       4.676   3.532  18.464  0.00  0.00    +0.000 NA
ATOM      4  C   UNL     1       3.473   3.038  18.668  0.00  0.00    +0.000 A 
ATOM      5  N   UNL     1       3.065   1.735  18.639  0.00  0.00    +0.000 NA
ATOM      6  C   UNL     1       1.814   1.516  18.903  0.00  0.00    +0.000 A 
ATOM      7  C   UNL     1       0.785   2.542  19.229  0.00  0.00    +0.000 A 
ATOM      8  C   UNL     1       1.238   3.802  19.263  0.00  0.00    +0.000 A 
ATOM      9  N   UNL     1       2.575   4.050  18.970  0.00  0.00    +0.000 N 
ENDROOT
BRANCH   2  10
ATOM     10  C   UNL     1       5.709   5.785  18.436  0.00  0.00    +0.000 A 
ATOM     11  C   UNL     1       6.875   5.618  19.194  0.00  0.00    +0.000 A 
ATOM     12  C   UNL     1       7.998   6.415  18.962  0.00  0.00    +0.000 A 
ATOM     13  C   UNL     1       7.972   7.387  17.965  0.00  0.00    +0.000 A 
ATOM     14  C   UNL     1       6.819   7.569  17.206  0.00  0.00    +0.000 A 
ATOM     15  C   UNL     1       5.697   6.769  17.435  0.00  0.00    +0.000 A 
ENDBRANCH   2  10
BRANCH   1  18
ATOM     16  O   UNL     1       1.987   6.931  17.332  0.00  0.00    +0.000 OA
ATOM     17  C   UNL     1       2.185   7.335  18.469  0.00  0.00    +0.000 C 
ATOM     18  N   UNL     1       2.833   6.482  19.417  0.00  0.00    +0.000 N 
ATOM     19  H   UNL     1       3.129   6.795  20.330  0.00  0.00    +0.000 HD
BRANCH  17  20
ATOM     20  C   UNL     1       1.795   8.698  18.906  0.00  0.00    +0.000 A 
ATOM     21  C   UNL     1       1.250   8.838  20.195  0.00  0.00    +0.000 A 
ATOM     22  C   UNL     1       0.883  10.099  20.668  0.00  0.00    +0.000 A 
ATOM     23  C   UNL     1       1.052  11.211  19.857  0.00  0.00    +0.000 A 
ATOM     24  F   UNL     1       0.701  12.420  20.310  0.00  0.00    +0.000 F 
ATOM     25  C   UNL     1       1.572  11.088  18.571  0.00  0.00    +0.000 A 
ATOM     26  C   UNL     1       1.943   9.829  18.090  0.00  0.00    +0.000 A 
ENDBRANCH  17  20
ENDBRANCH   1  18
TORSDOF 3
ENDMDL
MODEL 6
REMARK VINA RESULT:      -8.0      4.290      7.486
REMARK  Name = 
REMARK  3 active torsions:
REMARK  status: ('A' for Active; 'I' for Inactive)
REMARK    1  A    between atoms: C_2  and  C_19
REMARK    2  A    between atoms: N_3  and  C_4
REMARK    3  A    between atoms: C_5  and  C_6
REMARK                            x       y       z     vdW  Elec       q    Type
REMARK                         _______ _______ _______ _____ _____    ______ ____
ROOT
ATOM      1  C   UNL     1       2.098   7.043  18.895  0.00  0.00    +0.000 A 
ATOM      2  C   UNL     1       1.686   6.465  20.082  0.00  0.00    +0.000 A 
ATOM      3  N   UNL     1       1.207   7.429  20.939  0.00  0.00    +0.000 NA
ATOM      4  C   UNL     1       1.288   8.575  20.297  0.00  0.00    +0.000 A 
ATOM      5  N   UNL     1       0.976   9.829  20.739  0.00  0.00    +0.000 NA
ATOM      6  C   UNL     1       1.173  10.801  19.902  0.00  0.00    +0.000 A 
ATOM      7  C   UNL     1       1.701  10.682  18.515  0.00  0.00    +0.000 A 
ATOM      8  C   UNL     1       2.009   9.435  18.135  0.00  0.00    +0.000 A 
ATOM      9  N   UNL     1       1.791   8.384  19.019  0.00  0.00    +0.000 N 
ENDROOT
BRANCH   2  10
ATOM     10  C   UNL     1       1.674   5.049  20.426  0.00  0.00    +0.000 A 
ATOM     11  C   UNL     1       0.962   4.152  19.618  0.00  0.00    +0.000 A 
ATOM     12  C   UNL     1       0.985   2.780  19.883  0.00  0.00    +0.000 A 
ATOM     13  C   UNL     1       1.724   2.287  20.955  0.00  0.00    +0.000 A 
ATOM     14  C   UNL     1       2.433   3.165  21.770  0.00  0.00    +0.000 A 
ATOM     15  C   UNL     1       2.414   4.537  21.503  0.00  0.00    +0.000 A 
ENDBRANCH   2  10
BRANCH   1  18
ATOM     16  O   UNL     1       4.630   6.061  19.110  0.00  0.00    +0.000 OA
ATOM     17  C   UNL     1       4.093   5.953  18.017  0.00  0.00    +0.000 C 
ATOM     18  N   UNL     1       2.752   6.417  17.841  0.00  0.00    +0.000 N 
ATOM     19  H   UNL     1       2.297   6.464  16.941  0.00  0.00    +0.000 HD
BRANCH  17  20
ATOM     20  C   UNL     1       4.793   5.373  16.844  0.00  0.00    +0.000 A 
ATOM     21  C   UNL     1       5.029   3.986  16.845  0.00  0.00    +0.000 A 
ATOM     22  C   UNL     1       5.665   3.382  15.760  0.00  0.00    +0.000 A 
ATOM     23  C   UNL     1       6.069   4.158  14.683  0.00  0.00    +0.000 A 
ATOM     24  F   UNL     1       6.677   3.578  13.642  0.00  0.00    +0.000 F 
ATOM     25  C   UNL     1       5.859   5.534  14.674  0.00  0.00    +0.000 A 
ATOM     26  C   UNL     1       5.222   6.147  15.756  0.00  0.00    +0.000 A 
ENDBRANCH  17  20
ENDBRANCH   1  18
TORSDOF 3
ENDMDL
MODEL 7
REMARK VINA RESULT:      -8.0      4.168      6.058
REMARK  Name = 
REMARK  3 active torsions:
REMARK  status: ('A' for Active; 'I' for Inactive)
REMARK    1  A    between atoms: C_2  and  C_19
REMARK    2  A    between atoms: N_3  and  C_4
REMARK    3  A    between atoms: C_5  and  C_6
REMARK                            x       y       z     vdW  Elec       q    Type
REMARK                         _______ _______ _______ _____ _____    ______ ____
ROOT
ATOM      1  C   UNL     1       3.352   5.341  19.198  0.00  0.00    +0.000 A 
ATOM      2  C   UNL     1       4.621   4.918  18.845  0.00  0.00    +0.000 A 
ATOM      3  N   UNL     1       4.665   3.544  18.788  0.00  0.00    +0.000 NA
ATOM      4  C   UNL     1       3.451   3.118  19.068  0.00  0.00    +0.000 A 
ATOM      5  N   UNL     1       2.997   1.835  19.178  0.00  0.00    +0.000 NA
ATOM      6  C   UNL     1       1.746   1.690  19.490  0.00  0.00    +0.000 A 
ATOM      7  C   UNL     1       0.763   2.781  19.734  0.00  0.00    +0.000 A 
ATOM      8  C   UNL     1       1.260   4.021  19.631  0.00  0.00    +0.000 A 
ATOM      9  N   UNL     1       2.597   4.188  19.286  0.00  0.00    +0.000 N 
ENDROOT
BRANCH   2  10
ATOM     10  C   UNL     1       5.774   5.744  18.511  0.00  0.00    +0.000 A 
ATOM     11  C   UNL     1       5.665   6.693  17.487  0.00  0.00    +0.000 A 
ATOM     12  C   UNL     1       6.731   7.545  17.186  0.00  0.00    +0.000 A 
ATOM     13  C   UNL     1       7.918   7.462  17.910  0.00  0.00    +0.000 A 
ATOM     14  C   UNL     1       8.045   6.520  18.927  0.00  0.00    +0.000 A 
ATOM     15  C   UNL     1       6.978   5.671  19.230  0.00  0.00    +0.000 A 
ENDBRANCH   2  10
BRANCH   1  18
ATOM     16  O   UNL     1       1.856   6.826  17.473  0.00  0.00    +0.000 OA
ATOM     17  C   UNL     1       2.192   7.372  18.513  0.00  0.00    +0.000 C 
ATOM     18  N   UNL     1       2.951   6.641  19.480  0.00  0.00    +0.000 N 
ATOM     19  H   UNL     1       3.358   7.067  20.300  0.00  0.00    +0.000 HD
BRANCH  17  20
ATOM     20  C   UNL     1       1.860   8.788  18.809  0.00  0.00    +0.000 A 
ATOM     21  C   UNL     1       1.208   9.065  20.024  0.00  0.00    +0.000 A 
ATOM     22  C   UNL     1       0.888  10.380  20.365  0.00  0.00    +0.000 A 
ATOM     23  C   UNL     1       1.212  11.411  19.496  0.00  0.00    +0.000 A 
ATOM     24  F   UNL     1       0.907  12.672  19.823  0.00  0.00    +0.000 F 
ATOM     25  C   UNL     1       1.840  11.153  18.281  0.00  0.00    +0.000 A 
ATOM     26  C   UNL     1       2.165   9.839  17.932  0.00  0.00    +0.000 A 
ENDBRANCH  17  20
ENDBRANCH   1  18
TORSDOF 3
ENDMDL
MODEL 8
REMARK VINA RESULT:      -7.9      3.511      5.516
REMARK  Name = 
REMARK  3 active torsions:
REMARK  status: ('A' for Active; 'I' for Inactive)
REMARK    1  A    between atoms: C_2  and  C_19
REMARK    2  A    between atoms: N_3  and  C_4
REMARK    3  A    between atoms: C_5  and  C_6
REMARK                            x       y       z     vdW  Elec       q    Type
REMARK                         _______ _______ _______ _____ _____    ______ ____
ROOT
ATOM      1  C   UNL     1       3.687   5.217  17.422  0.00  0.00    +0.000 A 
ATOM      2  C   UNL     1       3.625   3.975  18.026  0.00  0.00    +0.000 A 
ATOM      3  N   UNL     1       4.520   3.112  17.437  0.00  0.00    +0.000 NA
ATOM      4  C   UNL     1       5.148   3.803  16.507  0.00  0.00    +0.000 A 
ATOM      5  N   UNL     1       6.098   3.380  15.621  0.00  0.00    +0.000 NA
ATOM      6  C   UNL     1       6.542   4.268  14.786  0.00  0.00    +0.000 A 
ATOM      7  C   UNL     1       6.122   5.694  14.702  0.00  0.00    +0.000 A 
ATOM      8  C   UNL     1       5.176   6.054  15.580  0.00  0.00    +0.000 A 
ATOM      9  N   UNL     1       4.700   5.115  16.488  0.00  0.00    +0.000 N 
ENDROOT
BRANCH   2  10
ATOM     10  C   UNL     1       2.802   3.577  19.162  0.00  0.00    +0.000 A 
ATOM     11  C   UNL     1       1.408   3.541  19.020  0.00  0.00    +0.000 A 
ATOM     12  C   UNL     1       0.595   3.102  20.068  0.00  0.00    +0.000 A 
ATOM     13  C   UNL     1       1.166   2.687  21.269  0.00  0.00    +0.000 A 
ATOM     14  C   UNL     1       2.548   2.722  21.428  0.00  0.00    +0.000 A 
ATOM     15  C   UNL     1       3.361   3.158  20.379  0.00  0.00    +0.000 A 
ENDBRANCH   2  10
BRANCH   1  18
ATOM     16  O   UNL     1       3.768   6.668  19.725  0.00  0.00    +0.000 OA
ATOM     17  C   UNL     1       2.930   7.001  18.900  0.00  0.00    +0.000 C 
ATOM     18  N   UNL     1       2.854   6.304  17.653  0.00  0.00    +0.000 N 
ATOM     19  H   UNL     1       2.114   6.451  16.982  0.00  0.00    +0.000 HD
BRANCH  17  20
ATOM     20  C   UNL     1       1.963   8.098  19.148  0.00  0.00    +0.000 A 
ATOM     21  C   UNL     1       1.436   8.222  20.447  0.00  0.00    +0.000 A 
ATOM     22  C   UNL     1       0.537   9.247  20.744  0.00  0.00    +0.000 A 
ATOM     23  C   UNL     1       0.160  10.138  19.750  0.00  0.00    +0.000 A 
ATOM     24  F   UNL     1      -0.701  11.121  20.035  0.00  0.00    +0.000 F 
ATOM     25  C   UNL     1       0.657  10.018  18.455  0.00  0.00    +0.000 A 
ATOM     26  C   UNL     1       1.559   8.995  18.149  0.00  0.00    +0.000 A 
ENDBRANCH  17  20
ENDBRANCH   1  18
TORSDOF 3
ENDMDL
MODEL 9
REMARK VINA RESULT:      -7.8      3.823      5.942
REMARK  Name = 
REMARK  3 active torsions:
REMARK  status: ('A' for Active; 'I' for Inactive)
REMARK    1  A    between atoms: C_2  and  C_19
REMARK    2  A    between atoms: N_3  and  C_4
REMARK    3  A    between atoms: C_5  and  C_6
REMARK                            x       y       z     vdW  Elec       q    Type
REMARK                         _______ _______ _______ _____ _____    ______ ____
ROOT
ATOM      1  C   UNL     1       4.266   5.658  18.769  0.00  0.00    +0.000 A 
ATOM      2  C   UNL     1       3.954   4.313  18.843  0.00  0.00    +0.000 A 
ATOM      3  N   UNL     1       4.781   3.587  18.016  0.00  0.00    +0.000 NA
ATOM      4  C   UNL     1       5.607   4.450  17.462  0.00  0.00    +0.000 A 
ATOM      5  N   UNL     1       6.585   4.226  16.535  0.00  0.00    +0.000 NA
ATOM      6  C   UNL     1       7.248   5.266  16.134  0.00  0.00    +0.000 A 
ATOM      7  C   UNL     1       7.049   6.671  16.584  0.00  0.00    +0.000 A 
ATOM      8  C   UNL     1       6.067   6.841  17.480  0.00  0.00    +0.000 A 
ATOM      9  N   UNL     1       5.357   5.732  17.927  0.00  0.00    +0.000 N 
ENDROOT
BRANCH   2  10
ATOM     10  C   UNL     1       2.954   3.675  19.690  0.00  0.00    +0.000 A 
ATOM     11  C   UNL     1       3.363   3.015  20.857  0.00  0.00    +0.000 A 
ATOM     12  C   UNL     1       2.424   2.451  21.724  0.00  0.00    +0.000 A 
ATOM     13  C   UNL     1       1.064   2.543  21.438  0.00  0.00    +0.000 A 
ATOM     14  C   UNL     1       0.642   3.190  20.280  0.00  0.00    +0.000 A 
ATOM     15  C   UNL     1       1.580   3.758  19.415  0.00  0.00    +0.000 A 
ENDBRANCH   2  10
BRANCH   1  18
ATOM     16  O   UNL     1       2.087   6.815  17.612  0.00  0.00    +0.000 OA
ATOM     17  C   UNL     1       2.458   7.290  18.675  0.00  0.00    +0.000 C 
ATOM     18  N   UNL     1       3.575   6.711  19.356  0.00  0.00    +0.000 N 
ATOM     19  H   UNL     1       4.000   7.126  20.172  0.00  0.00    +0.000 HD
BRANCH  17  20
ATOM     20  C   UNL     1       1.801   8.472  19.288  0.00  0.00    +0.000 A 
ATOM     21  C   UNL     1       1.465   8.397  20.652  0.00  0.00    +0.000 A 
ATOM     22  C   UNL     1       0.863   9.485  21.286  0.00  0.00    +0.000 A 
ATOM     23  C   UNL     1       0.593  10.637  20.562  0.00  0.00    +0.000 A 
ATOM     24  F   UNL     1       0.019  11.680  21.171  0.00  0.00    +0.000 F 
ATOM     25  C   UNL     1       0.902  10.721  19.208  0.00  0.00    +0.000 A 
ATOM     26  C   UNL     1       1.506   9.636  18.565  0.00  0.00    +0.000 A 
ENDBRANCH  17  20
ENDBRANCH   1  18
TORSDOF 3
ENDMDL
