MODEL 1
REMARK VINA RESULT:      -9.7      0.000      0.000
REMARK  Name = 
REMARK  4 active torsions:
REMARK  status: ('A' for Active; 'I' for Inactive)
REMARK    1  A    between atoms: O_1  and  C_2
REMARK    2  A    between atoms: C_2  and  C_3
REMARK    3  A    between atoms: N_5  and  C_6
REMARK    4  A    between atoms: C_8  and  C_9
REMARK                            x       y       z     vdW  Elec       q    Type
REMARK                         _______ _______ _______ _____ _____    ______ ____
ROOT
ATOM      1  C   UNL     1       4.888   4.175  17.442  0.00  0.00    +0.000 A 
ATOM      2  C   UNL     1       5.166   3.999  16.140  0.00  0.00    +0.000 A 
ATOM      3  C   UNL     1       6.479   4.508  15.641  0.00  0.00    +0.000 A 
ATOM      4  N   UNL     1       7.419   4.995  16.398  0.00  0.00    +0.000 NA
ATOM      5  C   UNL     1       7.141   5.102  17.730  0.00  0.00    +0.000 A 
ATOM      6  N   UNL     1       7.916   5.540  18.699  0.00  0.00    +0.000 NA
ATOM      7  C   UNL     1       7.125   5.456  19.800  0.00  0.00    +0.000 A 
ATOM      8  N   UNL     1       5.895   4.990  19.607  0.00  0.00    +0.000 NA
ATOM      9  N   UNL     1       5.891   4.745  18.263  0.00  0.00    +0.000 N 
ENDROOT
BRANCH   1  12
ATOM     10  C   UNL     1       2.711   2.226  19.564  0.00  0.00    +0.000 C 
ATOM     11  C   UNL     1       3.249   2.405  18.142  0.00  0.00    +0.000 C 
ATOM     12  N   UNL     1       3.635   3.815  17.965  0.00  0.00    +0.000 N 
ATOM     13  C   UNL     1       2.537   4.777  18.093  0.00  0.00    +0.000 C 
ATOM     14  C   UNL     1       1.938   4.664  19.484  0.00  0.00    +0.000 C 
ATOM     15  C   UNL     1       1.576   3.218  19.769  0.00  0.00    +0.000 C 
ATOM     16  F   UNL     1       0.530   2.869  18.968  0.00  0.00    +0.000 F 
ATOM     17  F   UNL     1       1.109   3.124  21.044  0.00  0.00    +0.000 F 
BRANCH  10  18
ATOM     18  C   UNL     1       3.799   2.414  20.625  0.00  0.00    +0.000 C 
BRANCH  18  19
ATOM     19  O   UNL     1       5.040   1.899  20.158  0.00  0.00    +0.000 OA
ATOM     20  H   UNL     1       5.057   2.016  19.192  0.00  0.00    +0.000 HD
ENDBRANCH  18  19
ENDBRANCH  10  18
ENDBRANCH   1  12
BRANCH   3  21
ATOM     21  C   UNL     1       6.692   4.446  14.164  0.00  0.00    +0.000 A 
ATOM     22  C   UNL     1       7.614   5.280  13.515  0.00  0.00    +0.000 A 
ATOM     23  C   UNL     1       7.815   5.169  12.137  0.00  0.00    +0.000 A 
ATOM     24  C   UNL     1       7.107   4.218  11.404  0.00  0.00    +0.000 A 
ATOM     25  C   UNL     1       6.200   3.376  12.046  0.00  0.00    +0.000 A 
ATOM     26  C   UNL     1       5.994   3.486  13.422  0.00  0.00    +0.000 A 
ENDBRANCH   3  21
TORSDOF 4
ENDMDL
MODEL 2
REMARK VINA RESULT:      -9.0      0.607      1.141
REMARK  Name = 
REMARK  4 active torsions:
REMARK  status: ('A' for Active; 'I' for Inactive)
REMARK    1  A    between atoms: O_1  and  C_2
REMARK    2  A    between atoms: C_2  and  C_3
REMARK    3  A    between atoms: N_5  and  C_6
REMARK    4  A    between atoms: C_8  and  C_9
REMARK                            x       y       z     vdW  Elec       q    Type
REMARK                         _______ _______ _______ _____ _____    ______ ____
ROOT
ATOM      1  C   UNL     1       4.822   4.244  17.599  0.00  0.00    +0.000 A 
ATOM      2  C   UNL     1       5.062   3.997  16.301  0.00  0.00    +0.000 A 
ATOM      3  C   UNL     1       6.407   4.367  15.766  0.00  0.00    +0.000 A 
ATOM      4  N   UNL     1       7.399   4.796  16.491  0.00  0.00    +0.000 NA
ATOM      5  C   UNL     1       7.154   4.976  17.822  0.00  0.00    +0.000 A 
ATOM      6  N   UNL     1       7.980   5.379  18.763  0.00  0.00    +0.000 NA
ATOM      7  C   UNL     1       7.202   5.407  19.877  0.00  0.00    +0.000 A 
ATOM      8  N   UNL     1       5.933   5.045  19.718  0.00  0.00    +0.000 NA
ATOM      9  N   UNL     1       5.886   4.753  18.385  0.00  0.00    +0.000 N 
ENDROOT
BRANCH   1  12
ATOM     10  C   UNL     1       2.491   2.495  19.731  0.00  0.00    +0.000 C 
ATOM     11  C   UNL     1       3.005   2.658  18.298  0.00  0.00    +0.000 C 
ATOM     12  N   UNL     1       3.552   4.017  18.151  0.00  0.00    +0.000 N 
ATOM     13  C   UNL     1       2.580   5.097  18.345  0.00  0.00    +0.000 C 
ATOM     14  C   UNL     1       2.012   5.008  19.750  0.00  0.00    +0.000 C 
ATOM     15  C   UNL     1       1.489   3.606  20.003  0.00  0.00    +0.000 C 
ATOM     16  F   UNL     1       0.386   3.411  19.226  0.00  0.00    +0.000 F 
ATOM     17  F   UNL     1       1.051   3.524  21.289  0.00  0.00    +0.000 F 
BRANCH  10  18
ATOM     18  C   UNL     1       3.624   2.517  20.761  0.00  0.00    +0.000 C 
BRANCH  18  19
ATOM     19  O   UNL     1       3.169   2.003  22.007  0.00  0.00    +0.000 OA
ATOM     20  H   UNL     1       2.937   1.068  21.867  0.00  0.00    +0.000 HD
ENDBRANCH  18  19
ENDBRANCH  10  18
ENDBRANCH   1  12
BRANCH   3  21
ATOM     21  C   UNL     1       6.590   4.232  14.289  0.00  0.00    +0.000 A 
ATOM     22  C   UNL     1       5.803   3.360  13.524  0.00  0.00    +0.000 A 
ATOM     23  C   UNL     1       5.976   3.287  12.140  0.00  0.00    +0.000 A 
ATOM     24  C   UNL     1       6.925   4.092  11.513  0.00  0.00    +0.000 A 
ATOM     25  C   UNL     1       7.700   4.973  12.266  0.00  0.00    +0.000 A 
ATOM     26  C   UNL     1       7.533   5.046  13.650  0.00  0.00    +0.000 A 
ENDBRANCH   3  21
TORSDOF 4
ENDMDL
MODEL 3
REMARK VINA RESULT:      -8.9      0.818      1.267
REMARK  Name = 
REMARK  4 active torsions:
REMARK  status: ('A' for Active; 'I' for Inactive)
REMARK    1  A    between atoms: O_1  and  C_2
REMARK    2  A    between atoms: C_2  and  C_3
REMARK    3  A    between atoms: N_5  and  C_6
REMARK    4  A    between atoms: C_8  and  C_9
REMARK                            x       y       z     vdW  Elec       q    Type
REMARK                         _______ _______ _______ _____ _____    ______ ____
ROOT
ATOM      1  C   UNL     1       4.960   4.393  17.642  0.00  0.00    +0.000 A 
ATOM      2  C   UNL     1       5.172   4.148  16.339  0.00  0.00    +0.000 A 
ATOM      3  C   UNL     1       6.524   4.465  15.788  0.00  0.00    +0.000 A 
ATOM      4  N   UNL     1       7.543   4.844  16.503  0.00  0.00    +0.000 NA
ATOM      5  C   UNL     1       7.324   5.022  17.839  0.00  0.00    +0.000 A 
ATOM      6  N   UNL     1       8.180   5.380  18.771  0.00  0.00    +0.000 NA
ATOM      7  C   UNL     1       7.420   5.430  19.897  0.00  0.00    +0.000 A 
ATOM      8  N   UNL     1       6.134   5.125  19.752  0.00  0.00    +0.000 NA
ATOM      9  N   UNL     1       6.056   4.848  18.417  0.00  0.00    +0.000 N 
ENDROOT
BRANCH   1  12
ATOM     10  C   UNL     1       2.178   2.388  18.772  0.00  0.00    +0.000 C 
ATOM     11  C   UNL     1       2.715   3.269  17.641  0.00  0.00    +0.000 C 
ATOM     12  N   UNL     1       3.689   4.215  18.210  0.00  0.00    +0.000 N 
ATOM     13  C   UNL     1       3.141   5.143  19.203  0.00  0.00    +0.000 C 
ATOM     14  C   UNL     1       2.579   4.347  20.369  0.00  0.00    +0.000 C 
ATOM     15  C   UNL     1       1.612   3.297  19.852  0.00  0.00    +0.000 C 
ATOM     16  F   UNL     1       0.507   3.930  19.366  0.00  0.00    +0.000 F 
ATOM     17  F   UNL     1       1.175   2.548  20.901  0.00  0.00    +0.000 F 
BRANCH  10  18
ATOM     18  C   UNL     1       3.254   1.462  19.348  0.00  0.00    +0.000 C 
BRANCH  18  19
ATOM     19  O   UNL     1       3.924   0.771  18.300  0.00  0.00    +0.000 OA
ATOM     20  H   UNL     1       4.609   1.368  17.952  0.00  0.00    +0.000 HD
ENDBRANCH  18  19
ENDBRANCH  10  18
ENDBRANCH   1  12
BRANCH   3  21
ATOM     21  C   UNL     1       6.680   4.337  14.308  0.00  0.00    +0.000 A 
ATOM     22  C   UNL     1       5.908   3.438  13.559  0.00  0.00    +0.000 A 
ATOM     23  C   UNL     1       6.055   3.371  12.171  0.00  0.00    +0.000 A 
ATOM     24  C   UNL     1       6.961   4.209  11.524  0.00  0.00    +0.000 A 
ATOM     25  C   UNL     1       7.721   5.116  12.262  0.00  0.00    +0.000 A 
ATOM     26  C   UNL     1       7.580   5.183  13.650  0.00  0.00    +0.000 A 
ENDBRANCH   3  21
TORSDOF 4
ENDMDL
MODEL 4
REMARK VINA RESULT:      -8.7      0.935      1.035
REMARK  Name = 
REMARK  4 active torsions:
REMARK  status: ('A' for Active; 'I' for Inactive)
REMARK    1  A    between atoms: O_1  and  C_2
REMARK    2  A    between atoms: C_2  and  C_3
REMARK    3  A    between atoms: N_5  and  C_6
REMARK    4  A    between atoms: C_8  and  C_9
REMARK                            x       y       z     vdW  Elec       q    Type
REMARK                         _______ _______ _______ _____ _____    ______ ____
ROOT
ATOM      1  C   UNL     1       4.953   4.606  17.741  0.00  0.00    +0.000 A 
ATOM      2  C   UNL     1       5.100   4.346  16.431  0.00  0.00    +0.000 A 
ATOM      3  C   UNL     1       6.462   4.520  15.842  0.00  0.00    +0.000 A 
ATOM      4  N   UNL     1       7.535   4.785  16.528  0.00  0.00    +0.000 NA
ATOM      5  C   UNL     1       7.375   4.979  17.870  0.00  0.00    +0.000 A 
ATOM      6  N   UNL     1       8.291   5.240  18.778  0.00  0.00    +0.000 NA
ATOM      7  C   UNL     1       7.572   5.365  19.925  0.00  0.00    +0.000 A 
ATOM      8  N   UNL     1       6.258   5.200  19.817  0.00  0.00    +0.000 NA
ATOM      9  N   UNL     1       6.112   4.938  18.484  0.00  0.00    +0.000 N 
ENDROOT
BRANCH   1  12
ATOM     10  C   UNL     1       1.925   2.936  18.778  0.00  0.00    +0.000 C 
ATOM     11  C   UNL     1       2.560   3.847  17.724  0.00  0.00    +0.000 C 
ATOM     12  N   UNL     1       3.687   4.563  18.345  0.00  0.00    +0.000 N 
ATOM     13  C   UNL     1       3.320   5.445  19.455  0.00  0.00    +0.000 C 
ATOM     14  C   UNL     1       2.674   4.619  20.554  0.00  0.00    +0.000 C 
ATOM     15  C   UNL     1       1.540   3.794  19.974  0.00  0.00    +0.000 C 
ATOM     16  F   UNL     1       0.535   4.639  19.610  0.00  0.00    +0.000 F 
ATOM     17  F   UNL     1       1.021   3.008  20.955  0.00  0.00    +0.000 F 
BRANCH  10  18
ATOM     18  C   UNL     1       2.857   1.797  19.201  0.00  0.00    +0.000 C 
BRANCH  18  19
ATOM     19  O   UNL     1       3.465   1.205  18.059  0.00  0.00    +0.000 OA
ATOM     20  H   UNL     1       3.338   1.818  17.313  0.00  0.00    +0.000 HD
ENDBRANCH  18  19
ENDBRANCH  10  18
ENDBRANCH   1  12
BRANCH   3  21
ATOM     21  C   UNL     1       6.562   4.382  14.358  0.00  0.00    +0.000 A 
ATOM     22  C   UNL     1       7.535   5.067  13.616  0.00  0.00    +0.000 A 
ATOM     23  C   UNL     1       7.622   4.886  12.234  0.00  0.00    +0.000 A 
ATOM     24  C   UNL     1       6.750   4.012  11.589  0.00  0.00    +0.000 A 
ATOM     25  C   UNL     1       5.790   3.317  12.323  0.00  0.00    +0.000 A 
ATOM     26  C   UNL     1       5.696   3.498  13.704  0.00  0.00    +0.000 A 
ENDBRANCH   3  21
TORSDOF 4
ENDMDL
MODEL 5
REMARK VINA RESULT:      -8.7      1.166      1.547
REMARK  Name = 
REMARK  4 active torsions:
REMARK  status: ('A' for Active; 'I' for Inactive)
REMARK    1  A    between atoms: O_1  and  C_2
REMARK    2  A    between atoms: C_2  and  C_3
REMARK    3  A    between atoms: N_5  and  C_6
REMARK    4  A    between atoms: C_8  and  C_9
REMARK                            x       y       z     vdW  Elec       q    Type
REMARK                         _______ _______ _______ _____ _____    ______ ____
ROOT
ATOM      1  C   UNL     1       5.215   3.910  17.738  0.00  0.00    +0.000 A 
ATOM      2  C   UNL     1       5.398   3.718  16.421  0.00  0.00    +0.000 A 
ATOM      3  C   UNL     1       6.529   4.445  15.769  0.00  0.00    +0.000 A 
ATOM      4  N   UNL     1       7.419   5.149  16.405  0.00  0.00    +0.000 NA
ATOM      5  C   UNL     1       7.254   5.276  17.754  0.00  0.00    +0.000 A 
ATOM      6  N   UNL     1       8.013   5.912  18.620  0.00  0.00    +0.000 NA
ATOM      7  C   UNL     1       7.363   5.738  19.800  0.00  0.00    +0.000 A 
ATOM      8  N   UNL     1       6.240   5.029  19.754  0.00  0.00    +0.000 NA
ATOM      9  N   UNL     1       6.157   4.712  18.428  0.00  0.00    +0.000 N 
ENDROOT
BRANCH   1  12
ATOM     10  C   UNL     1       2.578   3.909  20.204  0.00  0.00    +0.000 C 
ATOM     11  C   UNL     1       3.983   3.403  19.867  0.00  0.00    +0.000 C 
ATOM     12  N   UNL     1       4.116   3.342  18.401  0.00  0.00    +0.000 N 
ATOM     13  C   UNL     1       3.195   2.417  17.736  0.00  0.00    +0.000 C 
ATOM     14  C   UNL     1       1.767   2.845  18.024  0.00  0.00    +0.000 C 
ATOM     15  C   UNL     1       1.570   2.998  19.521  0.00  0.00    +0.000 C 
ATOM     16  F   UNL     1       1.628   1.762  20.092  0.00  0.00    +0.000 F 
ATOM     17  F   UNL     1       0.309   3.451  19.755  0.00  0.00    +0.000 F 
BRANCH  10  18
ATOM     18  C   UNL     1       2.368   5.367  19.784  0.00  0.00    +0.000 C 
BRANCH  18  19
ATOM     19  O   UNL     1       3.506   6.149  20.128  0.00  0.00    +0.000 OA
ATOM     20  H   UNL     1       4.226   5.895  19.524  0.00  0.00    +0.000 HD
ENDBRANCH  18  19
ENDBRANCH  10  18
ENDBRANCH   1  12
BRANCH   3  21
ATOM     21  C   UNL     1       6.609   4.342  14.281  0.00  0.00    +0.000 A 
ATOM     22  C   UNL     1       7.557   5.063  13.540  0.00  0.00    +0.000 A 
ATOM     23  C   UNL     1       7.627   4.914  12.154  0.00  0.00    +0.000 A 
ATOM     24  C   UNL     1       6.763   4.036  11.502  0.00  0.00    +0.000 A 
ATOM     25  C   UNL     1       5.828   3.306  12.235  0.00  0.00    +0.000 A 
ATOM     26  C   UNL     1       5.752   3.454  13.621  0.00  0.00    +0.000 A 
ENDBRANCH   3  21
TORSDOF 4
ENDMDL
MODEL 6
REMARK VINA RESULT:      -8.7      1.327      1.848
REMARK  Name = 
REMARK  4 active torsions:
REMARK  status: ('A' for Active; 'I' for Inactive)
REMARK    1  A    between atoms: O_1  and  C_2
REMARK    2  A    between atoms: C_2  and  C_3
REMARK    3  A    between atoms: N_5  and  C_6
REMARK    4  A    between atoms: C_8  and  C_9
REMARK                            x       y       z     vdW  Elec       q    Type
REMARK                         _______ _______ _______ _____ _____    ______ ____
ROOT
ATOM      1  C   UNL     1       5.152   4.011  17.673  0.00  0.00    +0.000 A 
ATOM      2  C   UNL     1       5.352   3.788  16.364  0.00  0.00    +0.000 A 
ATOM      3  C   UNL     1       6.541   4.431  15.729  0.00  0.00    +0.000 A 
ATOM      4  N   UNL     1       7.460   5.086  16.376  0.00  0.00    +0.000 NA
ATOM      5  C   UNL     1       7.273   5.243  17.719  0.00  0.00    +0.000 A 
ATOM      6  N   UNL     1       8.053   5.843  18.593  0.00  0.00    +0.000 NA
ATOM      7  C   UNL     1       7.366   5.728  19.760  0.00  0.00    +0.000 A 
ATOM      8  N   UNL     1       6.200   5.092  19.697  0.00  0.00    +0.000 NA
ATOM      9  N   UNL     1       6.127   4.761  18.374  0.00  0.00    +0.000 N 
ENDROOT
BRANCH   1  12
ATOM     10  C   UNL     1       2.655   4.040  20.281  0.00  0.00    +0.000 C 
ATOM     11  C   UNL     1       3.943   3.381  19.783  0.00  0.00    +0.000 C 
ATOM     12  N   UNL     1       4.003   3.525  18.318  0.00  0.00    +0.000 N 
ATOM     13  C   UNL     1       2.917   2.866  17.589  0.00  0.00    +0.000 C 
ATOM     14  C   UNL     1       1.591   3.460  18.027  0.00  0.00    +0.000 C 
ATOM     15  C   UNL     1       1.484   3.411  19.541  0.00  0.00    +0.000 C 
ATOM     16  F   UNL     1       1.365   2.109  19.922  0.00  0.00    +0.000 F 
ATOM     17  F   UNL     1       0.324   4.013  19.920  0.00  0.00    +0.000 F 
BRANCH  10  18
ATOM     18  C   UNL     1       2.667   5.560  20.091  0.00  0.00    +0.000 C 
BRANCH  18  19
ATOM     19  O   UNL     1       2.048   6.202  21.199  0.00  0.00    +0.000 OA
ATOM     20  H   UNL     1       2.463   5.851  22.006  0.00  0.00    +0.000 HD
ENDBRANCH  18  19
ENDBRANCH  10  18
ENDBRANCH   1  12
BRANCH   3  21
ATOM     21  C   UNL     1       6.648   4.300  14.244  0.00  0.00    +0.000 A 
ATOM     22  C   UNL     1       5.802   3.454  13.514  0.00  0.00    +0.000 A 
ATOM     23  C   UNL     1       5.905   3.384  12.123  0.00  0.00    +0.000 A 
ATOM     24  C   UNL     1       6.843   4.169  11.454  0.00  0.00    +0.000 A 
ATOM     25  C   UNL     1       7.677   5.024  12.173  0.00  0.00    +0.000 A 
ATOM     26  C   UNL     1       7.580   5.093  13.564  0.00  0.00    +0.000 A 
ENDBRANCH   3  21
TORSDOF 4
ENDMDL
MODEL 7
REMARK VINA RESULT:      -8.5      1.343      2.149
REMARK  Name = 
REMARK  4 active torsions:
REMARK  status: ('A' for Active; 'I' for Inactive)
REMARK    1  A    between atoms: O_1  and  C_2
REMARK    2  A    between atoms: C_2  and  C_3
REMARK    3  A    between atoms: N_5  and  C_6
REMARK    4  A    between atoms: C_8  and  C_9
REMARK                            x       y       z     vdW  Elec       q    Type
REMARK                         _______ _______ _______ _____ _____    ______ ____
ROOT
ATOM      1  C   UNL     1       5.250   3.933  17.774  0.00  0.00    +0.000 A 
ATOM      2  C   UNL     1       5.435   3.726  16.460  0.00  0.00    +0.000 A 
ATOM      3  C   UNL     1       6.580   4.429  15.805  0.00  0.00    +0.000 A 
ATOM      4  N   UNL     1       7.478   5.125  16.438  0.00  0.00    +0.000 NA
ATOM      5  C   UNL     1       7.311   5.267  17.785  0.00  0.00    +0.000 A 
ATOM      6  N   UNL     1       8.077   5.899  18.647  0.00  0.00    +0.000 NA
ATOM      7  C   UNL     1       7.420   5.746  19.827  0.00  0.00    +0.000 A 
ATOM      8  N   UNL     1       6.285   5.055  19.783  0.00  0.00    +0.000 NA
ATOM      9  N   UNL     1       6.202   4.727  18.460  0.00  0.00    +0.000 N 
ENDROOT
BRANCH   1  12
ATOM     10  C   UNL     1       1.917   4.086  19.152  0.00  0.00    +0.000 C 
ATOM     11  C   UNL     1       3.413   4.145  19.472  0.00  0.00    +0.000 C 
ATOM     12  N   UNL     1       4.140   3.390  18.438  0.00  0.00    +0.000 N 
ATOM     13  C   UNL     1       3.809   1.964  18.369  0.00  0.00    +0.000 C 
ATOM     14  C   UNL     1       2.331   1.811  18.057  0.00  0.00    +0.000 C 
ATOM     15  C   UNL     1       1.513   2.623  19.045  0.00  0.00    +0.000 C 
ATOM     16  F   UNL     1       1.618   2.042  20.272  0.00  0.00    +0.000 F 
ATOM     17  F   UNL     1       0.198   2.533  18.706  0.00  0.00    +0.000 F 
BRANCH  10  18
ATOM     18  C   UNL     1       1.566   4.845  17.869  0.00  0.00    +0.000 C 
BRANCH  18  19
ATOM     19  O   UNL     1       2.201   6.118  17.858  0.00  0.00    +0.000 OA
ATOM     20  H   UNL     1       2.247   6.410  16.931  0.00  0.00    +0.000 HD
ENDBRANCH  18  19
ENDBRANCH  10  18
ENDBRANCH   1  12
BRANCH   3  21
ATOM     21  C   UNL     1       6.663   4.311  14.318  0.00  0.00    +0.000 A 
ATOM     22  C   UNL     1       5.809   3.466  13.595  0.00  0.00    +0.000 A 
ATOM     23  C   UNL     1       5.890   3.409  12.202  0.00  0.00    +0.000 A 
ATOM     24  C   UNL     1       6.814   4.202  11.524  0.00  0.00    +0.000 A 
ATOM     25  C   UNL     1       7.656   5.055  12.236  0.00  0.00    +0.000 A 
ATOM     26  C   UNL     1       7.581   5.113  13.629  0.00  0.00    +0.000 A 
ENDBRANCH   3  21
TORSDOF 4
ENDMDL
MODEL 8
REMARK VINA RESULT:      -7.9      4.070      7.373
REMARK  Name = 
REMARK  4 active torsions:
REMARK  status: ('A' for Active; 'I' for Inactive)
REMARK    1  A    between atoms: O_1  and  C_2
REMARK    2  A    between atoms: C_2  and  C_3
REMARK    3  A    between atoms: N_5  and  C_6
REMARK    4  A    between atoms: C_8  and  C_9
REMARK                            x       y       z     vdW  Elec       q    Type
REMARK                         _______ _______ _______ _____ _____    ______ ____
ROOT
ATOM      1  C   UNL     1       3.797   5.301  19.457  0.00  0.00    +0.000 A 
ATOM      2  C   UNL     1       3.282   6.540  19.532  0.00  0.00    +0.000 A 
ATOM      3  C   UNL     1       2.004   6.711  20.286  0.00  0.00    +0.000 A 
ATOM      4  N   UNL     1       1.422   5.773  20.976  0.00  0.00    +0.000 NA
ATOM      5  C   UNL     1       1.999   4.537  20.943  0.00  0.00    +0.000 A 
ATOM      6  N   UNL     1       1.623   3.437  21.559  0.00  0.00    +0.000 NA
ATOM      7  C   UNL     1       2.532   2.515  21.144  0.00  0.00    +0.000 A 
ATOM      8  N   UNL     1       3.470   2.948  20.307  0.00  0.00    +0.000 NA
ATOM      9  N   UNL     1       3.142   4.268  20.171  0.00  0.00    +0.000 N 
ENDROOT
BRANCH   1  12
ATOM     10  C   UNL     1       5.661   5.251  16.365  0.00  0.00    +0.000 C 
ATOM     11  C   UNL     1       4.846   4.415  17.355  0.00  0.00    +0.000 C 
ATOM     12  N   UNL     1       4.939   5.043  18.683  0.00  0.00    +0.000 N 
ATOM     13  C   UNL     1       6.292   5.105  19.242  0.00  0.00    +0.000 C 
ATOM     14  C   UNL     1       7.176   5.920  18.315  0.00  0.00    +0.000 C 
ATOM     15  C   UNL     1       7.078   5.372  16.903  0.00  0.00    +0.000 C 
ATOM     16  F   UNL     1       7.671   4.146  16.874  0.00  0.00    +0.000 F 
ATOM     17  F   UNL     1       7.819   6.158  16.074  0.00  0.00    +0.000 F 
BRANCH  10  18
ATOM     18  C   UNL     1       5.047   6.634  16.129  0.00  0.00    +0.000 C 
BRANCH  18  19
ATOM     19  O   UNL     1       5.137   6.987  14.753  0.00  0.00    +0.000 OA
ATOM     20  H   UNL     1       5.690   7.786  14.695  0.00  0.00    +0.000 HD
ENDBRANCH  18  19
ENDBRANCH  10  18
ENDBRANCH   1  12
BRANCH   3  21
ATOM     21  C   UNL     1       1.372   8.062  20.216  0.00  0.00    +0.000 A 
ATOM     22  C   UNL     1       1.485   8.873  19.077  0.00  0.00    +0.000 A 
ATOM     23  C   UNL     1       0.850  10.116  19.032  0.00  0.00    +0.000 A 
ATOM     24  C   UNL     1       0.089  10.550  20.115  0.00  0.00    +0.000 A 
ATOM     25  C   UNL     1      -0.040   9.742  21.244  0.00  0.00    +0.000 A 
ATOM     26  C   UNL     1       0.596   8.500  21.296  0.00  0.00    +0.000 A 
ENDBRANCH   3  21
TORSDOF 4
ENDMDL
MODEL 9
REMARK VINA RESULT:      -7.8      4.007      7.399
REMARK  Name = 
REMARK  4 active torsions:
REMARK  status: ('A' for Active; 'I' for Inactive)
REMARK    1  A    between atoms: O_1  and  C_2
REMARK    2  A    between atoms: C_2  and  C_3
REMARK    3  A    between atoms: N_5  and  C_6
REMARK    4  A    between atoms: C_8  and  C_9
REMARK                            x       y       z     vdW  Elec       q    Type
REMARK                         _______ _______ _______ _____ _____    ______ ____
ROOT
ATOM      1  C   UNL     1       3.488   5.850  18.782  0.00  0.00    +0.000 A 
ATOM      2  C   UNL     1       2.950   7.047  19.067  0.00  0.00    +0.000 A 
ATOM      3  C   UNL     1       1.942   7.105  20.169  0.00  0.00    +0.000 A 
ATOM      4  N   UNL     1       1.643   6.109  20.949  0.00  0.00    +0.000 NA
ATOM      5  C   UNL     1       2.253   4.916  20.686  0.00  0.00    +0.000 A 
ATOM      6  N   UNL     1       2.137   3.774  21.327  0.00  0.00    +0.000 NA
ATOM      7  C   UNL     1       2.934   2.931  20.619  0.00  0.00    +0.000 A 
ATOM      8  N   UNL     1       3.557   3.454  19.569  0.00  0.00    +0.000 NA
ATOM      9  N   UNL     1       3.131   4.751  19.601  0.00  0.00    +0.000 N 
ENDROOT
BRANCH   1  12
ATOM     10  C   UNL     1       6.700   6.136  17.158  0.00  0.00    +0.000 C 
ATOM     11  C   UNL     1       5.309   6.757  17.310  0.00  0.00    +0.000 C 
ATOM     12  N   UNL     1       4.364   5.696  17.696  0.00  0.00    +0.000 N 
ATOM     13  C   UNL     1       4.208   4.622  16.712  0.00  0.00    +0.000 C 
ATOM     14  C   UNL     1       5.551   3.948  16.494  0.00  0.00    +0.000 C 
ATOM     15  C   UNL     1       6.599   4.992  16.159  0.00  0.00    +0.000 C 
ATOM     16  F   UNL     1       6.322   5.502  14.926  0.00  0.00    +0.000 F 
ATOM     17  F   UNL     1       7.809   4.380  16.039  0.00  0.00    +0.000 F 
BRANCH  10  18
ATOM     18  C   UNL     1       7.268   5.645  18.493  0.00  0.00    +0.000 C 
BRANCH  18  19
ATOM     19  O   UNL     1       8.205   6.585  19.006  0.00  0.00    +0.000 OA
ATOM     20  H   UNL     1       9.088   6.305  18.710  0.00  0.00    +0.000 HD
ENDBRANCH  18  19
ENDBRANCH  10  18
ENDBRANCH   1  12
BRANCH   3  21
ATOM     21  C   UNL     1       1.243   8.412  20.355  0.00  0.00    +0.000 A 
ATOM     22  C   UNL     1       1.124   9.342  19.312  0.00  0.00    +0.000 A 
ATOM     23  C   UNL     1       0.431  10.538  19.511  0.00  0.00    +0.000 A 
ATOM     24  C   UNL     1      -0.158  10.806  20.745  0.00  0.00    +0.000 A 
ATOM     25  C   UNL     1      -0.056   9.879  21.782  0.00  0.00    +0.000 A 
ATOM     26  C   UNL     1       0.639   8.683  21.589  0.00  0.00    +0.000 A 
ENDBRANCH   3  21
TORSDOF 4
ENDMDL
