MODEL 1
REMARK VINA RESULT:      -9.2      0.000      0.000
REMARK  Name = 
REMARK  1 active torsions:
REMARK  status: ('A' for Active; 'I' for Inactive)
REMARK    1  A    between atoms: C_8  and  C_9
REMARK                            x       y       z     vdW  Elec       q    Type
REMARK                         _______ _______ _______ _____ _____    ______ ____
ROOT
ATOM      1  C   UNL     1       7.800   4.520  18.128  0.00  0.00    +0.000 A 
ATOM      2  N   UNL     1       6.612   4.706  18.752  0.00  0.00    +0.000 NA
ATOM      3  C   UNL     1       5.497   4.769  17.994  0.00  0.00    +0.000 A 
ATOM      4  N   UNL     1       4.223   5.027  18.520  0.00  0.00    +0.000 N 
ATOM      5  C   UNL     1       4.079   4.639  19.929  0.00  0.00    +0.000 C 
ATOM      6  C   UNL     1       2.588   4.714  20.264  0.00  0.00    +0.000 C 
ATOM      7  C   UNL     1       2.026   6.118  20.016  0.00  0.00    +0.000 C 
ATOM      8  C   UNL     1       2.396   6.663  18.624  0.00  0.00    +0.000 C 
ATOM      9  C   UNL     1       3.887   6.449  18.308  0.00  0.00    +0.000 C 
ATOM     10  C   UNL     1       5.667   4.584  16.637  0.00  0.00    +0.000 A 
ATOM     11  N   UNL     1       4.806   4.544  15.578  0.00  0.00    +0.000 N 
ATOM     12  C   UNL     1       5.551   4.383  14.445  0.00  0.00    +0.000 A 
ATOM     13  N   UNL     1       6.836   4.275  14.722  0.00  0.00    +0.000 NA
ATOM     14  C   UNL     1       6.916   4.395  16.086  0.00  0.00    +0.000 A 
ATOM     15  N   UNL     1       8.042   4.360  16.818  0.00  0.00    +0.000 NA
ATOM     16  H   UNL     1       3.802   4.635  15.641  0.00  0.00    +0.000 HD
ENDROOT
BRANCH   8  17
ATOM     17  C   UNL     1       2.053   8.114  18.506  0.00  0.00    +0.000 A 
ATOM     18  N   UNL     1       2.336   8.888  17.477  0.00  0.00    +0.000 NA
ATOM     19  N   UNL     1       1.834  10.132  17.724  0.00  0.00    +0.000 NA
ATOM     20  C   UNL     1       1.254  10.122  18.905  0.00  0.00    +0.000 A 
ATOM     21  N   UNL     1       1.380   8.861  19.442  0.00  0.00    +0.000 N 
ATOM     22  C   UNL     1       0.911   8.411  20.737  0.00  0.00    +0.000 C 
ATOM     23  C   UNL     1       1.161   9.425  21.845  0.00  0.00    +0.000 C 
ATOM     24  C   UNL     1       0.092  10.515  21.917  0.00  0.00    +0.000 C 
ATOM     25  C   UNL     1      -0.465  10.979  20.569  0.00  0.00    +0.000 C 
ATOM     26  C   UNL     1       0.616  11.307  19.547  0.00  0.00    +0.000 C 
ENDBRANCH   8  17
TORSDOF 1
ENDMDL
MODEL 2
REMARK VINA RESULT:      -9.1      3.515      8.725
REMARK  Name = 
REMARK  1 active torsions:
REMARK  status: ('A' for Active; 'I' for Inactive)
REMARK    1  A    between atoms: C_8  and  C_9
REMARK                            x       y       z     vdW  Elec       q    Type
REMARK                         _______ _______ _______ _____ _____    ______ ____
ROOT
ATOM      1  C   UNL     1      -4.953  11.792  18.480  0.00  0.00    +0.000 A 
ATOM      2  N   UNL     1      -3.724  11.997  19.011  0.00  0.00    +0.000 NA
ATOM      3  C   UNL     1      -2.646  11.661  18.272  0.00  0.00    +0.000 A 
ATOM      4  N   UNL     1      -1.329  11.762  18.743  0.00  0.00    +0.000 N 
ATOM      5  C   UNL     1      -1.157  12.771  19.795  0.00  0.00    +0.000 C 
ATOM      6  C   UNL     1       0.349  12.959  19.994  0.00  0.00    +0.000 C 
ATOM      7  C   UNL     1       1.035  11.642  20.372  0.00  0.00    +0.000 C 
ATOM      8  C   UNL     1       0.654  10.487  19.427  0.00  0.00    +0.000 C 
ATOM      9  C   UNL     1      -0.864  10.431  19.181  0.00  0.00    +0.000 C 
ATOM     10  C   UNL     1      -2.898  11.179  17.003  0.00  0.00    +0.000 A 
ATOM     11  N   UNL     1      -2.097  10.777  15.973  0.00  0.00    +0.000 N 
ATOM     12  C   UNL     1      -2.908  10.341  14.965  0.00  0.00    +0.000 A 
ATOM     13  N   UNL     1      -4.183  10.481  15.273  0.00  0.00    +0.000 NA
ATOM     14  C   UNL     1      -4.184  11.007  16.540  0.00  0.00    +0.000 A 
ATOM     15  N   UNL     1      -5.272  11.306  17.270  0.00  0.00    +0.000 NA
ATOM     16  H   UNL     1      -1.087  10.791  15.982  0.00  0.00    +0.000 HD
ENDROOT
BRANCH   8  17
ATOM     17  C   UNL     1       1.134   9.175  19.961  0.00  0.00    +0.000 A 
ATOM     18  N   UNL     1       0.980   8.749  21.199  0.00  0.00    +0.000 NA
ATOM     19  N   UNL     1       1.519   7.499  21.292  0.00  0.00    +0.000 NA
ATOM     20  C   UNL     1       2.008   7.165  20.117  0.00  0.00    +0.000 A 
ATOM     21  N   UNL     1       1.795   8.207  19.245  0.00  0.00    +0.000 N 
ATOM     22  C   UNL     1       2.195   8.280  17.854  0.00  0.00    +0.000 C 
ATOM     23  C   UNL     1       3.597   7.737  17.611  0.00  0.00    +0.000 C 
ATOM     24  C   UNL     1       3.638   6.216  17.469  0.00  0.00    +0.000 C 
ATOM     25  C   UNL     1       2.667   5.445  18.366  0.00  0.00    +0.000 C 
ATOM     26  C   UNL     1       2.712   5.883  19.825  0.00  0.00    +0.000 C 
ENDBRANCH   8  17
TORSDOF 1
ENDMDL
MODEL 3
REMARK VINA RESULT:      -8.0      1.484      2.224
REMARK  Name = 
REMARK  1 active torsions:
REMARK  status: ('A' for Active; 'I' for Inactive)
REMARK    1  A    between atoms: C_8  and  C_9
REMARK                            x       y       z     vdW  Elec       q    Type
REMARK                         _______ _______ _______ _____ _____    ______ ____
ROOT
ATOM      1  C   UNL     1       7.118   4.573  18.771  0.00  0.00    +0.000 A 
ATOM      2  N   UNL     1       5.878   4.515  19.311  0.00  0.00    +0.000 NA
ATOM      3  C   UNL     1       4.859   5.078  18.630  0.00  0.00    +0.000 A 
ATOM      4  N   UNL     1       3.547   5.142  19.121  0.00  0.00    +0.000 N 
ATOM      5  C   UNL     1       3.229   4.081  20.086  0.00  0.00    +0.000 C 
ATOM      6  C   UNL     1       1.715   4.112  20.303  0.00  0.00    +0.000 C 
ATOM      7  C   UNL     1       1.247   5.481  20.810  0.00  0.00    +0.000 C 
ATOM      8  C   UNL     1       1.794   6.642  19.959  0.00  0.00    +0.000 C 
ATOM      9  C   UNL     1       3.300   6.484  19.683  0.00  0.00    +0.000 C 
ATOM     10  C   UNL     1       5.171   5.626  17.402  0.00  0.00    +0.000 A 
ATOM     11  N   UNL     1       4.433   6.238  16.429  0.00  0.00    +0.000 N 
ATOM     12  C   UNL     1       5.292   6.630  15.444  0.00  0.00    +0.000 A 
ATOM     13  N   UNL     1       6.532   6.268  15.709  0.00  0.00    +0.000 NA
ATOM     14  C   UNL     1       6.464   5.637  16.925  0.00  0.00    +0.000 A 
ATOM     15  N   UNL     1       7.498   5.110  17.601  0.00  0.00    +0.000 NA
ATOM     16  H   UNL     1       3.433   6.379  16.460  0.00  0.00    +0.000 HD
ENDROOT
BRANCH   8  17
ATOM     17  C   UNL     1       1.531   7.960  20.615  0.00  0.00    +0.000 A 
ATOM     18  N   UNL     1       1.629   8.206  21.906  0.00  0.00    +0.000 NA
ATOM     19  N   UNL     1       1.345   9.525  22.114  0.00  0.00    +0.000 NA
ATOM     20  C   UNL     1       1.065  10.080  20.955  0.00  0.00    +0.000 A 
ATOM     21  N   UNL     1       1.160   9.118  19.976  0.00  0.00    +0.000 N 
ATOM     22  C   UNL     1       0.909   9.284  18.559  0.00  0.00    +0.000 C 
ATOM     23  C   UNL     1      -0.320  10.135  18.269  0.00  0.00    +0.000 C 
ATOM     24  C   UNL     1      -0.040  11.636  18.322  0.00  0.00    +0.000 C 
ATOM     25  C   UNL     1       0.961  12.081  19.391  0.00  0.00    +0.000 C 
ATOM     26  C   UNL     1       0.669  11.506  20.771  0.00  0.00    +0.000 C 
ENDBRANCH   8  17
TORSDOF 1
ENDMDL
MODEL 4
REMARK VINA RESULT:      -7.8      2.216      4.173
REMARK  Name = 
REMARK  1 active torsions:
REMARK  status: ('A' for Active; 'I' for Inactive)
REMARK    1  A    between atoms: C_8  and  C_9
REMARK                            x       y       z     vdW  Elec       q    Type
REMARK                         _______ _______ _______ _____ _____    ______ ____
ROOT
ATOM      1  C   UNL     1       1.638   1.976  17.902  0.00  0.00    +0.000 A 
ATOM      2  N   UNL     1       2.314   3.094  17.548  0.00  0.00    +0.000 NA
ATOM      3  C   UNL     1       2.737   3.921  18.527  0.00  0.00    +0.000 A 
ATOM      4  N   UNL     1       3.384   5.140  18.279  0.00  0.00    +0.000 N 
ATOM      5  C   UNL     1       4.087   5.180  16.990  0.00  0.00    +0.000 C 
ATOM      6  C   UNL     1       4.961   6.436  16.995  0.00  0.00    +0.000 C 
ATOM      7  C   UNL     1       4.124   7.702  17.210  0.00  0.00    +0.000 C 
ATOM      8  C   UNL     1       3.172   7.581  18.414  0.00  0.00    +0.000 C 
ATOM      9  C   UNL     1       2.412   6.243  18.405  0.00  0.00    +0.000 C 
ATOM     10  C   UNL     1       2.482   3.518  19.822  0.00  0.00    +0.000 A 
ATOM     11  N   UNL     1       2.772   4.047  21.047  0.00  0.00    +0.000 N 
ATOM     12  C   UNL     1       2.217   3.233  21.991  0.00  0.00    +0.000 A 
ATOM     13  N   UNL     1       1.624   2.190  21.444  0.00  0.00    +0.000 NA
ATOM     14  C   UNL     1       1.789   2.358  20.093  0.00  0.00    +0.000 A 
ATOM     15  N   UNL     1       1.332   1.537  19.132  0.00  0.00    +0.000 NA
ATOM     16  H   UNL     1       3.292   4.899  21.204  0.00  0.00    +0.000 HD
ENDROOT
BRANCH   8  17
ATOM     17  C   UNL     1       2.201   8.719  18.448  0.00  0.00    +0.000 A 
ATOM     18  N   UNL     1       1.961   9.552  17.454  0.00  0.00    +0.000 NA
ATOM     19  N   UNL     1       0.994  10.428  17.853  0.00  0.00    +0.000 NA
ATOM     20  C   UNL     1       0.652  10.138  19.090  0.00  0.00    +0.000 A 
ATOM     21  N   UNL     1       1.403   9.065  19.511  0.00  0.00    +0.000 N 
ATOM     22  C   UNL     1       1.372   8.432  20.813  0.00  0.00    +0.000 C 
ATOM     23  C   UNL     1       1.293   9.434  21.958  0.00  0.00    +0.000 C 
ATOM     24  C   UNL     1      -0.130   9.917  22.239  0.00  0.00    +0.000 C 
ATOM     25  C   UNL     1      -1.018  10.097  21.006  0.00  0.00    +0.000 C 
ATOM     26  C   UNL     1      -0.354  10.895  19.891  0.00  0.00    +0.000 C 
ENDBRANCH   8  17
TORSDOF 1
ENDMDL
MODEL 5
REMARK VINA RESULT:      -7.8      4.191      7.504
REMARK  Name = 
REMARK  1 active torsions:
REMARK  status: ('A' for Active; 'I' for Inactive)
REMARK    1  A    between atoms: C_8  and  C_9
REMARK                            x       y       z     vdW  Elec       q    Type
REMARK                         _______ _______ _______ _____ _____    ______ ____
ROOT
ATOM      1  C   UNL     1       4.204   2.104  19.990  0.00  0.00    +0.000 A 
ATOM      2  N   UNL     1       5.069   3.073  19.613  0.00  0.00    +0.000 NA
ATOM      3  C   UNL     1       4.637   4.012  18.745  0.00  0.00    +0.000 A 
ATOM      4  N   UNL     1       5.462   5.022  18.230  0.00  0.00    +0.000 N 
ATOM      5  C   UNL     1       6.593   5.359  19.104  0.00  0.00    +0.000 C 
ATOM      6  C   UNL     1       7.217   6.644  18.554  0.00  0.00    +0.000 C 
ATOM      7  C   UNL     1       7.672   6.471  17.100  0.00  0.00    +0.000 C 
ATOM      8  C   UNL     1       6.574   5.861  16.209  0.00  0.00    +0.000 C 
ATOM      9  C   UNL     1       5.912   4.643  16.876  0.00  0.00    +0.000 C 
ATOM     10  C   UNL     1       3.316   3.924  18.354  0.00  0.00    +0.000 A 
ATOM     11  N   UNL     1       2.523   4.682  17.542  0.00  0.00    +0.000 N 
ATOM     12  C   UNL     1       1.299   4.080  17.481  0.00  0.00    +0.000 A 
ATOM     13  N   UNL     1       1.250   3.003  18.242  0.00  0.00    +0.000 NA
ATOM     14  C   UNL     1       2.502   2.903  18.793  0.00  0.00    +0.000 A 
ATOM     15  N   UNL     1       2.920   1.941  19.633  0.00  0.00    +0.000 NA
ATOM     16  H   UNL     1       2.813   5.525  17.066  0.00  0.00    +0.000 HD
ENDROOT
BRANCH   8  17
ATOM     17  C   UNL     1       7.121   5.475  14.871  0.00  0.00    +0.000 A 
ATOM     18  N   UNL     1       8.271   5.879  14.368  0.00  0.00    +0.000 NA
ATOM     19  N   UNL     1       8.435   5.290  13.147  0.00  0.00    +0.000 NA
ATOM     20  C   UNL     1       7.384   4.537  12.902  0.00  0.00    +0.000 A 
ATOM     21  N   UNL     1       6.518   4.635  13.966  0.00  0.00    +0.000 N 
ATOM     22  C   UNL     1       5.227   3.994  14.106  0.00  0.00    +0.000 C 
ATOM     23  C   UNL     1       4.406   4.027  12.823  0.00  0.00    +0.000 C 
ATOM     24  C   UNL     1       4.774   2.912  11.844  0.00  0.00    +0.000 C 
ATOM     25  C   UNL     1       6.259   2.547  11.790  0.00  0.00    +0.000 C 
ATOM     26  C   UNL     1       7.175   3.756  11.648  0.00  0.00    +0.000 C 
ENDBRANCH   8  17
TORSDOF 1
ENDMDL
MODEL 6
REMARK VINA RESULT:      -7.8      6.448     10.089
REMARK  Name = 
REMARK  1 active torsions:
REMARK  status: ('A' for Active; 'I' for Inactive)
REMARK    1  A    between atoms: C_8  and  C_9
REMARK                            x       y       z     vdW  Elec       q    Type
REMARK                         _______ _______ _______ _____ _____    ______ ____
ROOT
ATOM      1  C   UNL     1       0.352  10.486  18.930  0.00  0.00    +0.000 A 
ATOM      2  N   UNL     1      -0.918  10.541  18.465  0.00  0.00    +0.000 NA
ATOM      3  C   UNL     1      -1.603  11.694  18.613  0.00  0.00    +0.000 A 
ATOM      4  N   UNL     1      -2.944  11.847  18.235  0.00  0.00    +0.000 N 
ATOM      5  C   UNL     1      -3.362  10.929  17.167  0.00  0.00    +0.000 C 
ATOM      6  C   UNL     1      -4.732  11.404  16.678  0.00  0.00    +0.000 C 
ATOM      7  C   UNL     1      -5.757  11.433  17.818  0.00  0.00    +0.000 C 
ATOM      8  C   UNL     1      -5.232  12.170  19.064  0.00  0.00    +0.000 C 
ATOM      9  C   UNL     1      -3.805  11.725  19.428  0.00  0.00    +0.000 C 
ATOM     10  C   UNL     1      -0.916  12.745  19.188  0.00  0.00    +0.000 A 
ATOM     11  N   UNL     1      -1.242  14.041  19.468  0.00  0.00    +0.000 N 
ATOM     12  C   UNL     1      -0.172  14.609  20.097  0.00  0.00    +0.000 A 
ATOM     13  N   UNL     1       0.836  13.765  20.198  0.00  0.00    +0.000 NA
ATOM     14  C   UNL     1       0.381  12.602  19.630  0.00  0.00    +0.000 A 
ATOM     15  N   UNL     1       1.070  11.454  19.520  0.00  0.00    +0.000 NA
ATOM     16  H   UNL     1      -2.128  14.477  19.254  0.00  0.00    +0.000 HD
ENDROOT
BRANCH   8  17
ATOM     17  C   UNL     1      -6.144  11.968  20.232  0.00  0.00    +0.000 A 
ATOM     18  N   UNL     1      -6.794  10.856  20.513  0.00  0.00    +0.000 NA
ATOM     19  N   UNL     1      -7.493  11.049  21.670  0.00  0.00    +0.000 NA
ATOM     20  C   UNL     1      -7.278  12.278  22.088  0.00  0.00    +0.000 A 
ATOM     21  N   UNL     1      -6.435  12.901  21.197  0.00  0.00    +0.000 N 
ATOM     22  C   UNL     1      -5.958  14.268  21.253  0.00  0.00    +0.000 C 
ATOM     23  C   UNL     1      -7.043  15.259  21.653  0.00  0.00    +0.000 C 
ATOM     24  C   UNL     1      -7.254  15.346  23.164  0.00  0.00    +0.000 C 
ATOM     25  C   UNL     1      -7.109  14.026  23.925  0.00  0.00    +0.000 C 
ATOM     26  C   UNL     1      -7.897  12.880  23.304  0.00  0.00    +0.000 C 
ENDBRANCH   8  17
TORSDOF 1
ENDMDL
MODEL 7
REMARK VINA RESULT:      -7.7      3.277      8.413
REMARK  Name = 
REMARK  1 active torsions:
REMARK  status: ('A' for Active; 'I' for Inactive)
REMARK    1  A    between atoms: C_8  and  C_9
REMARK                            x       y       z     vdW  Elec       q    Type
REMARK                         _______ _______ _______ _____ _____    ______ ____
ROOT
ATOM      1  C   UNL     1       1.581  16.050  18.478  0.00  0.00    +0.000 A 
ATOM      2  N   UNL     1       0.875  14.910  18.669  0.00  0.00    +0.000 NA
ATOM      3  C   UNL     1       1.334  14.018  19.572  0.00  0.00    +0.000 A 
ATOM      4  N   UNL     1       0.727  12.776  19.803  0.00  0.00    +0.000 N 
ATOM      5  C   UNL     1      -0.704  12.750  19.475  0.00  0.00    +0.000 C 
ATOM      6  C   UNL     1      -1.270  11.446  20.040  0.00  0.00    +0.000 C 
ATOM      7  C   UNL     1      -0.548  10.223  19.464  0.00  0.00    +0.000 C 
ATOM      8  C   UNL     1       0.985  10.347  19.556  0.00  0.00    +0.000 C 
ATOM      9  C   UNL     1       1.472  11.726  19.079  0.00  0.00    +0.000 C 
ATOM     10  C   UNL     1       2.472  14.379  20.265  0.00  0.00    +0.000 A 
ATOM     11  N   UNL     1       3.201  13.781  21.253  0.00  0.00    +0.000 N 
ATOM     12  C   UNL     1       4.271  14.585  21.521  0.00  0.00    +0.000 A 
ATOM     13  N   UNL     1       4.247  15.684  20.792  0.00  0.00    +0.000 NA
ATOM     14  C   UNL     1       3.126  15.565  20.010  0.00  0.00    +0.000 A 
ATOM     15  N   UNL     1       2.703  16.452  19.094  0.00  0.00    +0.000 NA
ATOM     16  H   UNL     1       2.979  12.894  21.683  0.00  0.00    +0.000 HD
ENDROOT
BRANCH   8  17
ATOM     17  C   UNL     1       1.660   9.267  18.771  0.00  0.00    +0.000 A 
ATOM     18  N   UNL     1       1.997   9.342  17.499  0.00  0.00    +0.000 NA
ATOM     19  N   UNL     1       2.619   8.178  17.151  0.00  0.00    +0.000 NA
ATOM     20  C   UNL     1       2.652   7.391  18.205  0.00  0.00    +0.000 A 
ATOM     21  N   UNL     1       2.043   8.040  19.254  0.00  0.00    +0.000 N 
ATOM     22  C   UNL     1       1.834   7.532  20.594  0.00  0.00    +0.000 C 
ATOM     23  C   UNL     1       1.388   6.076  20.615  0.00  0.00    +0.000 C 
ATOM     24  C   UNL     1       2.549   5.089  20.499  0.00  0.00    +0.000 C 
ATOM     25  C   UNL     1       3.693   5.524  19.580  0.00  0.00    +0.000 C 
ATOM     26  C   UNL     1       3.222   6.012  18.216  0.00  0.00    +0.000 C 
ENDBRANCH   8  17
TORSDOF 1
ENDMDL
MODEL 8
REMARK VINA RESULT:      -7.6      3.494      9.375
REMARK  Name = 
REMARK  1 active torsions:
REMARK  status: ('A' for Active; 'I' for Inactive)
REMARK    1  A    between atoms: C_8  and  C_9
REMARK                            x       y       z     vdW  Elec       q    Type
REMARK                         _______ _______ _______ _____ _____    ______ ____
ROOT
ATOM      1  C   UNL     1      -3.516  13.798  21.300  0.00  0.00    +0.000 A 
ATOM      2  N   UNL     1      -2.271  13.557  20.826  0.00  0.00    +0.000 NA
ATOM      3  C   UNL     1      -2.135  12.690  19.801  0.00  0.00    +0.000 A 
ATOM      4  N   UNL     1      -0.892  12.310  19.274  0.00  0.00    +0.000 N 
ATOM      5  C   UNL     1       0.162  13.312  19.474  0.00  0.00    +0.000 C 
ATOM      6  C   UNL     1       1.353  12.888  18.611  0.00  0.00    +0.000 C 
ATOM      7  C   UNL     1       1.845  11.485  18.983  0.00  0.00    +0.000 C 
ATOM      8  C   UNL     1       0.700  10.456  19.041  0.00  0.00    +0.000 C 
ATOM      9  C   UNL     1      -0.509  10.996  19.826  0.00  0.00    +0.000 C 
ATOM     10  C   UNL     1      -3.302  12.158  19.289  0.00  0.00    +0.000 A 
ATOM     11  N   UNL     1      -3.574  11.300  18.262  0.00  0.00    +0.000 N 
ATOM     12  C   UNL     1      -4.921  11.084  18.250  0.00  0.00    +0.000 A 
ATOM     13  N   UNL     1      -5.534  11.788  19.183  0.00  0.00    +0.000 NA
ATOM     14  C   UNL     1      -4.531  12.463  19.831  0.00  0.00    +0.000 A 
ATOM     15  N   UNL     1      -4.686  13.300  20.871  0.00  0.00    +0.000 NA
ATOM     16  H   UNL     1      -2.884  10.896  17.644  0.00  0.00    +0.000 HD
ENDROOT
BRANCH   8  17
ATOM     17  C   UNL     1       1.165   9.168  19.643  0.00  0.00    +0.000 A 
ATOM     18  N   UNL     1       0.943   8.776  20.882  0.00  0.00    +0.000 NA
ATOM     19  N   UNL     1       1.493   7.538  21.045  0.00  0.00    +0.000 NA
ATOM     20  C   UNL     1       2.057   7.179  19.912  0.00  0.00    +0.000 A 
ATOM     21  N   UNL     1       1.883   8.191  18.997  0.00  0.00    +0.000 N 
ATOM     22  C   UNL     1       2.365   8.229  17.632  0.00  0.00    +0.000 C 
ATOM     23  C   UNL     1       3.787   7.702  17.490  0.00  0.00    +0.000 C 
ATOM     24  C   UNL     1       3.859   6.178  17.396  0.00  0.00    +0.000 C 
ATOM     25  C   UNL     1       2.846   5.419  18.256  0.00  0.00    +0.000 C 
ATOM     26  C   UNL     1       2.796   5.900  19.701  0.00  0.00    +0.000 C 
ENDBRANCH   8  17
TORSDOF 1
ENDMDL
MODEL 9
REMARK VINA RESULT:      -7.5      2.723      7.791
REMARK  Name = 
REMARK  1 active torsions:
REMARK  status: ('A' for Active; 'I' for Inactive)
REMARK    1  A    between atoms: C_8  and  C_9
REMARK                            x       y       z     vdW  Elec       q    Type
REMARK                         _______ _______ _______ _____ _____    ______ ____
ROOT
ATOM      1  C   UNL     1      -1.427  12.699  18.626  0.00  0.00    +0.000 A 
ATOM      2  N   UNL     1      -1.144  11.601  19.365  0.00  0.00    +0.000 NA
ATOM      3  C   UNL     1       0.137  11.392  19.734  0.00  0.00    +0.000 A 
ATOM      4  N   UNL     1       0.559  10.256  20.439  0.00  0.00    +0.000 N 
ATOM      5  C   UNL     1      -0.501   9.638  21.246  0.00  0.00    +0.000 C 
ATOM      6  C   UNL     1       0.173   8.610  22.158  0.00  0.00    +0.000 C 
ATOM      7  C   UNL     1       0.938   7.557  21.349  0.00  0.00    +0.000 C 
ATOM      8  C   UNL     1       1.871   8.186  20.297  0.00  0.00    +0.000 C 
ATOM      9  C   UNL     1       1.161   9.292  19.497  0.00  0.00    +0.000 C 
ATOM     10  C   UNL     1       1.048  12.359  19.360  0.00  0.00    +0.000 A 
ATOM     11  N   UNL     1       2.388  12.520  19.567  0.00  0.00    +0.000 N 
ATOM     12  C   UNL     1       2.775  13.652  18.910  0.00  0.00    +0.000 A 
ATOM     13  N   UNL     1       1.752  14.249  18.329  0.00  0.00    +0.000 NA
ATOM     14  C   UNL     1       0.671  13.452  18.609  0.00  0.00    +0.000 A 
ATOM     15  N   UNL     1      -0.593  13.663  18.206  0.00  0.00    +0.000 NA
ATOM     16  H   UNL     1       2.973  11.893  20.100  0.00  0.00    +0.000 HD
ENDROOT
BRANCH   8  17
ATOM     17  C   UNL     1       2.410   7.147  19.366  0.00  0.00    +0.000 A 
ATOM     18  N   UNL     1       3.007   7.386  18.215  0.00  0.00    +0.000 NA
ATOM     19  N   UNL     1       3.385   6.192  17.673  0.00  0.00    +0.000 NA
ATOM     20  C   UNL     1       3.012   5.227  18.485  0.00  0.00    +0.000 A 
ATOM     21  N   UNL     1       2.377   5.789  19.569  0.00  0.00    +0.000 N 
ATOM     22  C   UNL     1       1.784   5.095  20.693  0.00  0.00    +0.000 C 
ATOM     23  C   UNL     1       1.004   3.854  20.279  0.00  0.00    +0.000 C 
ATOM     24  C   UNL     1       1.890   2.624  20.080  0.00  0.00    +0.000 C 
ATOM     25  C   UNL     1       3.267   2.898  19.471  0.00  0.00    +0.000 C 
ATOM     26  C   UNL     1       3.216   3.772  18.225  0.00  0.00    +0.000 C 
ENDBRANCH   8  17
TORSDOF 1
ENDMDL
