MODEL 1
REMARK VINA RESULT:      -9.3      0.000      0.000
REMARK  Name = 
REMARK  6 active torsions:
REMARK  status: ('A' for Active; 'I' for Inactive)
REMARK    1  A    between atoms: C_1  and  C_2
REMARK    2  A    between atoms: C_2  and  N_3
REMARK    3  A    between atoms: C_7  and  C_8
REMARK    4  A    between atoms: C_8  and  C_9
REMARK    5  A    between atoms: C_11  and  N_12
REMARK    6  A    between atoms: C_19  and  C_20
REMARK                            x       y       z     vdW  Elec       q    Type
REMARK                         _______ _______ _______ _____ _____    ______ ____
ROOT
ATOM      1  C   UNL     1       3.589   4.125  18.148  0.00  0.00    +0.000 A 
ATOM      2  C   UNL     1       3.079   5.429  18.304  0.00  0.00    +0.000 A 
ATOM      3  C   UNL     1       2.504   5.854  19.516  0.00  0.00    +0.000 A 
ATOM      4  C   UNL     1       2.406   4.932  20.567  0.00  0.00    +0.000 A 
ATOM      5  C   UNL     1       2.963   3.659  20.445  0.00  0.00    +0.000 A 
ATOM      6  C   UNL     1       3.567   3.279  19.254  0.00  0.00    +0.000 A 
ATOM      7  F   UNL     1       4.152   2.077  19.198  0.00  0.00    +0.000 F 
ENDROOT
BRANCH   3   8
ATOM      8  N   UNL     1       2.024   7.178  19.678  0.00  0.00    +0.000 N 
ATOM      9  C   UNL     1       1.380   7.644  20.898  0.00  0.00    +0.000 C 
ATOM     10  C   UNL     1       0.975   9.047  20.566  0.00  0.00    +0.000 A 
ATOM     11  C   UNL     1       1.422   9.361  19.283  0.00  0.00    +0.000 A 
ATOM     12  C   UNL     1       1.207  10.591  18.690  0.00  0.00    +0.000 A 
ATOM     13  C   UNL     1       0.494  11.540  19.418  0.00  0.00    +0.000 A 
ATOM     14  C   UNL     1       0.030  11.242  20.713  0.00  0.00    +0.000 A 
ATOM     15  C   UNL     1       0.270   9.988  21.314  0.00  0.00    +0.000 A 
ATOM     16  C   UNL     1       2.106   8.191  18.721  0.00  0.00    +0.000 C 
ATOM     17  O   UNL     1       2.644   8.209  17.629  0.00  0.00    +0.000 OA
BRANCH  15  18
ATOM     18  C   UNL     1      -0.234   9.719  22.707  0.00  0.00    +0.000 C 
ATOM     19  F   UNL     1      -1.062   8.641  22.790  0.00  0.00    +0.000 F 
ATOM     20  F   UNL     1       0.776   9.478  23.587  0.00  0.00    +0.000 F 
ATOM     21  F   UNL     1      -0.936  10.767  23.219  0.00  0.00    +0.000 F 
ENDBRANCH  15  18
ENDBRANCH   3   8
BRANCH   1  22
ATOM     22  C   UNL     1       4.105   3.639  16.813  0.00  0.00    +0.000 C 
BRANCH  22  27
ATOM     23  N   UNL     1       6.016   4.303  15.219  0.00  0.00    +0.000 N 
ATOM     24  C   UNL     1       7.293   4.749  15.410  0.00  0.00    +0.000 A 
ATOM     25  N   UNL     1       7.535   4.862  16.692  0.00  0.00    +0.000 NA
ATOM     26  N   UNL     1       6.397   4.488  17.363  0.00  0.00    +0.000 NA
ATOM     27  C   UNL     1       5.474   4.151  16.477  0.00  0.00    +0.000 A 
BRANCH  23  29
ATOM     28  C   UNL     1       6.406   3.720  12.844  0.00  0.00    +0.000 C 
ATOM     29  C   UNL     1       5.413   4.106  13.924  0.00  0.00    +0.000 C 
ENDBRANCH  23  29
ENDBRANCH  22  27
ENDBRANCH   1  22
TORSDOF 5
ENDMDL
MODEL 2
REMARK VINA RESULT:      -9.2      1.350      1.799
REMARK  Name = 
REMARK  6 active torsions:
REMARK  status: ('A' for Active; 'I' for Inactive)
REMARK    1  A    between atoms: C_1  and  C_2
REMARK    2  A    between atoms: C_2  and  N_3
REMARK    3  A    between atoms: C_7  and  C_8
REMARK    4  A    between atoms: C_8  and  C_9
REMARK    5  A    between atoms: C_11  and  N_12
REMARK    6  A    between atoms: C_19  and  C_20
REMARK                            x       y       z     vdW  Elec       q    Type
REMARK                         _______ _______ _______ _____ _____    ______ ____
ROOT
ATOM      1  C   UNL     1       3.954   4.210  19.260  0.00  0.00    +0.000 A 
ATOM      2  C   UNL     1       3.490   5.539  19.320  0.00  0.00    +0.000 A 
ATOM      3  C   UNL     1       2.273   5.865  19.947  0.00  0.00    +0.000 A 
ATOM      4  C   UNL     1       1.499   4.826  20.481  0.00  0.00    +0.000 A 
ATOM      5  C   UNL     1       1.978   3.516  20.483  0.00  0.00    +0.000 A 
ATOM      6  C   UNL     1       3.203   3.227  19.899  0.00  0.00    +0.000 A 
ATOM      7  F   UNL     1       3.663   1.972  19.981  0.00  0.00    +0.000 F 
ENDROOT
BRANCH   3   8
ATOM      8  N   UNL     1       1.827   7.208  20.035  0.00  0.00    +0.000 N 
ATOM      9  C   UNL     1       1.198   7.758  21.227  0.00  0.00    +0.000 C 
ATOM     10  C   UNL     1       0.828   9.150  20.818  0.00  0.00    +0.000 A 
ATOM     11  C   UNL     1       1.280   9.380  19.519  0.00  0.00    +0.000 A 
ATOM     12  C   UNL     1       1.096  10.580  18.858  0.00  0.00    +0.000 A 
ATOM     13  C   UNL     1       0.409  11.586  19.532  0.00  0.00    +0.000 A 
ATOM     14  C   UNL     1      -0.059  11.373  20.842  0.00  0.00    +0.000 A 
ATOM     15  C   UNL     1       0.150  10.149  21.513  0.00  0.00    +0.000 A 
ATOM     16  C   UNL     1       1.932   8.163  19.022  0.00  0.00    +0.000 C 
ATOM     17  O   UNL     1       2.468   8.106  17.930  0.00  0.00    +0.000 OA
BRANCH  15  18
ATOM     18  C   UNL     1      -0.358   9.972  22.919  0.00  0.00    +0.000 C 
ATOM     19  F   UNL     1      -0.983  11.074  23.417  0.00  0.00    +0.000 F 
ATOM     20  F   UNL     1      -1.260   8.958  23.021  0.00  0.00    +0.000 F 
ATOM     21  F   UNL     1       0.638   9.680  23.800  0.00  0.00    +0.000 F 
ENDBRANCH  15  18
ENDBRANCH   3   8
BRANCH   1  22
ATOM     22  C   UNL     1       5.206   3.852  18.491  0.00  0.00    +0.000 C 
BRANCH  22  27
ATOM     23  N   UNL     1       6.781   5.665  17.565  0.00  0.00    +0.000 N 
ATOM     24  C   UNL     1       7.781   6.418  18.114  0.00  0.00    +0.000 A 
ATOM     25  N   UNL     1       7.907   6.127  19.384  0.00  0.00    +0.000 NA
ATOM     26  N   UNL     1       6.971   5.167  19.685  0.00  0.00    +0.000 NA
ATOM     27  C   UNL     1       6.287   4.886  18.588  0.00  0.00    +0.000 A 
BRANCH  23  29
ATOM     28  C   UNL     1       5.061   6.535  16.010  0.00  0.00    +0.000 C 
ATOM     29  C   UNL     1       6.356   5.765  16.191  0.00  0.00    +0.000 C 
ENDBRANCH  23  29
ENDBRANCH  22  27
ENDBRANCH   1  22
TORSDOF 5
ENDMDL
MODEL 3
REMARK VINA RESULT:      -9.2      1.944      2.659
REMARK  Name = 
REMARK  6 active torsions:
REMARK  status: ('A' for Active; 'I' for Inactive)
REMARK    1  A    between atoms: C_1  and  C_2
REMARK    2  A    between atoms: C_2  and  N_3
REMARK    3  A    between atoms: C_7  and  C_8
REMARK    4  A    between atoms: C_8  and  C_9
REMARK    5  A    between atoms: C_11  and  N_12
REMARK    6  A    between atoms: C_19  and  C_20
REMARK                            x       y       z     vdW  Elec       q    Type
REMARK                         _______ _______ _______ _____ _____    ______ ____
ROOT
ATOM      1  C   UNL     1       4.259   5.492  17.470  0.00  0.00    +0.000 A 
ATOM      2  C   UNL     1       3.735   6.699  17.975  0.00  0.00    +0.000 A 
ATOM      3  C   UNL     1       2.394   6.804  18.387  0.00  0.00    +0.000 A 
ATOM      4  C   UNL     1       1.564   5.683  18.245  0.00  0.00    +0.000 A 
ATOM      5  C   UNL     1       2.087   4.467  17.807  0.00  0.00    +0.000 A 
ATOM      6  C   UNL     1       3.425   4.378  17.450  0.00  0.00    +0.000 A 
ATOM      7  F   UNL     1       3.908   3.179  17.101  0.00  0.00    +0.000 F 
ENDROOT
BRANCH   3   8
ATOM      8  N   UNL     1       1.882   8.011  18.926  0.00  0.00    +0.000 N 
ATOM      9  C   UNL     1       1.342   8.110  20.274  0.00  0.00    +0.000 C 
ATOM     10  C   UNL     1       0.853   9.524  20.352  0.00  0.00    +0.000 A 
ATOM     11  C   UNL     1       1.161  10.180  19.161  0.00  0.00    +0.000 A 
ATOM     12  C   UNL     1       0.843  11.506  18.927  0.00  0.00    +0.000 A 
ATOM     13  C   UNL     1       0.168  12.192  19.934  0.00  0.00    +0.000 A 
ATOM     14  C   UNL     1      -0.156  11.546  21.141  0.00  0.00    +0.000 A 
ATOM     15  C   UNL     1       0.189  10.198  21.375  0.00  0.00    +0.000 A 
ATOM     16  C   UNL     1       1.831   9.237  18.260  0.00  0.00    +0.000 C 
ATOM     17  O   UNL     1       2.260   9.565  17.169  0.00  0.00    +0.000 OA
BRANCH  15  18
ATOM     18  C   UNL     1      -0.167   9.553  22.688  0.00  0.00    +0.000 C 
ATOM     19  F   UNL     1      -0.945  10.335  23.487  0.00  0.00    +0.000 F 
ATOM     20  F   UNL     1      -0.857   8.391  22.525  0.00  0.00    +0.000 F 
ATOM     21  F   UNL     1       0.930   9.238  23.429  0.00  0.00    +0.000 F 
ENDBRANCH  15  18
ENDBRANCH   3   8
BRANCH   1  22
ATOM     22  C   UNL     1       5.668   5.416  16.928  0.00  0.00    +0.000 C 
BRANCH  22  27
ATOM     23  N   UNL     1       7.534   6.726  18.125  0.00  0.00    +0.000 N 
ATOM     24  C   UNL     1       8.367   6.442  19.170  0.00  0.00    +0.000 A 
ATOM     25  N   UNL     1       8.104   5.245  19.633  0.00  0.00    +0.000 NA
ATOM     26  N   UNL     1       7.074   4.728  18.884  0.00  0.00    +0.000 NA
ATOM     27  C   UNL     1       6.725   5.621  17.972  0.00  0.00    +0.000 A 
BRANCH  23  29
ATOM     28  C   UNL     1       8.331   9.070  18.096  0.00  0.00    +0.000 C 
ATOM     29  C   UNL     1       7.531   7.979  17.411  0.00  0.00    +0.000 C 
ENDBRANCH  23  29
ENDBRANCH  22  27
ENDBRANCH   1  22
TORSDOF 5
ENDMDL
MODEL 4
REMARK VINA RESULT:      -9.2      1.143      1.830
REMARK  Name = 
REMARK  6 active torsions:
REMARK  status: ('A' for Active; 'I' for Inactive)
REMARK    1  A    between atoms: C_1  and  C_2
REMARK    2  A    between atoms: C_2  and  N_3
REMARK    3  A    between atoms: C_7  and  C_8
REMARK    4  A    between atoms: C_8  and  C_9
REMARK    5  A    between atoms: C_11  and  N_12
REMARK    6  A    between atoms: C_19  and  C_20
REMARK                            x       y       z     vdW  Elec       q    Type
REMARK                         _______ _______ _______ _____ _____    ______ ____
ROOT
ATOM      1  C   UNL     1       4.465   4.521  19.164  0.00  0.00    +0.000 A 
ATOM      2  C   UNL     1       3.874   5.797  19.256  0.00  0.00    +0.000 A 
ATOM      3  C   UNL     1       2.559   5.967  19.730  0.00  0.00    +0.000 A 
ATOM      4  C   UNL     1       1.823   4.825  20.073  0.00  0.00    +0.000 A 
ATOM      5  C   UNL     1       2.418   3.564  20.046  0.00  0.00    +0.000 A 
ATOM      6  C   UNL     1       3.731   3.429  19.619  0.00  0.00    +0.000 A 
ATOM      7  F   UNL     1       4.291   2.214  19.673  0.00  0.00    +0.000 F 
ENDROOT
BRANCH   3   8
ATOM      8  N   UNL     1       1.982   7.256  19.852  0.00  0.00    +0.000 N 
ATOM      9  C   UNL     1       1.358   7.731  21.079  0.00  0.00    +0.000 C 
ATOM     10  C   UNL     1       0.827   9.080  20.702  0.00  0.00    +0.000 A 
ATOM     11  C   UNL     1       1.189   9.362  19.385  0.00  0.00    +0.000 A 
ATOM     12  C   UNL     1       0.850  10.540  18.746  0.00  0.00    +0.000 A 
ATOM     13  C   UNL     1       0.096  11.466  19.463  0.00  0.00    +0.000 A 
ATOM     14  C   UNL     1      -0.283  11.198  20.791  0.00  0.00    +0.000 A 
ATOM     15  C   UNL     1       0.084   9.999  21.438  0.00  0.00    +0.000 A 
ATOM     16  C   UNL     1       1.939   8.222  18.846  0.00  0.00    +0.000 C 
ATOM     17  O   UNL     1       2.424   8.226  17.729  0.00  0.00    +0.000 OA
BRANCH  15  18
ATOM     18  C   UNL     1      -0.334   9.763  22.866  0.00  0.00    +0.000 C 
ATOM     19  F   UNL     1      -1.029  10.799  23.410  0.00  0.00    +0.000 F 
ATOM     20  F   UNL     1      -1.135   8.671  22.998  0.00  0.00    +0.000 F 
ATOM     21  F   UNL     1       0.727   9.552  23.691  0.00  0.00    +0.000 F 
ENDBRANCH  15  18
ENDBRANCH   3   8
BRANCH   1  22
ATOM     22  C   UNL     1       5.835   4.334  18.553  0.00  0.00    +0.000 C 
BRANCH  22  27
ATOM     23  N   UNL     1       5.990   5.752  16.409  0.00  0.00    +0.000 N 
ATOM     24  C   UNL     1       5.919   5.460  15.076  0.00  0.00    +0.000 A 
ATOM     25  N   UNL     1       5.754   4.170  14.914  0.00  0.00    +0.000 NA
ATOM     26  N   UNL     1       5.721   3.597  16.162  0.00  0.00    +0.000 NA
ATOM     27  C   UNL     1       5.865   4.549  17.069  0.00  0.00    +0.000 A 
BRANCH  23  29
ATOM     28  C   UNL     1       7.601   7.287  17.497  0.00  0.00    +0.000 C 
ATOM     29  C   UNL     1       6.208   7.076  16.935  0.00  0.00    +0.000 C 
ENDBRANCH  23  29
ENDBRANCH  22  27
ENDBRANCH   1  22
TORSDOF 5
ENDMDL
MODEL 5
REMARK VINA RESULT:      -9.2      1.444      1.864
REMARK  Name = 
REMARK  6 active torsions:
REMARK  status: ('A' for Active; 'I' for Inactive)
REMARK    1  A    between atoms: C_1  and  C_2
REMARK    2  A    between atoms: C_2  and  N_3
REMARK    3  A    between atoms: C_7  and  C_8
REMARK    4  A    between atoms: C_8  and  C_9
REMARK    5  A    between atoms: C_11  and  N_12
REMARK    6  A    between atoms: C_19  and  C_20
REMARK                            x       y       z     vdW  Elec       q    Type
REMARK                         _______ _______ _______ _____ _____    ______ ____
ROOT
ATOM      1  C   UNL     1       3.977   4.477  18.786  0.00  0.00    +0.000 A 
ATOM      2  C   UNL     1       3.560   5.773  19.145  0.00  0.00    +0.000 A 
ATOM      3  C   UNL     1       2.285   6.259  18.797  0.00  0.00    +0.000 A 
ATOM      4  C   UNL     1       1.442   5.435  18.040  0.00  0.00    +0.000 A 
ATOM      5  C   UNL     1       1.819   4.128  17.733  0.00  0.00    +0.000 A 
ATOM      6  C   UNL     1       3.064   3.657  18.128  0.00  0.00    +0.000 A 
ATOM      7  F   UNL     1       3.363   2.376  17.877  0.00  0.00    +0.000 F 
ENDROOT
BRANCH   3   8
ATOM      8  N   UNL     1       1.858   7.553  19.191  0.00  0.00    +0.000 N 
ATOM      9  C   UNL     1       1.310   7.838  20.510  0.00  0.00    +0.000 C 
ATOM     10  C   UNL     1       0.928   9.284  20.424  0.00  0.00    +0.000 A 
ATOM     11  C   UNL     1       1.299   9.782  19.176  0.00  0.00    +0.000 A 
ATOM     12  C   UNL     1       1.085  11.093  18.793  0.00  0.00    +0.000 A 
ATOM     13  C   UNL     1       0.451  11.933  19.705  0.00  0.00    +0.000 A 
ATOM     14  C   UNL     1       0.064  11.449  20.969  0.00  0.00    +0.000 A 
ATOM     15  C   UNL     1       0.304  10.113  21.354  0.00  0.00    +0.000 A 
ATOM     16  C   UNL     1       1.908   8.698  18.396  0.00  0.00    +0.000 C 
ATOM     17  O   UNL     1       2.375   8.873  17.285  0.00  0.00    +0.000 OA
BRANCH  15  18
ATOM     18  C   UNL     1      -0.117   9.643  22.722  0.00  0.00    +0.000 C 
ATOM     19  F   UNL     1      -0.922   8.546  22.699  0.00  0.00    +0.000 F 
ATOM     20  F   UNL     1       0.946   9.306  23.503  0.00  0.00    +0.000 F 
ATOM     21  F   UNL     1      -0.803  10.595  23.411  0.00  0.00    +0.000 F 
ENDBRANCH  15  18
ENDBRANCH   3   8
BRANCH   1  22
ATOM     22  C   UNL     1       5.384   4.000  19.066  0.00  0.00    +0.000 C 
BRANCH  22  27
ATOM     23  N   UNL     1       6.760   5.619  17.612  0.00  0.00    +0.000 N 
ATOM     24  C   UNL     1       7.796   6.472  17.869  0.00  0.00    +0.000 A 
ATOM     25  N   UNL     1       8.098   6.429  19.143  0.00  0.00    +0.000 NA
ATOM     26  N   UNL     1       7.244   5.535  19.741  0.00  0.00    +0.000 NA
ATOM     27  C   UNL     1       6.432   5.044  18.820  0.00  0.00    +0.000 A 
BRANCH  23  29
ATOM     28  C   UNL     1       5.127   6.518  15.981  0.00  0.00    +0.000 C 
ATOM     29  C   UNL     1       6.154   5.452  16.314  0.00  0.00    +0.000 C 
ENDBRANCH  23  29
ENDBRANCH  22  27
ENDBRANCH   1  22
TORSDOF 5
ENDMDL
MODEL 6
REMARK VINA RESULT:      -9.1      1.013      1.152
REMARK  Name = 
REMARK  6 active torsions:
REMARK  status: ('A' for Active; 'I' for Inactive)
REMARK    1  A    between atoms: C_1  and  C_2
REMARK    2  A    between atoms: C_2  and  N_3
REMARK    3  A    between atoms: C_7  and  C_8
REMARK    4  A    between atoms: C_8  and  C_9
REMARK    5  A    between atoms: C_11  and  N_12
REMARK    6  A    between atoms: C_19  and  C_20
REMARK                            x       y       z     vdW  Elec       q    Type
REMARK                         _______ _______ _______ _____ _____    ______ ____
ROOT
ATOM      1  C   UNL     1       4.578   4.421  19.349  0.00  0.00    +0.000 A 
ATOM      2  C   UNL     1       4.013   5.709  19.424  0.00  0.00    +0.000 A 
ATOM      3  C   UNL     1       2.639   5.897  19.665  0.00  0.00    +0.000 A 
ATOM      4  C   UNL     1       1.823   4.765  19.787  0.00  0.00    +0.000 A 
ATOM      5  C   UNL     1       2.381   3.486  19.777  0.00  0.00    +0.000 A 
ATOM      6  C   UNL     1       3.747   3.329  19.584  0.00  0.00    +0.000 A 
ATOM      7  F   UNL     1       4.256   2.093  19.651  0.00  0.00    +0.000 F 
ENDROOT
BRANCH   3   8
ATOM      8  N   UNL     1       2.083   7.197  19.774  0.00  0.00    +0.000 N 
ATOM      9  C   UNL     1       1.429   7.680  20.982  0.00  0.00    +0.000 C 
ATOM     10  C   UNL     1       0.936   9.039  20.593  0.00  0.00    +0.000 A 
ATOM     11  C   UNL     1       1.345   9.319  19.290  0.00  0.00    +0.000 A 
ATOM     12  C   UNL     1       1.048  10.505  18.645  0.00  0.00    +0.000 A 
ATOM     13  C   UNL     1       0.290  11.442  19.341  0.00  0.00    +0.000 A 
ATOM     14  C   UNL     1      -0.137  11.178  20.655  0.00  0.00    +0.000 A 
ATOM     15  C   UNL     1       0.187   9.970  21.309  0.00  0.00    +0.000 A 
ATOM     16  C   UNL     1       2.090   8.167  18.770  0.00  0.00    +0.000 C 
ATOM     17  O   UNL     1       2.611   8.166  17.670  0.00  0.00    +0.000 OA
BRANCH  15  18
ATOM     18  C   UNL     1      -0.281   9.737  22.722  0.00  0.00    +0.000 C 
ATOM     19  F   UNL     1      -1.091   8.651  22.857  0.00  0.00    +0.000 F 
ATOM     20  F   UNL     1       0.752   9.536  23.584  0.00  0.00    +0.000 F 
ATOM     21  F   UNL     1      -0.985  10.791  23.218  0.00  0.00    +0.000 F 
ENDBRANCH  15  18
ENDBRANCH   3   8
BRANCH   1  22
ATOM     22  C   UNL     1       6.031   4.222  18.982  0.00  0.00    +0.000 C 
BRANCH  22  27
ATOM     23  N   UNL     1       6.371   4.965  16.541  0.00  0.00    +0.000 N 
ATOM     24  C   UNL     1       6.998   6.029  15.956  0.00  0.00    +0.000 A 
ATOM     25  N   UNL     1       7.498   6.811  16.880  0.00  0.00    +0.000 NA
ATOM     26  N   UNL     1       7.192   6.259  18.100  0.00  0.00    +0.000 NA
ATOM     27  C   UNL     1       6.509   5.143  17.900  0.00  0.00    +0.000 A 
BRANCH  23  29
ATOM     28  C   UNL     1       6.135   3.799  14.369  0.00  0.00    +0.000 C 
ATOM     29  C   UNL     1       5.679   3.933  15.810  0.00  0.00    +0.000 C 
ENDBRANCH  23  29
ENDBRANCH  22  27
ENDBRANCH   1  22
TORSDOF 5
ENDMDL
MODEL 7
REMARK VINA RESULT:      -9.0      1.018      1.878
REMARK  Name = 
REMARK  6 active torsions:
REMARK  status: ('A' for Active; 'I' for Inactive)
REMARK    1  A    between atoms: C_1  and  C_2
REMARK    2  A    between atoms: C_2  and  N_3
REMARK    3  A    between atoms: C_7  and  C_8
REMARK    4  A    between atoms: C_8  and  C_9
REMARK    5  A    between atoms: C_11  and  N_12
REMARK    6  A    between atoms: C_19  and  C_20
REMARK                            x       y       z     vdW  Elec       q    Type
REMARK                         _______ _______ _______ _____ _____    ______ ____
ROOT
ATOM      1  C   UNL     1       3.875   3.874  18.500  0.00  0.00    +0.000 A 
ATOM      2  C   UNL     1       3.372   5.188  18.560  0.00  0.00    +0.000 A 
ATOM      3  C   UNL     1       2.612   5.636  19.656  0.00  0.00    +0.000 A 
ATOM      4  C   UNL     1       2.323   4.726  20.682  0.00  0.00    +0.000 A 
ATOM      5  C   UNL     1       2.867   3.442  20.664  0.00  0.00    +0.000 A 
ATOM      6  C   UNL     1       3.653   3.040  19.593  0.00  0.00    +0.000 A 
ATOM      7  F   UNL     1       4.216   1.826  19.642  0.00  0.00    +0.000 F 
ENDROOT
BRANCH   3   8
ATOM      8  N   UNL     1       2.138   6.971  19.727  0.00  0.00    +0.000 N 
ATOM      9  C   UNL     1       1.473   7.514  20.903  0.00  0.00    +0.000 C 
ATOM     10  C   UNL     1       1.084   8.896  20.478  0.00  0.00    +0.000 A 
ATOM     11  C   UNL     1       1.558   9.128  19.187  0.00  0.00    +0.000 A 
ATOM     12  C   UNL     1       1.363  10.321  18.516  0.00  0.00    +0.000 A 
ATOM     13  C   UNL     1       0.642  11.316  19.170  0.00  0.00    +0.000 A 
ATOM     14  C   UNL     1       0.152  11.101  20.471  0.00  0.00    +0.000 A 
ATOM     15  C   UNL     1       0.372   9.885  21.153  0.00  0.00    +0.000 A 
ATOM     16  C   UNL     1       2.244   7.922  18.712  0.00  0.00    +0.000 C 
ATOM     17  O   UNL     1       2.804   7.870  17.631  0.00  0.00    +0.000 OA
BRANCH  15  18
ATOM     18  C   UNL     1      -0.162   9.705  22.550  0.00  0.00    +0.000 C 
ATOM     19  F   UNL     1      -0.869  10.775  23.006  0.00  0.00    +0.000 F 
ATOM     20  F   UNL     1      -1.000   8.638  22.651  0.00  0.00    +0.000 F 
ATOM     21  F   UNL     1       0.826   9.495  23.462  0.00  0.00    +0.000 F 
ENDBRANCH  15  18
ENDBRANCH   3   8
BRANCH   1  22
ATOM     22  C   UNL     1       4.597   3.366  17.273  0.00  0.00    +0.000 C 
BRANCH  22  27
ATOM     23  N   UNL     1       6.567   4.996  16.968  0.00  0.00    +0.000 N 
ATOM     24  C   UNL     1       6.877   5.937  16.026  0.00  0.00    +0.000 A 
ATOM     25  N   UNL     1       5.952   5.957  15.099  0.00  0.00    +0.000 NA
ATOM     26  N   UNL     1       5.014   5.010  15.429  0.00  0.00    +0.000 NA
ATOM     27  C   UNL     1       5.382   4.425  16.557  0.00  0.00    +0.000 A 
BRANCH  23  29
ATOM     28  C   UNL     1       7.146   5.587  19.301  0.00  0.00    +0.000 C 
ATOM     29  C   UNL     1       7.396   4.688  18.106  0.00  0.00    +0.000 C 
ENDBRANCH  23  29
ENDBRANCH  22  27
ENDBRANCH   1  22
TORSDOF 5
ENDMDL
MODEL 8
REMARK VINA RESULT:      -8.8      2.621      3.865
REMARK  Name = 
REMARK  6 active torsions:
REMARK  status: ('A' for Active; 'I' for Inactive)
REMARK    1  A    between atoms: C_1  and  C_2
REMARK    2  A    between atoms: C_2  and  N_3
REMARK    3  A    between atoms: C_7  and  C_8
REMARK    4  A    between atoms: C_8  and  C_9
REMARK    5  A    between atoms: C_11  and  N_12
REMARK    6  A    between atoms: C_19  and  C_20
REMARK                            x       y       z     vdW  Elec       q    Type
REMARK                         _______ _______ _______ _____ _____    ______ ____
ROOT
ATOM      1  C   UNL     1       2.713   4.896  17.935  0.00  0.00    +0.000 A 
ATOM      2  C   UNL     1       2.078   6.015  18.510  0.00  0.00    +0.000 A 
ATOM      3  C   UNL     1       2.616   7.310  18.387  0.00  0.00    +0.000 A 
ATOM      4  C   UNL     1       3.833   7.464  17.710  0.00  0.00    +0.000 A 
ATOM      5  C   UNL     1       4.437   6.374  17.083  0.00  0.00    +0.000 A 
ATOM      6  C   UNL     1       3.862   5.115  17.180  0.00  0.00    +0.000 A 
ATOM      7  F   UNL     1       4.432   4.107  16.508  0.00  0.00    +0.000 F 
ENDROOT
BRANCH   3   8
ATOM      8  N   UNL     1       1.954   8.436  18.938  0.00  0.00    +0.000 N 
ATOM      9  C   UNL     1       1.382   8.442  20.277  0.00  0.00    +0.000 C 
ATOM     10  C   UNL     1       0.728   9.786  20.372  0.00  0.00    +0.000 A 
ATOM     11  C   UNL     1       0.977  10.500  19.201  0.00  0.00    +0.000 A 
ATOM     12  C   UNL     1       0.509  11.783  18.986  0.00  0.00    +0.000 A 
ATOM     13  C   UNL     1      -0.261  12.363  19.991  0.00  0.00    +0.000 A 
ATOM     14  C   UNL     1      -0.528  11.658  21.179  0.00  0.00    +0.000 A 
ATOM     15  C   UNL     1      -0.029  10.355  21.394  0.00  0.00    +0.000 A 
ATOM     16  C   UNL     1       1.771   9.661  18.295  0.00  0.00    +0.000 C 
ATOM     17  O   UNL     1       2.177  10.062  17.219  0.00  0.00    +0.000 OA
BRANCH  15  18
ATOM     18  C   UNL     1      -0.330   9.644  22.687  0.00  0.00    +0.000 C 
ATOM     19  F   UNL     1      -1.151  10.345  23.517  0.00  0.00    +0.000 F 
ATOM     20  F   UNL     1      -0.942   8.445  22.489  0.00  0.00    +0.000 F 
ATOM     21  F   UNL     1       0.792   9.379  23.409  0.00  0.00    +0.000 F 
ENDBRANCH  15  18
ENDBRANCH   3   8
BRANCH   1  22
ATOM     22  C   UNL     1       2.190   3.496  18.162  0.00  0.00    +0.000 C 
BRANCH  22  27
ATOM     23  N   UNL     1       3.013   2.629  20.443  0.00  0.00    +0.000 N 
ATOM     24  C   UNL     1       2.406   2.417  21.648  0.00  0.00    +0.000 A 
ATOM     25  N   UNL     1       1.144   2.762  21.574  0.00  0.00    +0.000 NA
ATOM     26  N   UNL     1       0.912   3.215  20.299  0.00  0.00    +0.000 NA
ATOM     27  C   UNL     1       2.040   3.139  19.611  0.00  0.00    +0.000 A 
BRANCH  23  29
ATOM     28  C   UNL     1       4.681   1.128  19.394  0.00  0.00    +0.000 C 
ATOM     29  C   UNL     1       4.412   2.391  20.191  0.00  0.00    +0.000 C 
ENDBRANCH  23  29
ENDBRANCH  22  27
ENDBRANCH   1  22
TORSDOF 5
ENDMDL
MODEL 9
REMARK VINA RESULT:      -8.8      2.197      3.675
REMARK  Name = 
REMARK  6 active torsions:
REMARK  status: ('A' for Active; 'I' for Inactive)
REMARK    1  A    between atoms: C_1  and  C_2
REMARK    2  A    between atoms: C_2  and  N_3
REMARK    3  A    between atoms: C_7  and  C_8
REMARK    4  A    between atoms: C_8  and  C_9
REMARK    5  A    between atoms: C_11  and  N_12
REMARK    6  A    between atoms: C_19  and  C_20
REMARK                            x       y       z     vdW  Elec       q    Type
REMARK                         _______ _______ _______ _____ _____    ______ ____
ROOT
ATOM      1  C   UNL     1       3.245   5.049  17.645  0.00  0.00    +0.000 A 
ATOM      2  C   UNL     1       2.490   6.075  18.247  0.00  0.00    +0.000 A 
ATOM      3  C   UNL     1       2.900   7.420  18.189  0.00  0.00    +0.000 A 
ATOM      4  C   UNL     1       4.110   7.721  17.550  0.00  0.00    +0.000 A 
ATOM      5  C   UNL     1       4.833   6.723  16.897  0.00  0.00    +0.000 A 
ATOM      6  C   UNL     1       4.383   5.410  16.930  0.00  0.00    +0.000 A 
ATOM      7  F   UNL     1       5.064   4.491  16.233  0.00  0.00    +0.000 F 
ENDROOT
BRANCH   3   8
ATOM      8  N   UNL     1       2.118   8.453  18.767  0.00  0.00    +0.000 N 
ATOM      9  C   UNL     1       1.524   8.349  20.092  0.00  0.00    +0.000 C 
ATOM     10  C   UNL     1       0.736   9.616  20.222  0.00  0.00    +0.000 A 
ATOM     11  C   UNL     1       0.934  10.396  19.084  0.00  0.00    +0.000 A 
ATOM     12  C   UNL     1       0.343  11.634  18.906  0.00  0.00    +0.000 A 
ATOM     13  C   UNL     1      -0.500  12.094  19.915  0.00  0.00    +0.000 A 
ATOM     14  C   UNL     1      -0.716  11.319  21.070  0.00  0.00    +0.000 A 
ATOM     15  C   UNL     1      -0.094  10.065  21.247  0.00  0.00    +0.000 A 
ATOM     16  C   UNL     1       1.825   9.677  18.166  0.00  0.00    +0.000 C 
ATOM     17  O   UNL     1       2.209  10.158  17.115  0.00  0.00    +0.000 OA
BRANCH  15  18
ATOM     18  C   UNL     1      -0.346   9.278  22.506  0.00  0.00    +0.000 C 
ATOM     19  F   UNL     1      -0.924   8.065  22.285  0.00  0.00    +0.000 F 
ATOM     20  F   UNL     1       0.800   9.021  23.195  0.00  0.00    +0.000 F 
ATOM     21  F   UNL     1      -1.168   9.930  23.372  0.00  0.00    +0.000 F 
ENDBRANCH  15  18
ENDBRANCH   3   8
BRANCH   1  22
ATOM     22  C   UNL     1       2.859   3.596  17.804  0.00  0.00    +0.000 C 
BRANCH  22  27
ATOM     23  N   UNL     1       2.782   2.620  20.185  0.00  0.00    +0.000 N 
ATOM     24  C   UNL     1       3.727   2.100  21.024  0.00  0.00    +0.000 A 
ATOM     25  N   UNL     1       4.896   2.109  20.433  0.00  0.00    +0.000 NA
ATOM     26  N   UNL     1       4.722   2.639  19.178  0.00  0.00    +0.000 NA
ATOM     27  C   UNL     1       3.444   2.948  19.023  0.00  0.00    +0.000 A 
BRANCH  23  29
ATOM     28  C   UNL     1       0.898   4.147  20.688  0.00  0.00    +0.000 C 
ATOM     29  C   UNL     1       1.381   2.720  20.510  0.00  0.00    +0.000 C 
ENDBRANCH  23  29
ENDBRANCH  22  27
ENDBRANCH   1  22
TORSDOF 5
ENDMDL
