MODEL 1
REMARK VINA RESULT:      -8.6      0.000      0.000
REMARK  Name = 
REMARK  5 active torsions:
REMARK  status: ('A' for Active; 'I' for Inactive)
REMARK    1  A    between atoms: C_1  and  C_2
REMARK    2  A    between atoms: C_2  and  N_3
REMARK    3  A    between atoms: C_2  and  C_19
REMARK    4  A    between atoms: C_4  and  C_6
REMARK    5  A    between atoms: N_8  and  C_9
REMARK                            x       y       z     vdW  Elec       q    Type
REMARK                         _______ _______ _______ _____ _____    ______ ____
ROOT
ATOM      1  N   UNL     1       4.613   5.392  19.111  0.00  0.00    +0.000 N 
ATOM      2  C   UNL     1       3.575   4.742  19.743  0.00  0.00    +0.000 C 
ATOM      3  O   UNL     1       3.529   3.561  20.055  0.00  0.00    +0.000 OA
ATOM      4  H   UNL     1       4.521   6.406  19.035  0.00  0.00    +0.000 HD
ENDROOT
BRANCH   2   5
ATOM      5  C   UNL     1       2.395   5.682  20.068  0.00  0.00    +0.000 C 
ATOM      6  O   UNL     1       1.327   5.168  20.378  0.00  0.00    +0.000 OA
ATOM      7  N   UNL     1       2.679   7.030  19.922  0.00  0.00    +0.000 N 
ATOM      8  H   UNL     1       3.595   7.252  19.540  0.00  0.00    +0.000 HD
BRANCH   7   9
ATOM      9  C   UNL     1       1.753   8.073  20.143  0.00  0.00    +0.000 A 
ATOM     10  C   UNL     1       1.380   8.993  19.169  0.00  0.00    +0.000 A 
ATOM     11  N   UNL     1       0.527  10.028  19.366  0.00  0.00    +0.000 NA
ATOM     12  C   UNL     1       0.020  10.194  20.591  0.00  0.00    +0.000 A 
ATOM     13  C   UNL     1      -0.813  11.279  20.822  0.00  0.00    +0.000 A 
ATOM     14  C   UNL     1      -1.357  11.533  22.082  0.00  0.00    +0.000 A 
ATOM     15  C   UNL     1      -1.074  10.674  23.138  0.00  0.00    +0.000 A 
ATOM     16  C   UNL     1      -0.251   9.564  22.927  0.00  0.00    +0.000 A 
ATOM     17  C   UNL     1       0.308   9.315  21.658  0.00  0.00    +0.000 A 
ATOM     18  C   UNL     1       1.171   8.226  21.402  0.00  0.00    +0.000 A 
ENDBRANCH   7   9
ENDBRANCH   2   5
BRANCH   1  20
ATOM     19  C   UNL     1       7.050   5.573  19.380  0.00  0.00    +0.000 C 
ATOM     20  C   UNL     1       5.884   4.777  18.790  0.00  0.00    +0.000 C 
BRANCH  20  21
ATOM     21  C   UNL     1       6.091   4.599  17.295  0.00  0.00    +0.000 A 
ATOM     22  C   UNL     1       7.106   5.324  16.647  0.00  0.00    +0.000 A 
ATOM     23  C   UNL     1       7.271   5.242  15.262  0.00  0.00    +0.000 A 
ATOM     24  C   UNL     1       6.421   4.434  14.516  0.00  0.00    +0.000 A 
ATOM     25  F   UNL     1       6.574   4.370  13.187  0.00  0.00    +0.000 F 
ATOM     26  C   UNL     1       5.413   3.703  15.126  0.00  0.00    +0.000 A 
ATOM     27  C   UNL     1       5.252   3.797  16.506  0.00  0.00    +0.000 A 
ATOM     28  F   UNL     1       4.255   3.105  17.077  0.00  0.00    +0.000 F 
ENDBRANCH  20  21
ENDBRANCH   1  20
TORSDOF 4
ENDMDL
MODEL 2
REMARK VINA RESULT:      -8.3      5.749      8.010
REMARK  Name = 
REMARK  5 active torsions:
REMARK  status: ('A' for Active; 'I' for Inactive)
REMARK    1  A    between atoms: C_1  and  C_2
REMARK    2  A    between atoms: C_2  and  N_3
REMARK    3  A    between atoms: C_2  and  C_19
REMARK    4  A    between atoms: C_4  and  C_6
REMARK    5  A    between atoms: N_8  and  C_9
REMARK                            x       y       z     vdW  Elec       q    Type
REMARK                         _______ _______ _______ _____ _____    ______ ____
ROOT
ATOM      1  N   UNL     1       6.924   6.595  17.227  0.00  0.00    +0.000 N 
ATOM      2  C   UNL     1       7.770   7.009  18.233  0.00  0.00    +0.000 C 
ATOM      3  O   UNL     1       8.227   6.322  19.136  0.00  0.00    +0.000 OA
ATOM      4  H   UNL     1       6.739   7.282  16.494  0.00  0.00    +0.000 HD
ENDROOT
BRANCH   2   5
ATOM      5  C   UNL     1       8.141   8.503  18.123  0.00  0.00    +0.000 C 
ATOM      6  O   UNL     1       7.730   9.120  17.148  0.00  0.00    +0.000 OA
ATOM      7  N   UNL     1       8.953   8.969  19.144  0.00  0.00    +0.000 N 
ATOM      8  H   UNL     1       9.285   8.268  19.803  0.00  0.00    +0.000 HD
BRANCH   7   9
ATOM      9  C   UNL     1       9.436  10.292  19.244  0.00  0.00    +0.000 A 
ATOM     10  C   UNL     1       9.374  11.049  20.410  0.00  0.00    +0.000 A 
ATOM     11  N   UNL     1       9.791  12.334  20.522  0.00  0.00    +0.000 NA
ATOM     12  C   UNL     1      10.279  12.929  19.430  0.00  0.00    +0.000 A 
ATOM     13  C   UNL     1      10.661  14.260  19.516  0.00  0.00    +0.000 A 
ATOM     14  C   UNL     1      11.154  14.956  18.411  0.00  0.00    +0.000 A 
ATOM     15  C   UNL     1      11.282  14.304  17.190  0.00  0.00    +0.000 A 
ATOM     16  C   UNL     1      10.920  12.958  17.081  0.00  0.00    +0.000 A 
ATOM     17  C   UNL     1      10.411  12.260  18.194  0.00  0.00    +0.000 A 
ATOM     18  C   UNL     1      10.001  10.909  18.128  0.00  0.00    +0.000 A 
ENDBRANCH   7   9
ENDBRANCH   2   5
BRANCH   1  20
ATOM     19  C   UNL     1       6.500   4.858  15.540  0.00  0.00    +0.000 C 
ATOM     20  C   UNL     1       6.506   5.224  17.026  0.00  0.00    +0.000 C 
BRANCH  20  21
ATOM     21  C   UNL     1       5.143   4.930  17.631  0.00  0.00    +0.000 A 
ATOM     22  C   UNL     1       4.958   3.753  18.376  0.00  0.00    +0.000 A 
ATOM     23  C   UNL     1       3.698   3.415  18.878  0.00  0.00    +0.000 A 
ATOM     24  C   UNL     1       2.616   4.254  18.640  0.00  0.00    +0.000 A 
ATOM     25  F   UNL     1       1.408   3.919  19.111  0.00  0.00    +0.000 F 
ATOM     26  C   UNL     1       2.767   5.425  17.912  0.00  0.00    +0.000 A 
ATOM     27  C   UNL     1       4.024   5.749  17.409  0.00  0.00    +0.000 A 
ATOM     28  F   UNL     1       4.148   6.870  16.685  0.00  0.00    +0.000 F 
ENDBRANCH  20  21
ENDBRANCH   1  20
TORSDOF 4
ENDMDL
MODEL 3
REMARK VINA RESULT:      -8.2      5.256      8.063
REMARK  Name = 
REMARK  5 active torsions:
REMARK  status: ('A' for Active; 'I' for Inactive)
REMARK    1  A    between atoms: C_1  and  C_2
REMARK    2  A    between atoms: C_2  and  N_3
REMARK    3  A    between atoms: C_2  and  C_19
REMARK    4  A    between atoms: C_4  and  C_6
REMARK    5  A    between atoms: N_8  and  C_9
REMARK                            x       y       z     vdW  Elec       q    Type
REMARK                         _______ _______ _______ _____ _____    ______ ____
ROOT
ATOM      1  N   UNL     1       5.310   7.180  17.893  0.00  0.00    +0.000 N 
ATOM      2  C   UNL     1       6.497   7.100  17.196  0.00  0.00    +0.000 C 
ATOM      3  O   UNL     1       6.669   6.596  16.095  0.00  0.00    +0.000 OA
ATOM      4  H   UNL     1       5.335   7.738  18.747  0.00  0.00    +0.000 HD
ENDROOT
BRANCH   2   5
ATOM      5  C   UNL     1       7.674   7.753  17.950  0.00  0.00    +0.000 C 
ATOM      6  O   UNL     1       8.356   7.035  18.670  0.00  0.00    +0.000 OA
ATOM      7  N   UNL     1       7.794   9.119  17.753  0.00  0.00    +0.000 N 
ATOM      8  H   UNL     1       7.055   9.556  17.208  0.00  0.00    +0.000 HD
BRANCH   7   9
ATOM      9  C   UNL     1       8.780   9.932  18.353  0.00  0.00    +0.000 A 
ATOM     10  C   UNL     1       8.983  10.012  19.727  0.00  0.00    +0.000 A 
ATOM     11  N   UNL     1       9.893  10.815  20.330  0.00  0.00    +0.000 NA
ATOM     12  C   UNL     1      10.639  11.606  19.554  0.00  0.00    +0.000 A 
ATOM     13  C   UNL     1      11.539  12.472  20.160  0.00  0.00    +0.000 A 
ATOM     14  C   UNL     1      12.332  13.347  19.416  0.00  0.00    +0.000 A 
ATOM     15  C   UNL     1      12.236  13.350  18.029  0.00  0.00    +0.000 A 
ATOM     16  C   UNL     1      11.350  12.475  17.393  0.00  0.00    +0.000 A 
ATOM     17  C   UNL     1      10.541  11.601  18.146  0.00  0.00    +0.000 A 
ATOM     18  C   UNL     1       9.607  10.721  17.552  0.00  0.00    +0.000 A 
ENDBRANCH   7   9
ENDBRANCH   2   5
BRANCH   1  20
ATOM     19  C   UNL     1       2.949   7.804  17.609  0.00  0.00    +0.000 C 
ATOM     20  C   UNL     1       4.030   6.746  17.374  0.00  0.00    +0.000 C 
BRANCH  20  21
ATOM     21  C   UNL     1       3.579   5.416  17.955  0.00  0.00    +0.000 A 
ATOM     22  C   UNL     1       2.709   5.405  19.059  0.00  0.00    +0.000 A 
ATOM     23  C   UNL     1       2.339   4.202  19.665  0.00  0.00    +0.000 A 
ATOM     24  C   UNL     1       2.835   3.002  19.170  0.00  0.00    +0.000 A 
ATOM     25  F   UNL     1       2.489   1.852  19.764  0.00  0.00    +0.000 F 
ATOM     26  C   UNL     1       3.692   2.980  18.079  0.00  0.00    +0.000 A 
ATOM     27  C   UNL     1       4.061   4.184  17.487  0.00  0.00    +0.000 A 
ATOM     28  F   UNL     1       4.911   4.147  16.451  0.00  0.00    +0.000 F 
ENDBRANCH  20  21
ENDBRANCH   1  20
TORSDOF 4
ENDMDL
MODEL 4
REMARK VINA RESULT:      -8.1      5.874      7.623
REMARK  Name = 
REMARK  5 active torsions:
REMARK  status: ('A' for Active; 'I' for Inactive)
REMARK    1  A    between atoms: C_1  and  C_2
REMARK    2  A    between atoms: C_2  and  N_3
REMARK    3  A    between atoms: C_2  and  C_19
REMARK    4  A    between atoms: C_4  and  C_6
REMARK    5  A    between atoms: N_8  and  C_9
REMARK                            x       y       z     vdW  Elec       q    Type
REMARK                         _______ _______ _______ _____ _____    ______ ____
ROOT
ATOM      1  N   UNL     1       7.023   7.032  17.009  0.00  0.00    +0.000 N 
ATOM      2  C   UNL     1       7.819   7.383  18.078  0.00  0.00    +0.000 C 
ATOM      3  O   UNL     1       8.267   6.635  18.936  0.00  0.00    +0.000 OA
ATOM      4  H   UNL     1       6.840   7.774  16.331  0.00  0.00    +0.000 HD
ENDROOT
BRANCH   2   5
ATOM      5  C   UNL     1       8.141   8.892  18.111  0.00  0.00    +0.000 C 
ATOM      6  O   UNL     1       7.578   9.611  17.295  0.00  0.00    +0.000 OA
ATOM      7  N   UNL     1       9.088   9.255  19.054  0.00  0.00    +0.000 N 
ATOM      8  H   UNL     1       9.527   8.490  19.560  0.00  0.00    +0.000 HD
BRANCH   7   9
ATOM      9  C   UNL     1       9.556  10.572  19.255  0.00  0.00    +0.000 A 
ATOM     10  C   UNL     1      10.403  11.233  18.371  0.00  0.00    +0.000 A 
ATOM     11  N   UNL     1      10.900  12.480  18.560  0.00  0.00    +0.000 NA
ATOM     12  C   UNL     1      10.571  13.119  19.686  0.00  0.00    +0.000 A 
ATOM     13  C   UNL     1      11.113  14.374  19.918  0.00  0.00    +0.000 A 
ATOM     14  C   UNL     1      10.837  15.090  21.084  0.00  0.00    +0.000 A 
ATOM     15  C   UNL     1       9.987  14.545  22.039  0.00  0.00    +0.000 A 
ATOM     16  C   UNL     1       9.414  13.289  21.822  0.00  0.00    +0.000 A 
ATOM     17  C   UNL     1       9.703  12.562  20.650  0.00  0.00    +0.000 A 
ATOM     18  C   UNL     1       9.175  11.275  20.398  0.00  0.00    +0.000 A 
ENDBRANCH   7   9
ENDBRANCH   2   5
BRANCH   1  20
ATOM     19  C   UNL     1       6.927   5.371  15.199  0.00  0.00    +0.000 C 
ATOM     20  C   UNL     1       6.659   5.671  16.675  0.00  0.00    +0.000 C 
BRANCH  20  21
ATOM     21  C   UNL     1       5.212   5.350  17.009  0.00  0.00    +0.000 A 
ATOM     22  C   UNL     1       4.394   6.349  17.567  0.00  0.00    +0.000 A 
ATOM     23  C   UNL     1       3.083   6.064  17.957  0.00  0.00    +0.000 A 
ATOM     24  C   UNL     1       2.581   4.779  17.790  0.00  0.00    +0.000 A 
ATOM     25  F   UNL     1       1.328   4.507  18.179  0.00  0.00    +0.000 F 
ATOM     26  C   UNL     1       3.361   3.773  17.238  0.00  0.00    +0.000 A 
ATOM     27  C   UNL     1       4.668   4.065  16.859  0.00  0.00    +0.000 A 
ATOM     28  F   UNL     1       5.418   3.075  16.353  0.00  0.00    +0.000 F 
ENDBRANCH  20  21
ENDBRANCH   1  20
TORSDOF 4
ENDMDL
MODEL 5
REMARK VINA RESULT:      -8.1      5.841      8.260
REMARK  Name = 
REMARK  5 active torsions:
REMARK  status: ('A' for Active; 'I' for Inactive)
REMARK    1  A    between atoms: C_1  and  C_2
REMARK    2  A    between atoms: C_2  and  N_3
REMARK    3  A    between atoms: C_2  and  C_19
REMARK    4  A    between atoms: C_4  and  C_6
REMARK    5  A    between atoms: N_8  and  C_9
REMARK                            x       y       z     vdW  Elec       q    Type
REMARK                         _______ _______ _______ _____ _____    ______ ____
ROOT
ATOM      1  N   UNL     1       6.486   7.006  17.478  0.00  0.00    +0.000 N 
ATOM      2  C   UNL     1       7.642   7.229  18.195  0.00  0.00    +0.000 C 
ATOM      3  O   UNL     1       8.271   6.407  18.846  0.00  0.00    +0.000 OA
ATOM      4  H   UNL     1       6.165   7.785  16.902  0.00  0.00    +0.000 HD
ENDROOT
BRANCH   2   5
ATOM      5  C   UNL     1       8.130   8.690  18.098  0.00  0.00    +0.000 C 
ATOM      6  O   UNL     1       7.808   9.332  17.106  0.00  0.00    +0.000 OA
ATOM      7  N   UNL     1       8.935   9.096  19.149  0.00  0.00    +0.000 N 
ATOM      8  H   UNL     1       9.185   8.375  19.822  0.00  0.00    +0.000 HD
BRANCH   7   9
ATOM      9  C   UNL     1       9.513  10.379  19.267  0.00  0.00    +0.000 A 
ATOM     10  C   UNL     1       9.526  11.114  20.448  0.00  0.00    +0.000 A 
ATOM     11  N   UNL     1      10.037  12.363  20.579  0.00  0.00    +0.000 NA
ATOM     12  C   UNL     1      10.548  12.944  19.490  0.00  0.00    +0.000 A 
ATOM     13  C   UNL     1      11.027  14.242  19.595  0.00  0.00    +0.000 A 
ATOM     14  C   UNL     1      11.551  14.923  18.495  0.00  0.00    +0.000 A 
ATOM     15  C   UNL     1      11.611  14.289  17.260  0.00  0.00    +0.000 A 
ATOM     16  C   UNL     1      11.151  12.976  17.131  0.00  0.00    +0.000 A 
ATOM     17  C   UNL     1      10.611  12.293  18.239  0.00  0.00    +0.000 A 
ATOM     18  C   UNL     1      10.104  10.977  18.153  0.00  0.00    +0.000 A 
ENDBRANCH   7   9
ENDBRANCH   2   5
BRANCH   1  20
ATOM     19  C   UNL     1       5.570   5.424  15.834  0.00  0.00    +0.000 C 
ATOM     20  C   UNL     1       5.871   5.707  17.307  0.00  0.00    +0.000 C 
BRANCH  20  21
ATOM     21  C   UNL     1       4.602   5.544  18.128  0.00  0.00    +0.000 A 
ATOM     22  C   UNL     1       3.635   6.564  18.114  0.00  0.00    +0.000 A 
ATOM     23  C   UNL     1       2.495   6.480  18.918  0.00  0.00    +0.000 A 
ATOM     24  C   UNL     1       2.315   5.375  19.741  0.00  0.00    +0.000 A 
ATOM     25  F   UNL     1       1.228   5.306  20.521  0.00  0.00    +0.000 F 
ATOM     26  C   UNL     1       3.249   4.350  19.774  0.00  0.00    +0.000 A 
ATOM     27  C   UNL     1       4.384   4.446  18.975  0.00  0.00    +0.000 A 
ATOM     28  F   UNL     1       5.290   3.460  19.039  0.00  0.00    +0.000 F 
ENDBRANCH  20  21
ENDBRANCH   1  20
TORSDOF 4
ENDMDL
MODEL 6
REMARK VINA RESULT:      -8.1      0.966      1.343
REMARK  Name = 
REMARK  5 active torsions:
REMARK  status: ('A' for Active; 'I' for Inactive)
REMARK    1  A    between atoms: C_1  and  C_2
REMARK    2  A    between atoms: C_2  and  N_3
REMARK    3  A    between atoms: C_2  and  C_19
REMARK    4  A    between atoms: C_4  and  C_6
REMARK    5  A    between atoms: N_8  and  C_9
REMARK                            x       y       z     vdW  Elec       q    Type
REMARK                         _______ _______ _______ _____ _____    ______ ____
ROOT
ATOM      1  N   UNL     1       4.673   5.430  18.998  0.00  0.00    +0.000 N 
ATOM      2  C   UNL     1       3.623   4.749  19.576  0.00  0.00    +0.000 C 
ATOM      3  O   UNL     1       3.557   3.547  19.788  0.00  0.00    +0.000 OA
ATOM      4  H   UNL     1       4.598   6.449  19.006  0.00  0.00    +0.000 HD
ENDROOT
BRANCH   2   5
ATOM      5  C   UNL     1       2.460   5.680  19.980  0.00  0.00    +0.000 C 
ATOM      6  O   UNL     1       1.430   5.158  20.388  0.00  0.00    +0.000 OA
ATOM      7  N   UNL     1       2.710   7.028  19.784  0.00  0.00    +0.000 N 
ATOM      8  H   UNL     1       3.588   7.254  19.322  0.00  0.00    +0.000 HD
BRANCH   7   9
ATOM      9  C   UNL     1       1.791   8.063  20.061  0.00  0.00    +0.000 A 
ATOM     10  C   UNL     1       1.408   9.025  19.131  0.00  0.00    +0.000 A 
ATOM     11  N   UNL     1       0.561  10.052  19.383  0.00  0.00    +0.000 NA
ATOM     12  C   UNL     1       0.070  10.167  20.621  0.00  0.00    +0.000 A 
ATOM     13  C   UNL     1      -0.756  11.244  20.908  0.00  0.00    +0.000 A 
ATOM     14  C   UNL     1      -1.284  11.445  22.185  0.00  0.00    +0.000 A 
ATOM     15  C   UNL     1      -0.990  10.541  23.199  0.00  0.00    +0.000 A 
ATOM     16  C   UNL     1      -0.174   9.439  22.932  0.00  0.00    +0.000 A 
ATOM     17  C   UNL     1       0.369   9.243  21.646  0.00  0.00    +0.000 A 
ATOM     18  C   UNL     1       1.225   8.164  21.333  0.00  0.00    +0.000 A 
ENDBRANCH   7   9
ENDBRANCH   2   5
BRANCH   1  20
ATOM     19  C   UNL     1       7.115   5.568  19.247  0.00  0.00    +0.000 C 
ATOM     20  C   UNL     1       5.932   4.822  18.625  0.00  0.00    +0.000 C 
BRANCH  20  21
ATOM     21  C   UNL     1       6.119   4.731  17.119  0.00  0.00    +0.000 A 
ATOM     22  C   UNL     1       5.494   3.693  16.407  0.00  0.00    +0.000 A 
ATOM     23  C   UNL     1       5.709   3.536  15.036  0.00  0.00    +0.000 A 
ATOM     24  C   UNL     1       6.550   4.417  14.367  0.00  0.00    +0.000 A 
ATOM     25  F   UNL     1       6.765   4.254  13.055  0.00  0.00    +0.000 F 
ATOM     26  C   UNL     1       7.178   5.455  15.041  0.00  0.00    +0.000 A 
ATOM     27  C   UNL     1       6.963   5.598  16.408  0.00  0.00    +0.000 A 
ATOM     28  F   UNL     1       7.599   6.589  17.050  0.00  0.00    +0.000 F 
ENDBRANCH  20  21
ENDBRANCH   1  20
TORSDOF 4
ENDMDL
MODEL 7
REMARK VINA RESULT:      -8.1      3.213      8.712
REMARK  Name = 
REMARK  5 active torsions:
REMARK  status: ('A' for Active; 'I' for Inactive)
REMARK    1  A    between atoms: C_1  and  C_2
REMARK    2  A    between atoms: C_2  and  N_3
REMARK    3  A    between atoms: C_2  and  C_19
REMARK    4  A    between atoms: C_4  and  C_6
REMARK    5  A    between atoms: N_8  and  C_9
REMARK                            x       y       z     vdW  Elec       q    Type
REMARK                         _______ _______ _______ _____ _____    ______ ____
ROOT
ATOM      1  N   UNL     1       3.292   6.063  19.690  0.00  0.00    +0.000 N 
ATOM      2  C   UNL     1       3.759   4.767  19.731  0.00  0.00    +0.000 C 
ATOM      3  O   UNL     1       3.402   3.883  20.496  0.00  0.00    +0.000 OA
ATOM      4  H   UNL     1       3.624   6.629  18.907  0.00  0.00    +0.000 HD
ENDROOT
BRANCH   2   5
ATOM      5  C   UNL     1       4.831   4.486  18.656  0.00  0.00    +0.000 C 
ATOM      6  O   UNL     1       5.787   3.792  18.976  0.00  0.00    +0.000 OA
ATOM      7  N   UNL     1       4.599   5.107  17.440  0.00  0.00    +0.000 N 
ATOM      8  H   UNL     1       3.805   5.742  17.410  0.00  0.00    +0.000 HD
BRANCH   7   9
ATOM      9  C   UNL     1       5.449   5.013  16.317  0.00  0.00    +0.000 A 
ATOM     10  C   UNL     1       6.654   5.698  16.202  0.00  0.00    +0.000 A 
ATOM     11  N   UNL     1       7.468   5.658  15.119  0.00  0.00    +0.000 NA
ATOM     12  C   UNL     1       7.078   4.925  14.072  0.00  0.00    +0.000 A 
ATOM     13  C   UNL     1       7.875   4.916  12.936  0.00  0.00    +0.000 A 
ATOM     14  C   UNL     1       7.519   4.196  11.795  0.00  0.00    +0.000 A 
ATOM     15  C   UNL     1       6.344   3.453  11.790  0.00  0.00    +0.000 A 
ATOM     16  C   UNL     1       5.532   3.431  12.928  0.00  0.00    +0.000 A 
ATOM     17  C   UNL     1       5.886   4.169  14.076  0.00  0.00    +0.000 A 
ATOM     18  C   UNL     1       5.084   4.205  15.239  0.00  0.00    +0.000 A 
ENDBRANCH   7   9
ENDBRANCH   2   5
BRANCH   1  20
ATOM     19  C   UNL     1       1.053   5.566  20.576  0.00  0.00    +0.000 C 
ATOM     20  C   UNL     1       2.210   6.566  20.510  0.00  0.00    +0.000 C 
BRANCH  20  21
ATOM     21  C   UNL     1       1.694   7.916  20.040  0.00  0.00    +0.000 A 
ATOM     22  C   UNL     1       1.942   8.328  18.719  0.00  0.00    +0.000 A 
ATOM     23  C   UNL     1       1.549   9.595  18.280  0.00  0.00    +0.000 A 
ATOM     24  C   UNL     1       0.905  10.458  19.158  0.00  0.00    +0.000 A 
ATOM     25  F   UNL     1       0.544  11.677  18.737  0.00  0.00    +0.000 F 
ATOM     26  C   UNL     1       0.642  10.079  20.467  0.00  0.00    +0.000 A 
ATOM     27  C   UNL     1       1.044   8.817  20.897  0.00  0.00    +0.000 A 
ATOM     28  F   UNL     1       0.806   8.477  22.172  0.00  0.00    +0.000 F 
ENDBRANCH  20  21
ENDBRANCH   1  20
TORSDOF 4
ENDMDL
MODEL 8
REMARK VINA RESULT:      -8.0      1.323      1.823
REMARK  Name = 
REMARK  5 active torsions:
REMARK  status: ('A' for Active; 'I' for Inactive)
REMARK    1  A    between atoms: C_1  and  C_2
REMARK    2  A    between atoms: C_2  and  N_3
REMARK    3  A    between atoms: C_2  and  C_19
REMARK    4  A    between atoms: C_4  and  C_6
REMARK    5  A    between atoms: N_8  and  C_9
REMARK                            x       y       z     vdW  Elec       q    Type
REMARK                         _______ _______ _______ _____ _____    ______ ____
ROOT
ATOM      1  N   UNL     1       4.459   6.085  18.772  0.00  0.00    +0.000 N 
ATOM      2  C   UNL     1       3.162   5.901  19.199  0.00  0.00    +0.000 C 
ATOM      3  O   UNL     1       2.609   4.835  19.430  0.00  0.00    +0.000 OA
ATOM      4  H   UNL     1       4.783   7.053  18.743  0.00  0.00    +0.000 HD
ENDROOT
BRANCH   2   5
ATOM      5  C   UNL     1       2.406   7.232  19.395  0.00  0.00    +0.000 C 
ATOM      6  O   UNL     1       2.330   7.989  18.435  0.00  0.00    +0.000 OA
ATOM      7  N   UNL     1       1.930   7.438  20.679  0.00  0.00    +0.000 N 
ATOM      8  H   UNL     1       2.198   6.740  21.369  0.00  0.00    +0.000 HD
BRANCH   7   9
ATOM      9  C   UNL     1       1.227   8.588  21.100  0.00  0.00    +0.000 A 
ATOM     10  C   UNL     1       1.232   9.059  22.409  0.00  0.00    +0.000 A 
ATOM     11  N   UNL     1       0.533  10.134  22.848  0.00  0.00    +0.000 NA
ATOM     12  C   UNL     1      -0.234  10.782  21.967  0.00  0.00    +0.000 A 
ATOM     13  C   UNL     1      -0.995  11.853  22.413  0.00  0.00    +0.000 A 
ATOM     14  C   UNL     1      -1.841  12.560  21.557  0.00  0.00    +0.000 A 
ATOM     15  C   UNL     1      -1.920  12.198  20.217  0.00  0.00    +0.000 A 
ATOM     16  C   UNL     1      -1.151  11.134  19.739  0.00  0.00    +0.000 A 
ATOM     17  C   UNL     1      -0.306  10.413  20.606  0.00  0.00    +0.000 A 
ATOM     18  C   UNL     1       0.467   9.309  20.179  0.00  0.00    +0.000 A 
ENDBRANCH   7   9
ENDBRANCH   2   5
BRANCH   1  20
ATOM     19  C   UNL     1       6.701   5.300  19.407  0.00  0.00    +0.000 C 
ATOM     20  C   UNL     1       5.424   5.017  18.614  0.00  0.00    +0.000 C 
BRANCH  20  21
ATOM     21  C   UNL     1       5.774   4.751  17.159  0.00  0.00    +0.000 A 
ATOM     22  C   UNL     1       7.033   5.139  16.669  0.00  0.00    +0.000 A 
ATOM     23  C   UNL     1       7.356   4.980  15.319  0.00  0.00    +0.000 A 
ATOM     24  C   UNL     1       6.421   4.432  14.450  0.00  0.00    +0.000 A 
ATOM     25  F   UNL     1       6.729   4.295  13.153  0.00  0.00    +0.000 F 
ATOM     26  C   UNL     1       5.171   4.035  14.902  0.00  0.00    +0.000 A 
ATOM     27  C   UNL     1       4.857   4.204  16.248  0.00  0.00    +0.000 A 
ATOM     28  F   UNL     1       3.635   3.841  16.664  0.00  0.00    +0.000 F 
ENDBRANCH  20  21
ENDBRANCH   1  20
TORSDOF 4
ENDMDL
MODEL 9
REMARK VINA RESULT:      -8.0      5.469      8.024
REMARK  Name = 
REMARK  5 active torsions:
REMARK  status: ('A' for Active; 'I' for Inactive)
REMARK    1  A    between atoms: C_1  and  C_2
REMARK    2  A    between atoms: C_2  and  N_3
REMARK    3  A    between atoms: C_2  and  C_19
REMARK    4  A    between atoms: C_4  and  C_6
REMARK    5  A    between atoms: N_8  and  C_9
REMARK                            x       y       z     vdW  Elec       q    Type
REMARK                         _______ _______ _______ _____ _____    ______ ____
ROOT
ATOM      1  N   UNL     1       5.709   7.113  17.842  0.00  0.00    +0.000 N 
ATOM      2  C   UNL     1       6.970   7.045  17.289  0.00  0.00    +0.000 C 
ATOM      3  O   UNL     1       7.292   6.452  16.269  0.00  0.00    +0.000 OA
ATOM      4  H   UNL     1       5.607   7.750  18.634  0.00  0.00    +0.000 HD
ENDROOT
BRANCH   2   5
ATOM      5  C   UNL     1       8.018   7.840  18.096  0.00  0.00    +0.000 C 
ATOM      6  O   UNL     1       8.647   7.239  18.957  0.00  0.00    +0.000 OA
ATOM      7  N   UNL     1       8.090   9.185  17.772  0.00  0.00    +0.000 N 
ATOM      8  H   UNL     1       7.397   9.520  17.107  0.00  0.00    +0.000 HD
BRANCH   7   9
ATOM      9  C   UNL     1       8.958  10.113  18.389  0.00  0.00    +0.000 A 
ATOM     10  C   UNL     1       9.010  10.325  19.763  0.00  0.00    +0.000 A 
ATOM     11  N   UNL     1       9.802  11.238  20.377  0.00  0.00    +0.000 NA
ATOM     12  C   UNL     1      10.578  12.007  19.608  0.00  0.00    +0.000 A 
ATOM     13  C   UNL     1      11.355  12.981  20.218  0.00  0.00    +0.000 A 
ATOM     14  C   UNL     1      12.169  13.841  19.478  0.00  0.00    +0.000 A 
ATOM     15  C   UNL     1      12.220  13.717  18.094  0.00  0.00    +0.000 A 
ATOM     16  C   UNL     1      11.460  12.733  17.458  0.00  0.00    +0.000 A 
ATOM     17  C   UNL     1      10.628  11.874  18.204  0.00  0.00    +0.000 A 
ATOM     18  C   UNL     1       9.816  10.884  17.605  0.00  0.00    +0.000 A 
ENDBRANCH   7   9
ENDBRANCH   2   5
BRANCH   1  20
ATOM     19  C   UNL     1       3.296   7.432  17.494  0.00  0.00    +0.000 C 
ATOM     20  C   UNL     1       4.521   6.552  17.235  0.00  0.00    +0.000 C 
BRANCH  20  21
ATOM     21  C   UNL     1       4.238   5.132  17.698  0.00  0.00    +0.000 A 
ATOM     22  C   UNL     1       4.180   4.095  16.750  0.00  0.00    +0.000 A 
ATOM     23  C   UNL     1       3.844   2.794  17.134  0.00  0.00    +0.000 A 
ATOM     24  C   UNL     1       3.565   2.522  18.468  0.00  0.00    +0.000 A 
ATOM     25  F   UNL     1       3.230   1.276  18.828  0.00  0.00    +0.000 F 
ATOM     26  C   UNL     1       3.618   3.522  19.427  0.00  0.00    +0.000 A 
ATOM     27  C   UNL     1       3.946   4.816  19.034  0.00  0.00    +0.000 A 
ATOM     28  F   UNL     1       3.967   5.777  19.969  0.00  0.00    +0.000 F 
ENDBRANCH  20  21
ENDBRANCH   1  20
TORSDOF 4
ENDMDL
