MODEL 1
REMARK VINA RESULT:      -9.1      0.000      0.000
REMARK  Name = 
REMARK  5 active torsions:
REMARK  status: ('A' for Active; 'I' for Inactive)
REMARK    1  A    between atoms: C_1  and  N_2
REMARK    2  A    between atoms: C_6  and  C_7
REMARK    3  A    between atoms: N_9  and  C_10
REMARK    4  A    between atoms: C_10  and  C_11
REMARK    5  A    between atoms: C_15  and  C_16
REMARK                            x       y       z     vdW  Elec       q    Type
REMARK                         _______ _______ _______ _____ _____    ______ ____
ROOT
ATOM      1  C   UNL     1       1.988   7.309  19.103  0.00  0.00    +0.000 C 
ATOM      2  O   UNL     1       1.875   6.871  17.961  0.00  0.00    +0.000 OA
ATOM      3  N   UNL     1       2.259   6.488  20.173  0.00  0.00    +0.000 N 
ATOM      4  H   UNL     1       2.265   6.879  21.106  0.00  0.00    +0.000 HD
ENDROOT
BRANCH   1  10
ATOM      5  C   UNL     1       0.646  12.910  19.457  0.00  0.00    +0.000 C 
ATOM      6  N   UNL     1       1.070  11.519  19.472  0.00  0.00    +0.000 N 
ATOM      7  C   UNL     1       1.933  11.085  18.480  0.00  0.00    +0.000 A 
ATOM      8  O   UNL     1       2.428  11.807  17.618  0.00  0.00    +0.000 OA
ATOM      9  C   UNL     1       2.241   9.642  18.427  0.00  0.00    +0.000 A 
ATOM     10  C   UNL     1       1.818   8.778  19.363  0.00  0.00    +0.000 A 
ATOM     11  C   UNL     1       1.013   9.295  20.495  0.00  0.00    +0.000 A 
ATOM     12  C   UNL     1       0.611   8.469  21.561  0.00  0.00    +0.000 A 
ATOM     13  C   UNL     1      -0.215   8.942  22.581  0.00  0.00    +0.000 A 
ATOM     14  C   UNL     1      -0.639  10.263  22.562  0.00  0.00    +0.000 A 
ATOM     15  C   UNL     1      -0.224  11.109  21.537  0.00  0.00    +0.000 A 
ATOM     16  C   UNL     1       0.611  10.645  20.501  0.00  0.00    +0.000 A 
ENDBRANCH   1  10
BRANCH   3  17
ATOM     17  C   UNL     1       2.450   5.006  20.013  0.00  0.00    +0.000 C 
ATOM     18  C   UNL     1       1.098   4.222  19.743  0.00  0.00    +0.000 C 
ATOM     19  C   UNL     1       1.585   3.165  20.752  0.00  0.00    +0.000 C 
ATOM     20  C   UNL     1       2.396   4.292  21.420  0.00  0.00    +0.000 C 
BRANCH  17  21
ATOM     21  C   UNL     1       3.628   4.586  18.969  0.00  0.00    +0.000 A 
ATOM     22  C   UNL     1       3.385   4.015  17.706  0.00  0.00    +0.000 A 
ATOM     23  C   UNL     1       4.388   3.909  16.736  0.00  0.00    +0.000 A 
ATOM     24  C   UNL     1       5.678   4.358  17.005  0.00  0.00    +0.000 A 
ATOM     25  C   UNL     1       5.987   4.876  18.263  0.00  0.00    +0.000 A 
ATOM     26  C   UNL     1       4.970   4.947  19.228  0.00  0.00    +0.000 A 
BRANCH  25  27
ATOM     27  C   UNL     1       7.353   5.429  18.586  0.00  0.00    +0.000 C 
ATOM     28  F   UNL     1       7.631   6.597  17.938  0.00  0.00    +0.000 F 
ATOM     29  F   UNL     1       7.503   5.705  19.913  0.00  0.00    +0.000 F 
ATOM     30  F   UNL     1       8.362   4.575  18.264  0.00  0.00    +0.000 F 
ENDBRANCH  25  27
ENDBRANCH  17  21
ENDBRANCH   3  17
TORSDOF 4
ENDMDL
MODEL 2
REMARK VINA RESULT:      -8.7      2.375      3.626
REMARK  Name = 
REMARK  5 active torsions:
REMARK  status: ('A' for Active; 'I' for Inactive)
REMARK    1  A    between atoms: C_1  and  N_2
REMARK    2  A    between atoms: C_6  and  C_7
REMARK    3  A    between atoms: N_9  and  C_10
REMARK    4  A    between atoms: C_10  and  C_11
REMARK    5  A    between atoms: C_15  and  C_16
REMARK                            x       y       z     vdW  Elec       q    Type
REMARK                         _______ _______ _______ _____ _____    ______ ____
ROOT
ATOM      1  C   UNL     1       2.427   7.867  18.133  0.00  0.00    +0.000 C 
ATOM      2  O   UNL     1       1.630   7.244  17.437  0.00  0.00    +0.000 OA
ATOM      3  N   UNL     1       3.697   7.401  18.380  0.00  0.00    +0.000 N 
ATOM      4  H   UNL     1       4.293   7.906  19.023  0.00  0.00    +0.000 HD
ENDROOT
BRANCH   1  10
ATOM      5  C   UNL     1       0.150  12.868  19.894  0.00  0.00    +0.000 C 
ATOM      6  N   UNL     1       0.811  11.618  19.555  0.00  0.00    +0.000 N 
ATOM      7  C   UNL     1       1.671  11.604  18.469  0.00  0.00    +0.000 A 
ATOM      8  O   UNL     1       1.975  12.591  17.804  0.00  0.00    +0.000 OA
ATOM      9  C   UNL     1       2.223  10.300  18.053  0.00  0.00    +0.000 A 
ATOM     10  C   UNL     1       2.020   9.173  18.753  0.00  0.00    +0.000 A 
ATOM     11  C   UNL     1       1.211   9.243  19.994  0.00  0.00    +0.000 A 
ATOM     12  C   UNL     1       1.030   8.125  20.829  0.00  0.00    +0.000 A 
ATOM     13  C   UNL     1       0.202   8.177  21.950  0.00  0.00    +0.000 A 
ATOM     14  C   UNL     1      -0.447   9.361  22.268  0.00  0.00    +0.000 A 
ATOM     15  C   UNL     1      -0.254  10.490  21.477  0.00  0.00    +0.000 A 
ATOM     16  C   UNL     1       0.580  10.453  20.343  0.00  0.00    +0.000 A 
ENDBRANCH   1  10
BRANCH   3  17
ATOM     17  C   UNL     1       4.198   6.108  17.800  0.00  0.00    +0.000 C 
ATOM     18  C   UNL     1       5.740   5.851  18.071  0.00  0.00    +0.000 C 
ATOM     19  C   UNL     1       5.856   5.396  16.605  0.00  0.00    +0.000 C 
ATOM     20  C   UNL     1       4.661   6.321  16.305  0.00  0.00    +0.000 C 
BRANCH  17  21
ATOM     21  C   UNL     1       3.284   4.809  18.155  0.00  0.00    +0.000 A 
ATOM     22  C   UNL     1       2.959   3.804  17.225  0.00  0.00    +0.000 A 
ATOM     23  C   UNL     1       2.400   2.583  17.618  0.00  0.00    +0.000 A 
ATOM     24  C   UNL     1       2.131   2.331  18.961  0.00  0.00    +0.000 A 
ATOM     25  C   UNL     1       2.377   3.317  19.918  0.00  0.00    +0.000 A 
ATOM     26  C   UNL     1       2.913   4.544  19.494  0.00  0.00    +0.000 A 
BRANCH  25  27
ATOM     27  C   UNL     1       2.158   3.074  21.390  0.00  0.00    +0.000 C 
ATOM     28  F   UNL     1       0.909   2.612  21.682  0.00  0.00    +0.000 F 
ATOM     29  F   UNL     1       3.018   2.146  21.898  0.00  0.00    +0.000 F 
ATOM     30  F   UNL     1       2.328   4.194  22.144  0.00  0.00    +0.000 F 
ENDBRANCH  25  27
ENDBRANCH  17  21
ENDBRANCH   3  17
TORSDOF 4
ENDMDL
MODEL 3
REMARK VINA RESULT:      -8.6      4.348      8.012
REMARK  Name = 
REMARK  5 active torsions:
REMARK  status: ('A' for Active; 'I' for Inactive)
REMARK    1  A    between atoms: C_1  and  N_2
REMARK    2  A    between atoms: C_6  and  C_7
REMARK    3  A    between atoms: N_9  and  C_10
REMARK    4  A    between atoms: C_10  and  C_11
REMARK    5  A    between atoms: C_15  and  C_16
REMARK                            x       y       z     vdW  Elec       q    Type
REMARK                         _______ _______ _______ _____ _____    ______ ____
ROOT
ATOM      1  C   UNL     1       2.014   7.165  19.585  0.00  0.00    +0.000 C 
ATOM      2  O   UNL     1       1.876   6.669  20.700  0.00  0.00    +0.000 OA
ATOM      3  N   UNL     1       1.509   8.406  19.273  0.00  0.00    +0.000 N 
ATOM      4  H   UNL     1       1.577   8.741  18.321  0.00  0.00    +0.000 HD
ENDROOT
BRANCH   1  10
ATOM      5  C   UNL     1       5.521   4.200  16.091  0.00  0.00    +0.000 C 
ATOM      6  N   UNL     1       4.541   4.934  16.875  0.00  0.00    +0.000 N 
ATOM      7  C   UNL     1       4.661   6.311  16.956  0.00  0.00    +0.000 A 
ATOM      8  O   UNL     1       5.501   6.976  16.354  0.00  0.00    +0.000 OA
ATOM      9  C   UNL     1       3.746   7.024  17.868  0.00  0.00    +0.000 A 
ATOM     10  C   UNL     1       2.743   6.407  18.513  0.00  0.00    +0.000 A 
ATOM     11  C   UNL     1       2.547   4.953  18.297  0.00  0.00    +0.000 A 
ATOM     12  C   UNL     1       1.466   4.256  18.865  0.00  0.00    +0.000 A 
ATOM     13  C   UNL     1       1.332   2.874  18.725  0.00  0.00    +0.000 A 
ATOM     14  C   UNL     1       2.275   2.166  17.994  0.00  0.00    +0.000 A 
ATOM     15  C   UNL     1       3.334   2.840  17.392  0.00  0.00    +0.000 A 
ATOM     16  C   UNL     1       3.480   4.235  17.524  0.00  0.00    +0.000 A 
ENDBRANCH   1  10
BRANCH   3  17
ATOM     17  C   UNL     1       0.770   9.242  20.279  0.00  0.00    +0.000 C 
ATOM     18  C   UNL     1       1.640   9.610  21.554  0.00  0.00    +0.000 C 
ATOM     19  C   UNL     1       0.407   9.276  22.413  0.00  0.00    +0.000 C 
ATOM     20  C   UNL     1      -0.020   8.316  21.286  0.00  0.00    +0.000 C 
BRANCH  17  21
ATOM     21  C   UNL     1       0.011  10.539  19.653  0.00  0.00    +0.000 A 
ATOM     22  C   UNL     1       0.508  11.853  19.742  0.00  0.00    +0.000 A 
ATOM     23  C   UNL     1      -0.023  12.898  18.978  0.00  0.00    +0.000 A 
ATOM     24  C   UNL     1      -1.085  12.666  18.108  0.00  0.00    +0.000 A 
ATOM     25  C   UNL     1      -1.655  11.395  18.027  0.00  0.00    +0.000 A 
ATOM     26  C   UNL     1      -1.121  10.369  18.824  0.00  0.00    +0.000 A 
BRANCH  25  27
ATOM     27  C   UNL     1      -2.766  11.078  17.059  0.00  0.00    +0.000 C 
ATOM     28  F   UNL     1      -2.392  11.182  15.751  0.00  0.00    +0.000 F 
ATOM     29  F   UNL     1      -3.235   9.805  17.202  0.00  0.00    +0.000 F 
ATOM     30  F   UNL     1      -3.846  11.893  17.204  0.00  0.00    +0.000 F 
ENDBRANCH  25  27
ENDBRANCH  17  21
ENDBRANCH   3  17
TORSDOF 4
ENDMDL
MODEL 4
REMARK VINA RESULT:      -8.6      1.682      2.211
REMARK  Name = 
REMARK  5 active torsions:
REMARK  status: ('A' for Active; 'I' for Inactive)
REMARK    1  A    between atoms: C_1  and  N_2
REMARK    2  A    between atoms: C_6  and  C_7
REMARK    3  A    between atoms: N_9  and  C_10
REMARK    4  A    between atoms: C_10  and  C_11
REMARK    5  A    between atoms: C_15  and  C_16
REMARK                            x       y       z     vdW  Elec       q    Type
REMARK                         _______ _______ _______ _____ _____    ______ ____
ROOT
ATOM      1  C   UNL     1       2.208   8.125  18.510  0.00  0.00    +0.000 C 
ATOM      2  O   UNL     1       2.367   7.998  17.298  0.00  0.00    +0.000 OA
ATOM      3  N   UNL     1       2.381   7.074  19.380  0.00  0.00    +0.000 N 
ATOM      4  H   UNL     1       2.163   7.203  20.360  0.00  0.00    +0.000 HD
ENDROOT
BRANCH   1  10
ATOM      5  C   UNL     1      -0.070  13.190  20.074  0.00  0.00    +0.000 C 
ATOM      6  N   UNL     1       0.592  11.929  19.783  0.00  0.00    +0.000 N 
ATOM      7  C   UNL     1       1.443  11.870  18.692  0.00  0.00    +0.000 A 
ATOM      8  O   UNL     1       1.739  12.830  17.983  0.00  0.00    +0.000 OA
ATOM      9  C   UNL     1       1.996  10.551  18.328  0.00  0.00    +0.000 A 
ATOM     10  C   UNL     1       1.802   9.454  19.077  0.00  0.00    +0.000 A 
ATOM     11  C   UNL     1       1.002   9.575  20.320  0.00  0.00    +0.000 A 
ATOM     12  C   UNL     1       0.831   8.493  21.203  0.00  0.00    +0.000 A 
ATOM     13  C   UNL     1       0.013   8.590  22.328  0.00  0.00    +0.000 A 
ATOM     14  C   UNL     1      -0.638   9.785  22.600  0.00  0.00    +0.000 A 
ATOM     15  C   UNL     1      -0.455  10.881  21.761  0.00  0.00    +0.000 A 
ATOM     16  C   UNL     1       0.371  10.797  20.622  0.00  0.00    +0.000 A 
ENDBRANCH   1  10
BRANCH   3  17
ATOM     17  C   UNL     1       2.792   5.707  18.909  0.00  0.00    +0.000 C 
ATOM     18  C   UNL     1       1.792   5.080  17.849  0.00  0.00    +0.000 C 
ATOM     19  C   UNL     1       1.909   3.753  18.621  0.00  0.00    +0.000 C 
ATOM     20  C   UNL     1       2.212   4.598  19.872  0.00  0.00    +0.000 C 
BRANCH  17  21
ATOM     21  C   UNL     1       4.346   5.595  18.436  0.00  0.00    +0.000 A 
ATOM     22  C   UNL     1       5.432   5.542  19.330  0.00  0.00    +0.000 A 
ATOM     23  C   UNL     1       6.719   5.185  18.911  0.00  0.00    +0.000 A 
ATOM     24  C   UNL     1       6.966   4.883  17.575  0.00  0.00    +0.000 A 
ATOM     25  C   UNL     1       5.937   4.979  16.636  0.00  0.00    +0.000 A 
ATOM     26  C   UNL     1       4.662   5.365  17.077  0.00  0.00    +0.000 A 
BRANCH  25  27
ATOM     27  C   UNL     1       6.139   4.606  15.189  0.00  0.00    +0.000 C 
ATOM     28  F   UNL     1       7.337   5.020  14.685  0.00  0.00    +0.000 F 
ATOM     29  F   UNL     1       6.106   3.258  14.989  0.00  0.00    +0.000 F 
ATOM     30  F   UNL     1       5.188   5.130  14.368  0.00  0.00    +0.000 F 
ENDBRANCH  25  27
ENDBRANCH  17  21
ENDBRANCH   3  17
TORSDOF 4
ENDMDL
MODEL 5
REMARK VINA RESULT:      -8.6      1.127      1.386
REMARK  Name = 
REMARK  5 active torsions:
REMARK  status: ('A' for Active; 'I' for Inactive)
REMARK    1  A    between atoms: C_1  and  N_2
REMARK    2  A    between atoms: C_6  and  C_7
REMARK    3  A    between atoms: N_9  and  C_10
REMARK    4  A    between atoms: C_10  and  C_11
REMARK    5  A    between atoms: C_15  and  C_16
REMARK                            x       y       z     vdW  Elec       q    Type
REMARK                         _______ _______ _______ _____ _____    ______ ____
ROOT
ATOM      1  C   UNL     1       1.799   8.221  18.870  0.00  0.00    +0.000 C 
ATOM      2  O   UNL     1       1.540   7.931  17.704  0.00  0.00    +0.000 OA
ATOM      3  N   UNL     1       2.373   7.318  19.734  0.00  0.00    +0.000 N 
ATOM      4  H   UNL     1       2.496   7.574  20.705  0.00  0.00    +0.000 HD
ENDROOT
BRANCH   1  10
ATOM      5  C   UNL     1      -0.182  13.453  20.286  0.00  0.00    +0.000 C 
ATOM      6  N   UNL     1       0.411  12.150  20.027  0.00  0.00    +0.000 N 
ATOM      7  C   UNL     1       1.208  12.002  18.905  0.00  0.00    +0.000 A 
ATOM      8  O   UNL     1       1.513  12.913  18.138  0.00  0.00    +0.000 OA
ATOM      9  C   UNL     1       1.685  10.644  18.580  0.00  0.00    +0.000 A 
ATOM     10  C   UNL     1       1.477   9.593  19.389  0.00  0.00    +0.000 A 
ATOM     11  C   UNL     1       0.742   9.807  20.658  0.00  0.00    +0.000 A 
ATOM     12  C   UNL     1       0.564   8.776  21.599  0.00  0.00    +0.000 A 
ATOM     13  C   UNL     1      -0.198   8.962  22.752  0.00  0.00    +0.000 A 
ATOM     14  C   UNL     1      -0.783  10.197  22.995  0.00  0.00    +0.000 A 
ATOM     15  C   UNL     1      -0.590  11.243  22.096  0.00  0.00    +0.000 A 
ATOM     16  C   UNL     1       0.178  11.070  20.929  0.00  0.00    +0.000 A 
ENDBRANCH   1  10
BRANCH   3  17
ATOM     17  C   UNL     1       2.736   5.924  19.306  0.00  0.00    +0.000 C 
ATOM     18  C   UNL     1       1.519   5.119  18.683  0.00  0.00    +0.000 C 
ATOM     19  C   UNL     1       1.976   3.909  19.516  0.00  0.00    +0.000 C 
ATOM     20  C   UNL     1       2.572   4.920  20.514  0.00  0.00    +0.000 C 
BRANCH  17  21
ATOM     21  C   UNL     1       4.076   5.827  18.387  0.00  0.00    +0.000 A 
ATOM     22  C   UNL     1       4.095   6.083  17.003  0.00  0.00    +0.000 A 
ATOM     23  C   UNL     1       5.292   6.248  16.297  0.00  0.00    +0.000 A 
ATOM     24  C   UNL     1       6.516   6.145  16.952  0.00  0.00    +0.000 A 
ATOM     25  C   UNL     1       6.555   5.832  18.311  0.00  0.00    +0.000 A 
ATOM     26  C   UNL     1       5.341   5.645  18.992  0.00  0.00    +0.000 A 
BRANCH  25  27
ATOM     27  C   UNL     1       7.852   5.767  19.079  0.00  0.00    +0.000 C 
ATOM     28  F   UNL     1       8.667   4.748  18.681  0.00  0.00    +0.000 F 
ATOM     29  F   UNL     1       8.595   6.902  18.943  0.00  0.00    +0.000 F 
ATOM     30  F   UNL     1       7.669   5.597  20.417  0.00  0.00    +0.000 F 
ENDBRANCH  25  27
ENDBRANCH  17  21
ENDBRANCH   3  17
TORSDOF 4
ENDMDL
MODEL 6
REMARK VINA RESULT:      -8.5      3.513      7.379
REMARK  Name = 
REMARK  5 active torsions:
REMARK  status: ('A' for Active; 'I' for Inactive)
REMARK    1  A    between atoms: C_1  and  N_2
REMARK    2  A    between atoms: C_6  and  C_7
REMARK    3  A    between atoms: N_9  and  C_10
REMARK    4  A    between atoms: C_10  and  C_11
REMARK    5  A    between atoms: C_15  and  C_16
REMARK                            x       y       z     vdW  Elec       q    Type
REMARK                         _______ _______ _______ _____ _____    ______ ____
ROOT
ATOM      1  C   UNL     1       2.009   7.832  18.422  0.00  0.00    +0.000 C 
ATOM      2  O   UNL     1       1.169   8.330  17.678  0.00  0.00    +0.000 OA
ATOM      3  N   UNL     1       2.014   8.071  19.777  0.00  0.00    +0.000 N 
ATOM      4  H   UNL     1       2.770   7.704  20.340  0.00  0.00    +0.000 HD
ENDROOT
BRANCH   1  10
ATOM      5  C   UNL     1       6.524   4.492  17.096  0.00  0.00    +0.000 C 
ATOM      6  N   UNL     1       5.334   5.300  17.308  0.00  0.00    +0.000 N 
ATOM      7  C   UNL     1       5.445   6.676  17.194  0.00  0.00    +0.000 A 
ATOM      8  O   UNL     1       6.467   7.270  16.857  0.00  0.00    +0.000 OA
ATOM      9  C   UNL     1       4.265   7.488  17.551  0.00  0.00    +0.000 A 
ATOM     10  C   UNL     1       3.078   6.941  17.857  0.00  0.00    +0.000 A 
ATOM     11  C   UNL     1       2.948   5.464  17.832  0.00  0.00    +0.000 A 
ATOM     12  C   UNL     1       1.715   4.822  18.051  0.00  0.00    +0.000 A 
ATOM     13  C   UNL     1       1.615   3.432  18.107  0.00  0.00    +0.000 A 
ATOM     14  C   UNL     1       2.751   2.656  17.925  0.00  0.00    +0.000 A 
ATOM     15  C   UNL     1       3.975   3.268  17.670  0.00  0.00    +0.000 A 
ATOM     16  C   UNL     1       4.090   4.671  17.609  0.00  0.00    +0.000 A 
ENDBRANCH   1  10
BRANCH   3  17
ATOM     17  C   UNL     1       0.984   8.944  20.436  0.00  0.00    +0.000 C 
ATOM     18  C   UNL     1       1.355   9.343  21.926  0.00  0.00    +0.000 C 
ATOM     19  C   UNL     1      -0.107   9.046  22.302  0.00  0.00    +0.000 C 
ATOM     20  C   UNL     1      -0.128   8.056  21.122  0.00  0.00    +0.000 C 
BRANCH  17  21
ATOM     21  C   UNL     1       0.519  10.227  19.549  0.00  0.00    +0.000 A 
ATOM     22  C   UNL     1      -0.797  10.424  19.089  0.00  0.00    +0.000 A 
ATOM     23  C   UNL     1      -1.222  11.648  18.562  0.00  0.00    +0.000 A 
ATOM     24  C   UNL     1      -0.336  12.718  18.462  0.00  0.00    +0.000 A 
ATOM     25  C   UNL     1       0.996  12.558  18.846  0.00  0.00    +0.000 A 
ATOM     26  C   UNL     1       1.404  11.311  19.348  0.00  0.00    +0.000 A 
BRANCH  25  27
ATOM     27  C   UNL     1       1.980  13.700  18.813  0.00  0.00    +0.000 C 
ATOM     28  F   UNL     1       2.943  13.557  17.858  0.00  0.00    +0.000 F 
ATOM     29  F   UNL     1       1.381  14.896  18.549  0.00  0.00    +0.000 F 
ATOM     30  F   UNL     1       2.643  13.865  19.990  0.00  0.00    +0.000 F 
ENDBRANCH  25  27
ENDBRANCH  17  21
ENDBRANCH   3  17
TORSDOF 4
ENDMDL
MODEL 7
REMARK VINA RESULT:      -8.5      2.518      3.703
REMARK  Name = 
REMARK  5 active torsions:
REMARK  status: ('A' for Active; 'I' for Inactive)
REMARK    1  A    between atoms: C_1  and  N_2
REMARK    2  A    between atoms: C_6  and  C_7
REMARK    3  A    between atoms: N_9  and  C_10
REMARK    4  A    between atoms: C_10  and  C_11
REMARK    5  A    between atoms: C_15  and  C_16
REMARK                            x       y       z     vdW  Elec       q    Type
REMARK                         _______ _______ _______ _____ _____    ______ ____
ROOT
ATOM      1  C   UNL     1       1.906   8.552  18.428  0.00  0.00    +0.000 C 
ATOM      2  O   UNL     1       1.200   8.107  17.526  0.00  0.00    +0.000 OA
ATOM      3  N   UNL     1       3.024   7.886  18.872  0.00  0.00    +0.000 N 
ATOM      4  H   UNL     1       3.531   8.248  19.669  0.00  0.00    +0.000 HD
ENDROOT
BRANCH   1  10
ATOM      5  C   UNL     1      -0.223  13.543  20.391  0.00  0.00    +0.000 C 
ATOM      6  N   UNL     1       0.409  12.295  19.994  0.00  0.00    +0.000 N 
ATOM      7  C   UNL     1       1.182  12.287  18.845  0.00  0.00    +0.000 A 
ATOM      8  O   UNL     1       1.434  13.279  18.164  0.00  0.00    +0.000 OA
ATOM      9  C   UNL     1       1.698  10.985  18.379  0.00  0.00    +0.000 A 
ATOM     10  C   UNL     1       1.549   9.853  19.085  0.00  0.00    +0.000 A 
ATOM     11  C   UNL     1       0.839   9.916  20.386  0.00  0.00    +0.000 A 
ATOM     12  C   UNL     1       0.722   8.793  21.224  0.00  0.00    +0.000 A 
ATOM     13  C   UNL     1      -0.016   8.837  22.407  0.00  0.00    +0.000 A 
ATOM     14  C   UNL     1      -0.638  10.020  22.782  0.00  0.00    +0.000 A 
ATOM     15  C   UNL     1      -0.506  11.155  21.986  0.00  0.00    +0.000 A 
ATOM     16  C   UNL     1       0.238  11.124  20.790  0.00  0.00    +0.000 A 
ENDBRANCH   1  10
BRANCH   3  17
ATOM     17  C   UNL     1       3.465   6.580  18.273  0.00  0.00    +0.000 C 
ATOM     18  C   UNL     1       4.998   6.257  18.524  0.00  0.00    +0.000 C 
ATOM     19  C   UNL     1       5.079   5.813  17.052  0.00  0.00    +0.000 C 
ATOM     20  C   UNL     1       3.921   6.790  16.775  0.00  0.00    +0.000 C 
BRANCH  17  21
ATOM     21  C   UNL     1       2.501   5.316  18.624  0.00  0.00    +0.000 A 
ATOM     22  C   UNL     1       1.801   4.574  17.654  0.00  0.00    +0.000 A 
ATOM     23  C   UNL     1       1.198   3.347  17.953  0.00  0.00    +0.000 A 
ATOM     24  C   UNL     1       1.260   2.828  19.244  0.00  0.00    +0.000 A 
ATOM     25  C   UNL     1       1.888   3.552  20.257  0.00  0.00    +0.000 A 
ATOM     26  C   UNL     1       2.463   4.793  19.937  0.00  0.00    +0.000 A 
BRANCH  25  27
ATOM     27  C   UNL     1       2.034   3.008  21.656  0.00  0.00    +0.000 C 
ATOM     28  F   UNL     1       3.000   2.051  21.767  0.00  0.00    +0.000 F 
ATOM     29  F   UNL     1       2.372   3.973  22.558  0.00  0.00    +0.000 F 
ATOM     30  F   UNL     1       0.890   2.440  22.127  0.00  0.00    +0.000 F 
ENDBRANCH  25  27
ENDBRANCH  17  21
ENDBRANCH   3  17
TORSDOF 4
ENDMDL
MODEL 8
REMARK VINA RESULT:      -8.4      4.448      8.480
REMARK  Name = 
REMARK  5 active torsions:
REMARK  status: ('A' for Active; 'I' for Inactive)
REMARK    1  A    between atoms: C_1  and  N_2
REMARK    2  A    between atoms: C_6  and  C_7
REMARK    3  A    between atoms: N_9  and  C_10
REMARK    4  A    between atoms: C_10  and  C_11
REMARK    5  A    between atoms: C_15  and  C_16
REMARK                            x       y       z     vdW  Elec       q    Type
REMARK                         _______ _______ _______ _____ _____    ______ ____
ROOT
ATOM      1  C   UNL     1       1.993   8.612  18.495  0.00  0.00    +0.000 C 
ATOM      2  O   UNL     1       2.151   9.076  17.369  0.00  0.00    +0.000 OA
ATOM      3  N   UNL     1       1.426   9.345  19.512  0.00  0.00    +0.000 N 
ATOM      4  H   UNL     1       1.388   8.951  20.443  0.00  0.00    +0.000 HD
ENDROOT
BRANCH   1  10
ATOM      5  C   UNL     1       2.911   2.958  19.196  0.00  0.00    +0.000 C 
ATOM      6  N   UNL     1       2.803   4.404  19.075  0.00  0.00    +0.000 N 
ATOM      7  C   UNL     1       1.982   5.077  19.963  0.00  0.00    +0.000 A 
ATOM      8  O   UNL     1       1.384   4.552  20.899  0.00  0.00    +0.000 OA
ATOM      9  C   UNL     1       1.773   6.521  19.739  0.00  0.00    +0.000 A 
ATOM     10  C   UNL     1       2.436   7.209  18.796  0.00  0.00    +0.000 A 
ATOM     11  C   UNL     1       3.418   6.489  17.950  0.00  0.00    +0.000 A 
ATOM     12  C   UNL     1       4.217   7.158  17.004  0.00  0.00    +0.000 A 
ATOM     13  C   UNL     1       5.080   6.465  16.155  0.00  0.00    +0.000 A 
ATOM     14  C   UNL     1       5.173   5.084  16.252  0.00  0.00    +0.000 A 
ATOM     15  C   UNL     1       4.419   4.404  17.206  0.00  0.00    +0.000 A 
ATOM     16  C   UNL     1       3.545   5.092  18.071  0.00  0.00    +0.000 A 
ENDBRANCH   1  10
BRANCH   3  17
ATOM     17  C   UNL     1       0.947  10.755  19.306  0.00  0.00    +0.000 C 
ATOM     18  C   UNL     1       1.787  11.555  18.225  0.00  0.00    +0.000 C 
ATOM     19  C   UNL     1       1.772  12.752  19.192  0.00  0.00    +0.000 C 
ATOM     20  C   UNL     1       1.649  11.727  20.335  0.00  0.00    +0.000 C 
BRANCH  17  21
ATOM     21  C   UNL     1      -0.658  10.895  19.071  0.00  0.00    +0.000 A 
ATOM     22  C   UNL     1      -1.515  11.605  19.933  0.00  0.00    +0.000 A 
ATOM     23  C   UNL     1      -2.828  11.927  19.572  0.00  0.00    +0.000 A 
ATOM     24  C   UNL     1      -3.335  11.534  18.336  0.00  0.00    +0.000 A 
ATOM     25  C   UNL     1      -2.548  10.775  17.469  0.00  0.00    +0.000 A 
ATOM     26  C   UNL     1      -1.243  10.442  17.866  0.00  0.00    +0.000 A 
BRANCH  25  27
ATOM     27  C   UNL     1      -3.029  10.375  16.097  0.00  0.00    +0.000 C 
ATOM     28  F   UNL     1      -2.459  11.099  15.091  0.00  0.00    +0.000 F 
ATOM     29  F   UNL     1      -2.753   9.071  15.808  0.00  0.00    +0.000 F 
ATOM     30  F   UNL     1      -4.374  10.516  15.944  0.00  0.00    +0.000 F 
ENDBRANCH  25  27
ENDBRANCH  17  21
ENDBRANCH   3  17
TORSDOF 4
ENDMDL
MODEL 9
REMARK VINA RESULT:      -8.4      4.188      7.714
REMARK  Name = 
REMARK  5 active torsions:
REMARK  status: ('A' for Active; 'I' for Inactive)
REMARK    1  A    between atoms: C_1  and  N_2
REMARK    2  A    between atoms: C_6  and  C_7
REMARK    3  A    between atoms: N_9  and  C_10
REMARK    4  A    between atoms: C_10  and  C_11
REMARK    5  A    between atoms: C_15  and  C_16
REMARK                            x       y       z     vdW  Elec       q    Type
REMARK                         _______ _______ _______ _____ _____    ______ ____
ROOT
ATOM      1  C   UNL     1       1.914   7.887  18.597  0.00  0.00    +0.000 C 
ATOM      2  O   UNL     1       1.044   8.413  17.906  0.00  0.00    +0.000 OA
ATOM      3  N   UNL     1       1.969   8.069  19.959  0.00  0.00    +0.000 N 
ATOM      4  H   UNL     1       2.747   7.683  20.478  0.00  0.00    +0.000 HD
ENDROOT
BRANCH   1  10
ATOM      5  C   UNL     1       6.378   4.614  16.967  0.00  0.00    +0.000 C 
ATOM      6  N   UNL     1       5.197   5.412  17.256  0.00  0.00    +0.000 N 
ATOM      7  C   UNL     1       5.312   6.792  17.218  0.00  0.00    +0.000 A 
ATOM      8  O   UNL     1       6.328   7.401  16.890  0.00  0.00    +0.000 OA
ATOM      9  C   UNL     1       4.145   7.586  17.650  0.00  0.00    +0.000 A 
ATOM     10  C   UNL     1       2.963   7.027  17.954  0.00  0.00    +0.000 A 
ATOM     11  C   UNL     1       2.825   5.554  17.848  0.00  0.00    +0.000 A 
ATOM     12  C   UNL     1       1.596   4.905  18.061  0.00  0.00    +0.000 A 
ATOM     13  C   UNL     1       1.490   3.514  18.040  0.00  0.00    +0.000 A 
ATOM     14  C   UNL     1       2.617   2.746  17.785  0.00  0.00    +0.000 A 
ATOM     15  C   UNL     1       3.837   3.368  17.535  0.00  0.00    +0.000 A 
ATOM     16  C   UNL     1       3.958   4.771  17.551  0.00  0.00    +0.000 A 
ENDBRANCH   1  10
BRANCH   3  17
ATOM     17  C   UNL     1       0.960   8.908  20.693  0.00  0.00    +0.000 C 
ATOM     18  C   UNL     1       1.371   9.217  22.194  0.00  0.00    +0.000 C 
ATOM     19  C   UNL     1      -0.085   8.907  22.588  0.00  0.00    +0.000 C 
ATOM     20  C   UNL     1      -0.140   7.988  21.353  0.00  0.00    +0.000 C 
BRANCH  17  21
ATOM     21  C   UNL     1       0.484  10.244  19.894  0.00  0.00    +0.000 A 
ATOM     22  C   UNL     1       1.321  11.349  19.650  0.00  0.00    +0.000 A 
ATOM     23  C   UNL     1       0.971  12.357  18.746  0.00  0.00    +0.000 A 
ATOM     24  C   UNL     1      -0.242  12.303  18.064  0.00  0.00    +0.000 A 
ATOM     25  C   UNL     1      -1.136  11.261  18.315  0.00  0.00    +0.000 A 
ATOM     26  C   UNL     1      -0.773  10.276  19.247  0.00  0.00    +0.000 A 
BRANCH  25  27
ATOM     27  C   UNL     1      -2.435  11.125  17.562  0.00  0.00    +0.000 C 
ATOM     28  F   UNL     1      -3.429  11.923  18.048  0.00  0.00    +0.000 F 
ATOM     29  F   UNL     1      -2.312  11.458  16.245  0.00  0.00    +0.000 F 
ATOM     30  F   UNL     1      -2.931   9.857  17.582  0.00  0.00    +0.000 F 
ENDBRANCH  25  27
ENDBRANCH  17  21
ENDBRANCH   3  17
TORSDOF 4
ENDMDL
