MODEL 1
REMARK VINA RESULT:      -8.3      0.000      0.000
REMARK  Name = 
REMARK  6 active torsions:
REMARK  status: ('A' for Active; 'I' for Inactive)
REMARK    1  A    between atoms: C_1  and  C_2
REMARK    2  A    between atoms: C_5  and  O_6
REMARK    3  A    between atoms: O_6  and  C_7
REMARK    4  A    between atoms: C_7  and  C_8
REMARK    5  A    between atoms: C_11  and  C_12
REMARK    6  A    between atoms: C_27  and  C_28
REMARK                            x       y       z     vdW  Elec       q    Type
REMARK                         _______ _______ _______ _____ _____    ______ ____
ROOT
ATOM      1  C   UNL     1       1.805   8.578  18.753  0.00  0.00    +0.000 A 
ATOM      2  C   UNL     1       1.932   8.250  20.087  0.00  0.00    +0.000 A 
ATOM      3  C   UNL     1       1.960   6.837  20.142  0.00  0.00    +0.000 A 
ATOM      4  C   UNL     1       2.010   6.379  18.837  0.00  0.00    +0.000 A 
ATOM      5  O   UNL     1       1.861   7.448  17.989  0.00  0.00    +0.000 OA
ENDROOT
BRANCH   4   6
ATOM      6  C   UNL     1       2.094   5.006  18.338  0.00  0.00    +0.000 C 
ATOM      7  O   UNL     1       1.157   4.227  18.514  0.00  0.00    +0.000 OA
ATOM      8  N   UNL     1       3.266   4.566  17.675  0.00  0.00    +0.000 N 
ATOM      9  C   UNL     1       3.380   3.168  17.272  0.00  0.00    +0.000 C 
ATOM     10  C   UNL     1       4.474   2.350  17.952  0.00  0.00    +0.000 C 
ATOM     11  C   UNL     1       4.753   2.683  19.399  0.00  0.00    +0.000 C 
ATOM     12  O   UNL     1       4.762   1.809  20.273  0.00  0.00    +0.000 OA
ATOM     13  N   UNL     1       5.200   3.943  19.705  0.00  0.00    +0.000 N 
ATOM     14  C   UNL     1       5.432   4.952  18.756  0.00  0.00    +0.000 A 
ATOM     15  C   UNL     1       6.654   5.615  18.793  0.00  0.00    +0.000 A 
ATOM     16  C   UNL     1       6.986   6.509  17.772  0.00  0.00    +0.000 A 
ATOM     17  C   UNL     1       6.070   6.796  16.761  0.00  0.00    +0.000 A 
ATOM     18  C   UNL     1       4.820   6.181  16.750  0.00  0.00    +0.000 A 
ATOM     19  C   UNL     1       4.497   5.255  17.748  0.00  0.00    +0.000 A 
ATOM     20  H   UNL     1       5.680   3.985  20.596  0.00  0.00    +0.000 HD
ENDBRANCH   4   6
BRANCH   1  21
ATOM     21  C   UNL     1       1.515   9.867  18.081  0.00  0.00    +0.000 C 
BRANCH  21  22
ATOM     22  O   UNL     1       0.664  10.648  18.917  0.00  0.00    +0.000 OA
BRANCH  22  27
ATOM     23  C   UNL     1      -4.843  11.117  17.528  0.00  0.00    +0.000 C 
ATOM     24  C   UNL     1      -3.387  10.988  17.865  0.00  0.00    +0.000 A 
ATOM     25  C   UNL     1      -2.585  10.057  17.206  0.00  0.00    +0.000 A 
ATOM     26  C   UNL     1      -1.234   9.931  17.532  0.00  0.00    +0.000 A 
ATOM     27  C   UNL     1      -0.651  10.731  18.526  0.00  0.00    +0.000 A 
ATOM     28  C   UNL     1      -1.447  11.683  19.187  0.00  0.00    +0.000 A 
ATOM     29  C   UNL     1      -0.897  12.585  20.259  0.00  0.00    +0.000 C 
ATOM     30  C   UNL     1      -2.810  11.798  18.850  0.00  0.00    +0.000 A 
ENDBRANCH  22  27
ENDBRANCH  21  22
ENDBRANCH   1  21
TORSDOF 4
ENDMDL
MODEL 2
REMARK VINA RESULT:      -8.2      0.705      1.570
REMARK  Name = 
REMARK  6 active torsions:
REMARK  status: ('A' for Active; 'I' for Inactive)
REMARK    1  A    between atoms: C_1  and  C_2
REMARK    2  A    between atoms: C_5  and  O_6
REMARK    3  A    between atoms: O_6  and  C_7
REMARK    4  A    between atoms: C_7  and  C_8
REMARK    5  A    between atoms: C_11  and  C_12
REMARK    6  A    between atoms: C_27  and  C_28
REMARK                            x       y       z     vdW  Elec       q    Type
REMARK                         _______ _______ _______ _____ _____    ______ ____
ROOT
ATOM      1  C   UNL     1       1.878   8.363  18.921  0.00  0.00    +0.000 A 
ATOM      2  C   UNL     1       1.941   8.056  20.265  0.00  0.00    +0.000 A 
ATOM      3  C   UNL     1       1.909   6.644  20.346  0.00  0.00    +0.000 A 
ATOM      4  C   UNL     1       1.989   6.159  19.052  0.00  0.00    +0.000 A 
ATOM      5  O   UNL     1       1.916   7.217  18.180  0.00  0.00    +0.000 OA
ENDROOT
BRANCH   4   6
ATOM      6  C   UNL     1       2.034   4.775  18.581  0.00  0.00    +0.000 C 
ATOM      7  O   UNL     1       1.113   4.002  18.845  0.00  0.00    +0.000 OA
ATOM      8  N   UNL     1       3.153   4.316  17.843  0.00  0.00    +0.000 N 
ATOM      9  C   UNL     1       3.236   2.908  17.466  0.00  0.00    +0.000 C 
ATOM     10  C   UNL     1       4.377   2.104  18.082  0.00  0.00    +0.000 C 
ATOM     11  C   UNL     1       4.763   2.471  19.496  0.00  0.00    +0.000 C 
ATOM     12  O   UNL     1       4.837   1.617  20.387  0.00  0.00    +0.000 OA
ATOM     13  N   UNL     1       5.232   3.736  19.737  0.00  0.00    +0.000 N 
ATOM     14  C   UNL     1       5.394   4.722  18.750  0.00  0.00    +0.000 A 
ATOM     15  C   UNL     1       6.616   5.383  18.680  0.00  0.00    +0.000 A 
ATOM     16  C   UNL     1       6.871   6.252  17.616  0.00  0.00    +0.000 A 
ATOM     17  C   UNL     1       5.882   6.517  16.669  0.00  0.00    +0.000 A 
ATOM     18  C   UNL     1       4.635   5.904  16.767  0.00  0.00    +0.000 A 
ATOM     19  C   UNL     1       4.386   5.004  17.808  0.00  0.00    +0.000 A 
ATOM     20  H   UNL     1       5.778   3.798  20.589  0.00  0.00    +0.000 HD
ENDBRANCH   4   6
BRANCH   1  21
ATOM     21  C   UNL     1       1.666   9.649  18.216  0.00  0.00    +0.000 C 
BRANCH  21  22
ATOM     22  O   UNL     1       0.326   9.701  17.731  0.00  0.00    +0.000 OA
BRANCH  22  27
ATOM     23  C   UNL     1      -3.402  13.064  20.425  0.00  0.00    +0.000 C 
ATOM     24  C   UNL     1      -2.410  12.171  19.742  0.00  0.00    +0.000 A 
ATOM     25  C   UNL     1      -1.128  12.003  20.265  0.00  0.00    +0.000 A 
ATOM     26  C   UNL     1      -0.203  11.180  19.619  0.00  0.00    +0.000 A 
ATOM     27  C   UNL     1      -0.537  10.507  18.434  0.00  0.00    +0.000 A 
ATOM     28  C   UNL     1      -1.830  10.658  17.906  0.00  0.00    +0.000 A 
ATOM     29  C   UNL     1      -2.269   9.964  16.646  0.00  0.00    +0.000 C 
ATOM     30  C   UNL     1      -2.753  11.493  18.567  0.00  0.00    +0.000 A 
ENDBRANCH  22  27
ENDBRANCH  21  22
ENDBRANCH   1  21
TORSDOF 4
ENDMDL
MODEL 3
REMARK VINA RESULT:      -8.0      3.328      8.958
REMARK  Name = 
REMARK  6 active torsions:
REMARK  status: ('A' for Active; 'I' for Inactive)
REMARK    1  A    between atoms: C_1  and  C_2
REMARK    2  A    between atoms: C_5  and  O_6
REMARK    3  A    between atoms: O_6  and  C_7
REMARK    4  A    between atoms: C_7  and  C_8
REMARK    5  A    between atoms: C_11  and  C_12
REMARK    6  A    between atoms: C_27  and  C_28
REMARK                            x       y       z     vdW  Elec       q    Type
REMARK                         _______ _______ _______ _____ _____    ______ ____
ROOT
ATOM      1  C   UNL     1       0.561   8.557  21.582  0.00  0.00    +0.000 A 
ATOM      2  C   UNL     1      -0.247   9.139  22.537  0.00  0.00    +0.000 A 
ATOM      3  C   UNL     1      -0.103  10.537  22.372  0.00  0.00    +0.000 A 
ATOM      4  C   UNL     1       0.655  10.737  21.231  0.00  0.00    +0.000 A 
ATOM      5  O   UNL     1       1.103   9.520  20.781  0.00  0.00    +0.000 OA
ENDROOT
BRANCH   4   6
ATOM      6  C   UNL     1       1.060  11.990  20.594  0.00  0.00    +0.000 C 
ATOM      7  O   UNL     1       1.934  12.688  21.105  0.00  0.00    +0.000 OA
ATOM      8  N   UNL     1       0.423  12.413  19.400  0.00  0.00    +0.000 N 
ATOM      9  C   UNL     1       0.762  13.713  18.828  0.00  0.00    +0.000 C 
ATOM     10  C   UNL     1      -0.353  14.753  18.793  0.00  0.00    +0.000 C 
ATOM     11  C   UNL     1      -1.320  14.732  19.954  0.00  0.00    +0.000 C 
ATOM     12  O   UNL     1      -1.571  15.754  20.603  0.00  0.00    +0.000 OA
ATOM     13  N   UNL     1      -2.077  13.607  20.153  0.00  0.00    +0.000 N 
ATOM     14  C   UNL     1      -2.026  12.464  19.338  0.00  0.00    +0.000 A 
ATOM     15  C   UNL     1      -3.226  11.948  18.860  0.00  0.00    +0.000 A 
ATOM     16  C   UNL     1      -3.208  10.915  17.921  0.00  0.00    +0.000 A 
ATOM     17  C   UNL     1      -1.999  10.348  17.519  0.00  0.00    +0.000 A 
ATOM     18  C   UNL     1      -0.796  10.819  18.040  0.00  0.00    +0.000 A 
ATOM     19  C   UNL     1      -0.805  11.880  18.952  0.00  0.00    +0.000 A 
ATOM     20  H   UNL     1      -2.912  13.786  20.700  0.00  0.00    +0.000 HD
ENDBRANCH   4   6
BRANCH   1  21
ATOM     21  C   UNL     1       0.995   7.153  21.386  0.00  0.00    +0.000 C 
BRANCH  21  22
ATOM     22  O   UNL     1       1.937   7.101  20.317  0.00  0.00    +0.000 OA
BRANCH  22  27
ATOM     23  C   UNL     1       2.606   2.160  17.558  0.00  0.00    +0.000 C 
ATOM     24  C   UNL     1       2.432   3.446  18.310  0.00  0.00    +0.000 A 
ATOM     25  C   UNL     1       1.773   3.467  19.538  0.00  0.00    +0.000 A 
ATOM     26  C   UNL     1       1.603   4.669  20.229  0.00  0.00    +0.000 A 
ATOM     27  C   UNL     1       2.087   5.878  19.708  0.00  0.00    +0.000 A 
ATOM     28  C   UNL     1       2.766   5.866  18.477  0.00  0.00    +0.000 A 
ATOM     29  C   UNL     1       3.323   7.118  17.854  0.00  0.00    +0.000 C 
ATOM     30  C   UNL     1       2.928   4.647  17.789  0.00  0.00    +0.000 A 
ENDBRANCH  22  27
ENDBRANCH  21  22
ENDBRANCH   1  21
TORSDOF 4
ENDMDL
MODEL 4
REMARK VINA RESULT:      -8.0      1.986      2.596
REMARK  Name = 
REMARK  6 active torsions:
REMARK  status: ('A' for Active; 'I' for Inactive)
REMARK    1  A    between atoms: C_1  and  C_2
REMARK    2  A    between atoms: C_5  and  O_6
REMARK    3  A    between atoms: O_6  and  C_7
REMARK    4  A    between atoms: C_7  and  C_8
REMARK    5  A    between atoms: C_11  and  C_12
REMARK    6  A    between atoms: C_27  and  C_28
REMARK                            x       y       z     vdW  Elec       q    Type
REMARK                         _______ _______ _______ _____ _____    ______ ____
ROOT
ATOM      1  C   UNL     1       1.984   8.288  17.955  0.00  0.00    +0.000 A 
ATOM      2  C   UNL     1       3.331   8.173  17.678  0.00  0.00    +0.000 A 
ATOM      3  C   UNL     1       3.644   6.801  17.815  0.00  0.00    +0.000 A 
ATOM      4  C   UNL     1       2.450   6.128  18.010  0.00  0.00    +0.000 A 
ATOM      5  O   UNL     1       1.442   7.050  18.147  0.00  0.00    +0.000 OA
ENDROOT
BRANCH   4   6
ATOM      6  C   UNL     1       2.208   4.694  18.167  0.00  0.00    +0.000 C 
ATOM      7  O   UNL     1       1.232   4.298  18.804  0.00  0.00    +0.000 OA
ATOM      8  N   UNL     1       3.115   3.759  17.609  0.00  0.00    +0.000 N 
ATOM      9  C   UNL     1       2.921   2.334  17.858  0.00  0.00    +0.000 C 
ATOM     10  C   UNL     1       4.007   1.630  18.666  0.00  0.00    +0.000 C 
ATOM     11  C   UNL     1       4.661   2.446  19.757  0.00  0.00    +0.000 C 
ATOM     12  O   UNL     1       4.741   2.026  20.917  0.00  0.00    +0.000 OA
ATOM     13  N   UNL     1       5.350   3.577  19.402  0.00  0.00    +0.000 N 
ATOM     14  C   UNL     1       5.505   4.027  18.081  0.00  0.00    +0.000 A 
ATOM     15  C   UNL     1       6.788   4.340  17.643  0.00  0.00    +0.000 A 
ATOM     16  C   UNL     1       7.004   4.636  16.295  0.00  0.00    +0.000 A 
ATOM     17  C   UNL     1       5.932   4.694  15.405  0.00  0.00    +0.000 A 
ATOM     18  C   UNL     1       4.636   4.442  15.849  0.00  0.00    +0.000 A 
ATOM     19  C   UNL     1       4.418   4.107  17.190  0.00  0.00    +0.000 A 
ATOM     20  H   UNL     1       6.025   3.862  20.102  0.00  0.00    +0.000 HD
ENDBRANCH   4   6
BRANCH   1  21
ATOM     21  C   UNL     1       1.125   9.474  18.179  0.00  0.00    +0.000 C 
BRANCH  21  22
ATOM     22  O   UNL     1       1.629  10.213  19.289  0.00  0.00    +0.000 OA
BRANCH  22  27
ATOM     23  C   UNL     1      -2.275  11.909  23.077  0.00  0.00    +0.000 C 
ATOM     24  C   UNL     1      -1.242  11.491  22.074  0.00  0.00    +0.000 A 
ATOM     25  C   UNL     1      -1.038  12.235  20.913  0.00  0.00    +0.000 A 
ATOM     26  C   UNL     1      -0.083  11.835  19.975  0.00  0.00    +0.000 A 
ATOM     27  C   UNL     1       0.689  10.681  20.176  0.00  0.00    +0.000 A 
ATOM     28  C   UNL     1       0.502   9.932  21.350  0.00  0.00    +0.000 A 
ATOM     29  C   UNL     1       1.296   8.688  21.644  0.00  0.00    +0.000 C 
ATOM     30  C   UNL     1      -0.466  10.345  22.286  0.00  0.00    +0.000 A 
ENDBRANCH  22  27
ENDBRANCH  21  22
ENDBRANCH   1  21
TORSDOF 4
ENDMDL
MODEL 5
REMARK VINA RESULT:      -8.0      2.038      2.433
REMARK  Name = 
REMARK  6 active torsions:
REMARK  status: ('A' for Active; 'I' for Inactive)
REMARK    1  A    between atoms: C_1  and  C_2
REMARK    2  A    between atoms: C_5  and  O_6
REMARK    3  A    between atoms: O_6  and  C_7
REMARK    4  A    between atoms: C_7  and  C_8
REMARK    5  A    between atoms: C_11  and  C_12
REMARK    6  A    between atoms: C_27  and  C_28
REMARK                            x       y       z     vdW  Elec       q    Type
REMARK                         _______ _______ _______ _____ _____    ______ ____
ROOT
ATOM      1  C   UNL     1       1.971   8.238  17.821  0.00  0.00    +0.000 A 
ATOM      2  C   UNL     1       3.349   8.153  17.834  0.00  0.00    +0.000 A 
ATOM      3  C   UNL     1       3.654   6.793  18.078  0.00  0.00    +0.000 A 
ATOM      4  C   UNL     1       2.460   6.093  18.042  0.00  0.00    +0.000 A 
ATOM      5  O   UNL     1       1.427   6.991  17.937  0.00  0.00    +0.000 OA
ENDROOT
BRANCH   4   6
ATOM      6  C   UNL     1       2.221   4.658  18.193  0.00  0.00    +0.000 C 
ATOM      7  O   UNL     1       1.247   4.258  18.830  0.00  0.00    +0.000 OA
ATOM      8  N   UNL     1       3.128   3.728  17.627  0.00  0.00    +0.000 N 
ATOM      9  C   UNL     1       2.937   2.301  17.870  0.00  0.00    +0.000 C 
ATOM     10  C   UNL     1       4.026   1.595  18.671  0.00  0.00    +0.000 C 
ATOM     11  C   UNL     1       4.681   2.406  19.765  0.00  0.00    +0.000 C 
ATOM     12  O   UNL     1       4.765   1.981  20.922  0.00  0.00    +0.000 OA
ATOM     13  N   UNL     1       5.368   3.540  19.414  0.00  0.00    +0.000 N 
ATOM     14  C   UNL     1       5.519   3.998  18.095  0.00  0.00    +0.000 A 
ATOM     15  C   UNL     1       6.800   4.314  17.655  0.00  0.00    +0.000 A 
ATOM     16  C   UNL     1       7.013   4.618  16.309  0.00  0.00    +0.000 A 
ATOM     17  C   UNL     1       5.939   4.680  15.421  0.00  0.00    +0.000 A 
ATOM     18  C   UNL     1       4.644   4.423  15.868  0.00  0.00    +0.000 A 
ATOM     19  C   UNL     1       4.430   4.080  17.207  0.00  0.00    +0.000 A 
ATOM     20  H   UNL     1       6.044   3.823  20.114  0.00  0.00    +0.000 HD
ENDBRANCH   4   6
BRANCH   1  21
ATOM     21  C   UNL     1       1.059   9.406  17.824  0.00  0.00    +0.000 C 
BRANCH  21  22
ATOM     22  O   UNL     1       1.533  10.366  18.765  0.00  0.00    +0.000 OA
BRANCH  22  27
ATOM     23  C   UNL     1      -1.802  11.548  23.232  0.00  0.00    +0.000 C 
ATOM     24  C   UNL     1      -0.932  11.209  22.058  0.00  0.00    +0.000 A 
ATOM     25  C   UNL     1      -0.271   9.984  21.995  0.00  0.00    +0.000 A 
ATOM     26  C   UNL     1       0.548   9.677  20.907  0.00  0.00    +0.000 A 
ATOM     27  C   UNL     1       0.726  10.588  19.855  0.00  0.00    +0.000 A 
ATOM     28  C   UNL     1       0.052  11.821  19.901  0.00  0.00    +0.000 A 
ATOM     29  C   UNL     1       0.183  12.848  18.810  0.00  0.00    +0.000 C 
ATOM     30  C   UNL     1      -0.769  12.118  21.007  0.00  0.00    +0.000 A 
ENDBRANCH  22  27
ENDBRANCH  21  22
ENDBRANCH   1  21
TORSDOF 4
ENDMDL
MODEL 6
REMARK VINA RESULT:      -8.0      1.323      2.013
REMARK  Name = 
REMARK  6 active torsions:
REMARK  status: ('A' for Active; 'I' for Inactive)
REMARK    1  A    between atoms: C_1  and  C_2
REMARK    2  A    between atoms: C_5  and  O_6
REMARK    3  A    between atoms: O_6  and  C_7
REMARK    4  A    between atoms: C_7  and  C_8
REMARK    5  A    between atoms: C_11  and  C_12
REMARK    6  A    between atoms: C_27  and  C_28
REMARK                            x       y       z     vdW  Elec       q    Type
REMARK                         _______ _______ _______ _____ _____    ______ ____
ROOT
ATOM      1  C   UNL     1       2.310   8.531  17.792  0.00  0.00    +0.000 A 
ATOM      2  C   UNL     1       3.663   8.330  17.610  0.00  0.00    +0.000 A 
ATOM      3  C   UNL     1       3.879   6.943  17.780  0.00  0.00    +0.000 A 
ATOM      4  C   UNL     1       2.635   6.347  17.897  0.00  0.00    +0.000 A 
ATOM      5  O   UNL     1       1.680   7.331  17.957  0.00  0.00    +0.000 OA
ENDROOT
BRANCH   4   6
ATOM      6  C   UNL     1       2.293   4.933  18.049  0.00  0.00    +0.000 C 
ATOM      7  O   UNL     1       1.305   4.603  18.704  0.00  0.00    +0.000 OA
ATOM      8  N   UNL     1       3.119   3.941  17.464  0.00  0.00    +0.000 N 
ATOM      9  C   UNL     1       2.828   2.531  17.708  0.00  0.00    +0.000 C 
ATOM     10  C   UNL     1       3.877   1.743  18.487  0.00  0.00    +0.000 C 
ATOM     11  C   UNL     1       4.610   2.501  19.570  0.00  0.00    +0.000 C 
ATOM     12  O   UNL     1       4.684   2.066  20.724  0.00  0.00    +0.000 OA
ATOM     13  N   UNL     1       5.372   3.582  19.208  0.00  0.00    +0.000 N 
ATOM     14  C   UNL     1       5.531   4.032  17.887  0.00  0.00    +0.000 A 
ATOM     15  C   UNL     1       6.824   4.255  17.425  0.00  0.00    +0.000 A 
ATOM     16  C   UNL     1       7.033   4.547  16.075  0.00  0.00    +0.000 A 
ATOM     17  C   UNL     1       5.950   4.690  15.208  0.00  0.00    +0.000 A 
ATOM     18  C   UNL     1       4.649   4.528  15.678  0.00  0.00    +0.000 A 
ATOM     19  C   UNL     1       4.435   4.197  17.021  0.00  0.00    +0.000 A 
ATOM     20  H   UNL     1       6.080   3.812  19.896  0.00  0.00    +0.000 HD
ENDBRANCH   4   6
BRANCH   1  21
ATOM     21  C   UNL     1       1.513   9.771  17.947  0.00  0.00    +0.000 C 
BRANCH  21  22
ATOM     22  O   UNL     1       0.126   9.446  17.880  0.00  0.00    +0.000 OA
BRANCH  22  27
ATOM     23  C   UNL     1      -3.530  13.055  20.345  0.00  0.00    +0.000 C 
ATOM     24  C   UNL     1      -2.560  12.096  19.722  0.00  0.00    +0.000 A 
ATOM     25  C   UNL     1      -1.351  11.801  20.351  0.00  0.00    +0.000 A 
ATOM     26  C   UNL     1      -0.444  10.917  19.762  0.00  0.00    +0.000 A 
ATOM     27  C   UNL     1      -0.725  10.307  18.531  0.00  0.00    +0.000 A 
ATOM     28  C   UNL     1      -1.947  10.585  17.895  0.00  0.00    +0.000 A 
ATOM     29  C   UNL     1      -2.327   9.966  16.578  0.00  0.00    +0.000 C 
ATOM     30  C   UNL     1      -2.851  11.482  18.499  0.00  0.00    +0.000 A 
ENDBRANCH  22  27
ENDBRANCH  21  22
ENDBRANCH   1  21
TORSDOF 4
ENDMDL
MODEL 7
REMARK VINA RESULT:      -7.9      2.057      2.817
REMARK  Name = 
REMARK  6 active torsions:
REMARK  status: ('A' for Active; 'I' for Inactive)
REMARK    1  A    between atoms: C_1  and  C_2
REMARK    2  A    between atoms: C_5  and  O_6
REMARK    3  A    between atoms: O_6  and  C_7
REMARK    4  A    between atoms: C_7  and  C_8
REMARK    5  A    between atoms: C_11  and  C_12
REMARK    6  A    between atoms: C_27  and  C_28
REMARK                            x       y       z     vdW  Elec       q    Type
REMARK                         _______ _______ _______ _____ _____    ______ ____
ROOT
ATOM      1  C   UNL     1       2.099   7.987  18.616  0.00  0.00    +0.000 A 
ATOM      2  C   UNL     1       2.154   7.874  19.990  0.00  0.00    +0.000 A 
ATOM      3  C   UNL     1       2.012   6.496  20.276  0.00  0.00    +0.000 A 
ATOM      4  C   UNL     1       2.039   5.824  19.065  0.00  0.00    +0.000 A 
ATOM      5  O   UNL     1       2.038   6.747  18.049  0.00  0.00    +0.000 OA
ENDROOT
BRANCH   4   6
ATOM      6  C   UNL     1       1.969   4.387  18.800  0.00  0.00    +0.000 C 
ATOM      7  O   UNL     1       1.066   3.711  19.292  0.00  0.00    +0.000 OA
ATOM      8  N   UNL     1       2.961   3.769  17.998  0.00  0.00    +0.000 N 
ATOM      9  C   UNL     1       2.941   2.319  17.823  0.00  0.00    +0.000 C 
ATOM     10  C   UNL     1       4.126   1.548  18.397  0.00  0.00    +0.000 C 
ATOM     11  C   UNL     1       4.715   2.088  19.679  0.00  0.00    +0.000 C 
ATOM     12  O   UNL     1       4.879   1.365  20.668  0.00  0.00    +0.000 OA
ATOM     13  N   UNL     1       5.257   3.347  19.670  0.00  0.00    +0.000 N 
ATOM     14  C   UNL     1       5.317   4.174  18.536  0.00  0.00    +0.000 A 
ATOM     15  C   UNL     1       6.541   4.751  18.212  0.00  0.00    +0.000 A 
ATOM     16  C   UNL     1       6.679   5.446  17.008  0.00  0.00    +0.000 A 
ATOM     17  C   UNL     1       5.580   5.630  16.170  0.00  0.00    +0.000 A 
ATOM     18  C   UNL     1       4.337   5.106  16.518  0.00  0.00    +0.000 A 
ATOM     19  C   UNL     1       4.201   4.376  17.703  0.00  0.00    +0.000 A 
ATOM     20  H   UNL     1       5.916   3.497  20.425  0.00  0.00    +0.000 HD
ENDBRANCH   4   6
BRANCH   1  21
ATOM     21  C   UNL     1       1.980   9.171  17.732  0.00  0.00    +0.000 C 
BRANCH  21  22
ATOM     22  O   UNL     1       0.957  10.028  18.234  0.00  0.00    +0.000 OA
BRANCH  22  27
ATOM     23  C   UNL     1       2.497  14.958  20.640  0.00  0.00    +0.000 C 
ATOM     24  C   UNL     1       2.119  13.657  19.996  0.00  0.00    +0.000 A 
ATOM     25  C   UNL     1       2.664  13.289  18.766  0.00  0.00    +0.000 A 
ATOM     26  C   UNL     1       2.299  12.083  18.164  0.00  0.00    +0.000 A 
ATOM     27  C   UNL     1       1.381  11.217  18.776  0.00  0.00    +0.000 A 
ATOM     28  C   UNL     1       0.837  11.572  20.022  0.00  0.00    +0.000 A 
ATOM     29  C   UNL     1      -0.147  10.694  20.748  0.00  0.00    +0.000 C 
ATOM     30  C   UNL     1       1.211  12.792  20.618  0.00  0.00    +0.000 A 
ENDBRANCH  22  27
ENDBRANCH  21  22
ENDBRANCH   1  21
TORSDOF 4
ENDMDL
MODEL 8
REMARK VINA RESULT:      -7.9      1.832      2.611
REMARK  Name = 
REMARK  6 active torsions:
REMARK  status: ('A' for Active; 'I' for Inactive)
REMARK    1  A    between atoms: C_1  and  C_2
REMARK    2  A    between atoms: C_5  and  O_6
REMARK    3  A    between atoms: O_6  and  C_7
REMARK    4  A    between atoms: C_7  and  C_8
REMARK    5  A    between atoms: C_11  and  C_12
REMARK    6  A    between atoms: C_27  and  C_28
REMARK                            x       y       z     vdW  Elec       q    Type
REMARK                         _______ _______ _______ _____ _____    ______ ____
ROOT
ATOM      1  C   UNL     1       1.916   7.814  19.688  0.00  0.00    +0.000 A 
ATOM      2  C   UNL     1       2.431   7.949  18.415  0.00  0.00    +0.000 A 
ATOM      3  C   UNL     1       2.636   6.634  17.935  0.00  0.00    +0.000 A 
ATOM      4  C   UNL     1       2.091   5.769  18.869  0.00  0.00    +0.000 A 
ATOM      5  O   UNL     1       1.699   6.495  19.965  0.00  0.00    +0.000 OA
ENDROOT
BRANCH   4   6
ATOM      6  C   UNL     1       2.001   4.309  18.839  0.00  0.00    +0.000 C 
ATOM      7  O   UNL     1       1.114   3.733  19.468  0.00  0.00    +0.000 OA
ATOM      8  N   UNL     1       2.954   3.558  18.109  0.00  0.00    +0.000 N 
ATOM      9  C   UNL     1       2.917   2.099  18.169  0.00  0.00    +0.000 C 
ATOM     10  C   UNL     1       4.119   1.414  18.811  0.00  0.00    +0.000 C 
ATOM     11  C   UNL     1       4.763   2.143  19.967  0.00  0.00    +0.000 C 
ATOM     12  O   UNL     1       4.963   1.585  21.052  0.00  0.00    +0.000 OA
ATOM     13  N   UNL     1       5.314   3.377  19.735  0.00  0.00    +0.000 N 
ATOM     14  C   UNL     1       5.333   4.012  18.482  0.00  0.00    +0.000 A 
ATOM     15  C   UNL     1       6.547   4.513  18.022  0.00  0.00    +0.000 A 
ATOM     16  C   UNL     1       6.641   5.005  16.719  0.00  0.00    +0.000 A 
ATOM     17  C   UNL     1       5.510   5.068  15.905  0.00  0.00    +0.000 A 
ATOM     18  C   UNL     1       4.278   4.623  16.380  0.00  0.00    +0.000 A 
ATOM     19  C   UNL     1       4.186   4.093  17.671  0.00  0.00    +0.000 A 
ATOM     20  H   UNL     1       6.004   3.637  20.430  0.00  0.00    +0.000 HD
ENDBRANCH   4   6
BRANCH   1  21
ATOM     21  C   UNL     1       1.693   8.805  20.768  0.00  0.00    +0.000 C 
BRANCH  21  22
ATOM     22  O   UNL     1       0.981   9.921  20.238  0.00  0.00    +0.000 OA
BRANCH  22  27
ATOM     23  C   UNL     1      -2.941  12.450  23.507  0.00  0.00    +0.000 C 
ATOM     24  C   UNL     1      -1.915  11.759  22.660  0.00  0.00    +0.000 A 
ATOM     25  C   UNL     1      -1.159  10.708  23.177  0.00  0.00    +0.000 A 
ATOM     26  C   UNL     1      -0.195  10.075  22.388  0.00  0.00    +0.000 A 
ATOM     27  C   UNL     1       0.035  10.479  21.065  0.00  0.00    +0.000 A 
ATOM     28  C   UNL     1      -0.731  11.528  20.529  0.00  0.00    +0.000 A 
ATOM     29  C   UNL     1      -0.551  12.014  19.117  0.00  0.00    +0.000 C 
ATOM     30  C   UNL     1      -1.698  12.159  21.336  0.00  0.00    +0.000 A 
ENDBRANCH  22  27
ENDBRANCH  21  22
ENDBRANCH   1  21
TORSDOF 4
ENDMDL
MODEL 9
REMARK VINA RESULT:      -7.9      7.540     10.983
REMARK  Name = 
REMARK  6 active torsions:
REMARK  status: ('A' for Active; 'I' for Inactive)
REMARK    1  A    between atoms: C_1  and  C_2
REMARK    2  A    between atoms: C_5  and  O_6
REMARK    3  A    between atoms: O_6  and  C_7
REMARK    4  A    between atoms: C_7  and  C_8
REMARK    5  A    between atoms: C_11  and  C_12
REMARK    6  A    between atoms: C_27  and  C_28
REMARK                            x       y       z     vdW  Elec       q    Type
REMARK                         _______ _______ _______ _____ _____    ______ ____
ROOT
ATOM      1  C   UNL     1       8.849  10.157  18.374  0.00  0.00    +0.000 A 
ATOM      2  C   UNL     1       9.356  10.185  19.657  0.00  0.00    +0.000 A 
ATOM      3  C   UNL     1      10.320  11.220  19.674  0.00  0.00    +0.000 A 
ATOM      4  C   UNL     1      10.239  11.873  18.456  0.00  0.00    +0.000 A 
ATOM      5  O   UNL     1       9.373  11.184  17.644  0.00  0.00    +0.000 OA
ENDROOT
BRANCH   4   6
ATOM      6  C   UNL     1      10.984  13.036  17.975  0.00  0.00    +0.000 C 
ATOM      7  O   UNL     1      12.168  12.924  17.658  0.00  0.00    +0.000 OA
ATOM      8  N   UNL     1      10.349  14.301  17.903  0.00  0.00    +0.000 N 
ATOM      9  C   UNL     1      11.129  15.475  17.519  0.00  0.00    +0.000 C 
ATOM     10  C   UNL     1      11.291  16.560  18.580  0.00  0.00    +0.000 C 
ATOM     11  C   UNL     1      11.404  16.083  20.009  0.00  0.00    +0.000 C 
ATOM     12  O   UNL     1      12.333  16.448  20.739  0.00  0.00    +0.000 OA
ATOM     13  N   UNL     1      10.349  15.400  20.555  0.00  0.00    +0.000 N 
ATOM     14  C   UNL     1       9.151  15.121  19.877  0.00  0.00    +0.000 A 
ATOM     15  C   UNL     1       7.953  15.438  20.509  0.00  0.00    +0.000 A 
ATOM     16  C   UNL     1       6.751  15.325  19.806  0.00  0.00    +0.000 A 
ATOM     17  C   UNL     1       6.739  14.825  18.504  0.00  0.00    +0.000 A 
ATOM     18  C   UNL     1       7.930  14.448  17.886  0.00  0.00    +0.000 A 
ATOM     19  C   UNL     1       9.141  14.595  18.571  0.00  0.00    +0.000 A 
ATOM     20  H   UNL     1      10.348  15.422  21.568  0.00  0.00    +0.000 HD
ENDBRANCH   4   6
BRANCH   1  21
ATOM     21  C   UNL     1       7.976   9.177  17.683  0.00  0.00    +0.000 C 
BRANCH  21  22
ATOM     22  O   UNL     1       8.175   7.888  18.259  0.00  0.00    +0.000 OA
BRANCH  22  27
ATOM     23  C   UNL     1       4.521   3.718  16.945  0.00  0.00    +0.000 C 
ATOM     24  C   UNL     1       5.463   4.835  17.283  0.00  0.00    +0.000 A 
ATOM     25  C   UNL     1       5.463   6.013  16.538  0.00  0.00    +0.000 A 
ATOM     26  C   UNL     1       6.350   7.046  16.848  0.00  0.00    +0.000 A 
ATOM     27  C   UNL     1       7.258   6.926  17.910  0.00  0.00    +0.000 A 
ATOM     28  C   UNL     1       7.257   5.748  18.677  0.00  0.00    +0.000 A 
ATOM     29  C   UNL     1       8.193   5.544  19.837  0.00  0.00    +0.000 C 
ATOM     30  C   UNL     1       6.358   4.713  18.352  0.00  0.00    +0.000 A 
ENDBRANCH  22  27
ENDBRANCH  21  22
ENDBRANCH   1  21
TORSDOF 4
ENDMDL
