MODEL 1
REMARK VINA RESULT:      -9.3      0.000      0.000
REMARK  Name = 
REMARK  9 active torsions:
REMARK  status: ('A' for Active; 'I' for Inactive)
REMARK    1  A    between atoms: C_1  and  C_2
REMARK    2  A    between atoms: C_5  and  C_6
REMARK    3  A    between atoms: C_6  and  N_7
REMARK    4  A    between atoms: C_6  and  C_23
REMARK    5  A    between atoms: N_7  and  C_8
REMARK    6  A    between atoms: C_8  and  C_9
REMARK    7  A    between atoms: C_11  and  C_12
REMARK    8  A    between atoms: C_12  and  O_13
REMARK    9  A    between atoms: O_13  and  C_14
REMARK                            x       y       z     vdW  Elec       q    Type
REMARK                         _______ _______ _______ _____ _____    ______ ____
ROOT
ATOM      1  N   UNL     1       3.811   6.001  17.352  0.00  0.00    +0.000 NA
ATOM      2  H   UNL     1       3.850   6.927  16.936  0.00  0.00    +0.000 HD
ENDROOT
BRANCH   1   3
ATOM      3  C   UNL     1       3.329   6.149  18.744  0.00  0.00    +0.000 C 
BRANCH   3   8
ATOM      4  C   UNL     1      -0.060  10.889  19.136  0.00  0.00    +0.000 C 
ATOM      5  C   UNL     1       0.869   9.714  19.069  0.00  0.00    +0.000 A 
ATOM      6  C   UNL     1       1.098   8.917  20.195  0.00  0.00    +0.000 A 
ATOM      7  C   UNL     1       1.929   7.799  20.110  0.00  0.00    +0.000 A 
ATOM      8  C   UNL     1       2.535   7.449  18.892  0.00  0.00    +0.000 A 
ATOM      9  C   UNL     1       2.335   8.276  17.776  0.00  0.00    +0.000 A 
ATOM     10  C   UNL     1       1.511   9.399  17.867  0.00  0.00    +0.000 A 
ENDBRANCH   3   8
BRANCH   3  11
ATOM     11  C   UNL     1       2.559   4.904  19.221  0.00  0.00    +0.000 A 
ATOM     12  C   UNL     1       2.525   4.535  20.579  0.00  0.00    +0.000 A 
ATOM     13  C   UNL     1       1.776   3.439  21.014  0.00  0.00    +0.000 A 
ATOM     14  C   UNL     1       1.029   2.697  20.104  0.00  0.00    +0.000 A 
ATOM     15  C   UNL     1       1.025   3.055  18.760  0.00  0.00    +0.000 A 
ATOM     16  C   UNL     1       1.774   4.152  18.325  0.00  0.00    +0.000 A 
ENDBRANCH   3  11
ENDBRANCH   1   3
BRANCH   1  17
ATOM     17  C   UNL     1       5.142   5.379  17.238  0.00  0.00    +0.000 C 
BRANCH  17  18
ATOM     18  C   UNL     1       6.282   6.271  17.587  0.00  0.00    +0.000 A 
ATOM     19  N   UNL     1       6.517   7.516  17.237  0.00  0.00    +0.000 NA
ATOM     20  C   UNL     1       7.676   7.795  17.918  0.00  0.00    +0.000 A 
ATOM     21  N   UNL     1       8.139   6.791  18.676  0.00  0.00    +0.000 NA
ATOM     22  O   UNL     1       7.214   5.769  18.452  0.00  0.00    +0.000 OA
BRANCH  20  23
ATOM     23  C   UNL     1       8.315   9.138  17.872  0.00  0.00    +0.000 C 
BRANCH  23  24
ATOM     24  O   UNL     1       8.996   9.441  19.094  0.00  0.00    +0.000 OA
BRANCH  24  25
ATOM     25  C   UNL     1       9.640  10.644  19.157  0.00  0.00    +0.000 A 
ATOM     26  C   UNL     1      10.180  11.344  18.073  0.00  0.00    +0.000 A 
ATOM     27  C   UNL     1      10.812  12.573  18.279  0.00  0.00    +0.000 A 
ATOM     28  C   UNL     1      10.903  13.093  19.565  0.00  0.00    +0.000 A 
ATOM     29  F   UNL     1      11.506  14.275  19.756  0.00  0.00    +0.000 F 
ATOM     30  C   UNL     1      10.377  12.408  20.652  0.00  0.00    +0.000 A 
ATOM     31  C   UNL     1       9.747  11.180  20.445  0.00  0.00    +0.000 A 
ENDBRANCH  24  25
ENDBRANCH  23  24
ENDBRANCH  20  23
ENDBRANCH  17  18
ENDBRANCH   1  17
TORSDOF 8
ENDMDL
MODEL 2
REMARK VINA RESULT:      -9.2      0.527      1.291
REMARK  Name = 
REMARK  9 active torsions:
REMARK  status: ('A' for Active; 'I' for Inactive)
REMARK    1  A    between atoms: C_1  and  C_2
REMARK    2  A    between atoms: C_5  and  C_6
REMARK    3  A    between atoms: C_6  and  N_7
REMARK    4  A    between atoms: C_6  and  C_23
REMARK    5  A    between atoms: N_7  and  C_8
REMARK    6  A    between atoms: C_8  and  C_9
REMARK    7  A    between atoms: C_11  and  C_12
REMARK    8  A    between atoms: C_12  and  O_13
REMARK    9  A    between atoms: O_13  and  C_14
REMARK                            x       y       z     vdW  Elec       q    Type
REMARK                         _______ _______ _______ _____ _____    ______ ____
ROOT
ATOM      1  N   UNL     1       4.019   5.653  17.365  0.00  0.00    +0.000 NA
ATOM      2  H   UNL     1       4.015   6.561  16.909  0.00  0.00    +0.000 HD
ENDROOT
BRANCH   1   3
ATOM      3  C   UNL     1       3.471   5.828  18.729  0.00  0.00    +0.000 C 
BRANCH   3   8
ATOM      4  C   UNL     1       0.386  10.784  18.923  0.00  0.00    +0.000 C 
ATOM      5  C   UNL     1       1.234   9.547  18.917  0.00  0.00    +0.000 A 
ATOM      6  C   UNL     1       1.251   8.684  20.017  0.00  0.00    +0.000 A 
ATOM      7  C   UNL     1       2.009   7.513  19.983  0.00  0.00    +0.000 A 
ATOM      8  C   UNL     1       2.753   7.175  18.841  0.00  0.00    +0.000 A 
ATOM      9  C   UNL     1       2.766   8.066  17.756  0.00  0.00    +0.000 A 
ATOM     10  C   UNL     1       2.015   9.241  17.797  0.00  0.00    +0.000 A 
ENDBRANCH   3   8
BRANCH   3  11
ATOM     11  C   UNL     1       2.599   4.633  19.156  0.00  0.00    +0.000 A 
ATOM     12  C   UNL     1       1.746   3.982  18.244  0.00  0.00    +0.000 A 
ATOM     13  C   UNL     1       1.002   2.862  18.621  0.00  0.00    +0.000 A 
ATOM     14  C   UNL     1       1.108   2.354  19.913  0.00  0.00    +0.000 A 
ATOM     15  C   UNL     1       1.962   2.964  20.825  0.00  0.00    +0.000 A 
ATOM     16  C   UNL     1       2.707   4.085  20.448  0.00  0.00    +0.000 A 
ENDBRANCH   3  11
ENDBRANCH   1   3
BRANCH   1  17
ATOM     17  C   UNL     1       5.391   5.117  17.330  0.00  0.00    +0.000 C 
BRANCH  17  18
ATOM     18  C   UNL     1       6.457   6.103  17.660  0.00  0.00    +0.000 A 
ATOM     19  N   UNL     1       6.644   7.325  17.211  0.00  0.00    +0.000 NA
ATOM     20  C   UNL     1       7.742   7.731  17.928  0.00  0.00    +0.000 A 
ATOM     21  N   UNL     1       8.212   6.827  18.799  0.00  0.00    +0.000 NA
ATOM     22  O   UNL     1       7.360   5.736  18.618  0.00  0.00    +0.000 OA
BRANCH  20  23
ATOM     23  C   UNL     1       8.309   9.100  17.795  0.00  0.00    +0.000 C 
BRANCH  23  24
ATOM     24  O   UNL     1       8.714   9.630  19.062  0.00  0.00    +0.000 OA
BRANCH  24  25
ATOM     25  C   UNL     1       9.517  10.735  19.039  0.00  0.00    +0.000 A 
ATOM     26  C   UNL     1      10.441  11.099  20.024  0.00  0.00    +0.000 A 
ATOM     27  C   UNL     1      11.205  12.258  19.871  0.00  0.00    +0.000 A 
ATOM     28  C   UNL     1      11.041  13.047  18.738  0.00  0.00    +0.000 A 
ATOM     29  F   UNL     1      11.780  14.155  18.594  0.00  0.00    +0.000 F 
ATOM     30  C   UNL     1      10.124  12.702  17.754  0.00  0.00    +0.000 A 
ATOM     31  C   UNL     1       9.361  11.544  17.908  0.00  0.00    +0.000 A 
ENDBRANCH  24  25
ENDBRANCH  23  24
ENDBRANCH  20  23
ENDBRANCH  17  18
ENDBRANCH   1  17
TORSDOF 8
ENDMDL
MODEL 3
REMARK VINA RESULT:      -8.7      0.932      1.258
REMARK  Name = 
REMARK  9 active torsions:
REMARK  status: ('A' for Active; 'I' for Inactive)
REMARK    1  A    between atoms: C_1  and  C_2
REMARK    2  A    between atoms: C_5  and  C_6
REMARK    3  A    between atoms: C_6  and  N_7
REMARK    4  A    between atoms: C_6  and  C_23
REMARK    5  A    between atoms: N_7  and  C_8
REMARK    6  A    between atoms: C_8  and  C_9
REMARK    7  A    between atoms: C_11  and  C_12
REMARK    8  A    between atoms: C_12  and  O_13
REMARK    9  A    between atoms: O_13  and  C_14
REMARK                            x       y       z     vdW  Elec       q    Type
REMARK                         _______ _______ _______ _____ _____    ______ ____
ROOT
ATOM      1  N   UNL     1       3.258   6.306  17.462  0.00  0.00    +0.000 NA
ATOM      2  H   UNL     1       3.403   7.254  17.128  0.00  0.00    +0.000 HD
ENDROOT
BRANCH   1   3
ATOM      3  C   UNL     1       2.980   6.374  18.914  0.00  0.00    +0.000 C 
BRANCH   3   8
ATOM      4  C   UNL     1      -0.483  10.952  19.988  0.00  0.00    +0.000 C 
ATOM      5  C   UNL     1       0.466   9.817  19.745  0.00  0.00    +0.000 A 
ATOM      6  C   UNL     1       0.807   8.935  20.775  0.00  0.00    +0.000 A 
ATOM      7  C   UNL     1       1.656   7.856  20.527  0.00  0.00    +0.000 A 
ATOM      8  C   UNL     1       2.169   7.630  19.238  0.00  0.00    +0.000 A 
ATOM      9  C   UNL     1       1.858   8.543  18.219  0.00  0.00    +0.000 A 
ATOM     10  C   UNL     1       1.016   9.627  18.472  0.00  0.00    +0.000 A 
ENDBRANCH   3   8
BRANCH   3  11
ATOM     11  C   UNL     1       2.336   5.078  19.438  0.00  0.00    +0.000 A 
ATOM     12  C   UNL     1       2.443   4.696  20.789  0.00  0.00    +0.000 A 
ATOM     13  C   UNL     1       1.807   3.550  21.271  0.00  0.00    +0.000 A 
ATOM     14  C   UNL     1       1.033   2.768  20.418  0.00  0.00    +0.000 A 
ATOM     15  C   UNL     1       0.892   3.136  19.084  0.00  0.00    +0.000 A 
ATOM     16  C   UNL     1       1.528   4.283  18.602  0.00  0.00    +0.000 A 
ENDBRANCH   3  11
ENDBRANCH   1   3
BRANCH   1  17
ATOM     17  C   UNL     1       4.439   5.498  17.110  0.00  0.00    +0.000 C 
BRANCH  17  18
ATOM     18  C   UNL     1       5.733   6.235  17.143  0.00  0.00    +0.000 A 
ATOM     19  N   UNL     1       6.196   7.087  18.030  0.00  0.00    +0.000 NA
ATOM     20  C   UNL     1       7.447   7.365  17.538  0.00  0.00    +0.000 A 
ATOM     21  N   UNL     1       7.770   6.709  16.414  0.00  0.00    +0.000 NA
ATOM     22  O   UNL     1       6.624   5.958  16.145  0.00  0.00    +0.000 OA
BRANCH  20  23
ATOM     23  C   UNL     1       8.392   8.268  18.250  0.00  0.00    +0.000 C 
BRANCH  23  24
ATOM     24  O   UNL     1       8.267   9.622  17.804  0.00  0.00    +0.000 OA
BRANCH  24  25
ATOM     25  C   UNL     1       8.936  10.572  18.524  0.00  0.00    +0.000 A 
ATOM     26  C   UNL     1       9.449  10.413  19.815  0.00  0.00    +0.000 A 
ATOM     27  C   UNL     1      10.120  11.469  20.436  0.00  0.00    +0.000 A 
ATOM     28  C   UNL     1      10.271  12.678  19.765  0.00  0.00    +0.000 A 
ATOM     29  F   UNL     1      10.920  13.686  20.363  0.00  0.00    +0.000 F 
ATOM     30  C   UNL     1       9.762  12.853  18.485  0.00  0.00    +0.000 A 
ATOM     31  C   UNL     1       9.093  11.797  17.866  0.00  0.00    +0.000 A 
ENDBRANCH  24  25
ENDBRANCH  23  24
ENDBRANCH  20  23
ENDBRANCH  17  18
ENDBRANCH   1  17
TORSDOF 8
ENDMDL
MODEL 4
REMARK VINA RESULT:      -8.4      5.642      9.171
REMARK  Name = 
REMARK  9 active torsions:
REMARK  status: ('A' for Active; 'I' for Inactive)
REMARK    1  A    between atoms: C_1  and  C_2
REMARK    2  A    between atoms: C_5  and  C_6
REMARK    3  A    between atoms: C_6  and  N_7
REMARK    4  A    between atoms: C_6  and  C_23
REMARK    5  A    between atoms: N_7  and  C_8
REMARK    6  A    between atoms: C_8  and  C_9
REMARK    7  A    between atoms: C_11  and  C_12
REMARK    8  A    between atoms: C_12  and  O_13
REMARK    9  A    between atoms: O_13  and  C_14
REMARK                            x       y       z     vdW  Elec       q    Type
REMARK                         _______ _______ _______ _____ _____    ______ ____
ROOT
ATOM      1  N   UNL     1       2.667   7.379  19.063  0.00  0.00    +0.000 NA
ATOM      2  H   UNL     1       3.666   7.554  19.111  0.00  0.00    +0.000 HD
ENDROOT
BRANCH   1   3
ATOM      3  C   UNL     1       2.465   6.101  18.343  0.00  0.00    +0.000 C 
BRANCH   3   8
ATOM      4  C   UNL     1       6.954   4.734  14.865  0.00  0.00    +0.000 C 
ATOM      5  C   UNL     1       5.853   5.093  15.818  0.00  0.00    +0.000 A 
ATOM      6  C   UNL     1       5.600   6.428  16.149  0.00  0.00    +0.000 A 
ATOM      7  C   UNL     1       4.544   6.755  17.001  0.00  0.00    +0.000 A 
ATOM      8  C   UNL     1       3.712   5.752  17.527  0.00  0.00    +0.000 A 
ATOM      9  C   UNL     1       3.998   4.412  17.225  0.00  0.00    +0.000 A 
ATOM     10  C   UNL     1       5.060   4.088  16.380  0.00  0.00    +0.000 A 
ENDBRANCH   3   8
BRANCH   3  11
ATOM     11  C   UNL     1       2.018   4.973  19.289  0.00  0.00    +0.000 A 
ATOM     12  C   UNL     1       1.247   3.888  18.829  0.00  0.00    +0.000 A 
ATOM     13  C   UNL     1       0.894   2.837  19.679  0.00  0.00    +0.000 A 
ATOM     14  C   UNL     1       1.320   2.835  21.004  0.00  0.00    +0.000 A 
ATOM     15  C   UNL     1       2.104   3.882  21.477  0.00  0.00    +0.000 A 
ATOM     16  C   UNL     1       2.457   4.934  20.627  0.00  0.00    +0.000 A 
ENDBRANCH   3  11
ENDBRANCH   1   3
BRANCH   1  17
ATOM     17  C   UNL     1       2.017   8.539  18.427  0.00  0.00    +0.000 C 
BRANCH  17  18
ATOM     18  C   UNL     1       1.135   9.333  19.326  0.00  0.00    +0.000 A 
ATOM     19  N   UNL     1       0.530  10.480  19.117  0.00  0.00    +0.000 NA
ATOM     20  C   UNL     1      -0.171  10.656  20.284  0.00  0.00    +0.000 A 
ATOM     21  N   UNL     1      -0.036   9.665  21.176  0.00  0.00    +0.000 NA
ATOM     22  O   UNL     1       0.841   8.782  20.542  0.00  0.00    +0.000 OA
BRANCH  20  23
ATOM     23  C   UNL     1      -1.069  11.823  20.497  0.00  0.00    +0.000 C 
BRANCH  23  24
ATOM     24  O   UNL     1      -1.642  12.281  19.267  0.00  0.00    +0.000 OA
BRANCH  24  25
ATOM     25  C   UNL     1      -2.954  11.970  19.046  0.00  0.00    +0.000 A 
ATOM     26  C   UNL     1      -4.046  12.458  19.770  0.00  0.00    +0.000 A 
ATOM     27  C   UNL     1      -5.342  12.060  19.432  0.00  0.00    +0.000 A 
ATOM     28  C   UNL     1      -5.538  11.177  18.377  0.00  0.00    +0.000 A 
ATOM     29  F   UNL     1      -6.784  10.803  18.055  0.00  0.00    +0.000 F 
ATOM     30  C   UNL     1      -4.464  10.679  17.652  0.00  0.00    +0.000 A 
ATOM     31  C   UNL     1      -3.170  11.077  17.991  0.00  0.00    +0.000 A 
ENDBRANCH  24  25
ENDBRANCH  23  24
ENDBRANCH  20  23
ENDBRANCH  17  18
ENDBRANCH   1  17
TORSDOF 8
ENDMDL
MODEL 5
REMARK VINA RESULT:      -8.4      5.207      6.765
REMARK  Name = 
REMARK  9 active torsions:
REMARK  status: ('A' for Active; 'I' for Inactive)
REMARK    1  A    between atoms: C_1  and  C_2
REMARK    2  A    between atoms: C_5  and  C_6
REMARK    3  A    between atoms: C_6  and  N_7
REMARK    4  A    between atoms: C_6  and  C_23
REMARK    5  A    between atoms: N_7  and  C_8
REMARK    6  A    between atoms: C_8  and  C_9
REMARK    7  A    between atoms: C_11  and  C_12
REMARK    8  A    between atoms: C_12  and  O_13
REMARK    9  A    between atoms: O_13  and  C_14
REMARK                            x       y       z     vdW  Elec       q    Type
REMARK                         _______ _______ _______ _____ _____    ______ ____
ROOT
ATOM      1  N   UNL     1       4.241   6.218  18.886  0.00  0.00    +0.000 NA
ATOM      2  H   UNL     1       4.836   6.990  19.172  0.00  0.00    +0.000 HD
ENDROOT
BRANCH   1   3
ATOM      3  C   UNL     1       3.046   6.219  19.761  0.00  0.00    +0.000 C 
BRANCH   3   8
ATOM      4  C   UNL     1       0.107  11.182  18.840  0.00  0.00    +0.000 C 
ATOM      5  C   UNL     1       0.800   9.868  19.044  0.00  0.00    +0.000 A 
ATOM      6  C   UNL     1       1.468   9.239  17.989  0.00  0.00    +0.000 A 
ATOM      7  C   UNL     1       2.148   8.039  18.201  0.00  0.00    +0.000 A 
ATOM      8  C   UNL     1       2.186   7.454  19.477  0.00  0.00    +0.000 A 
ATOM      9  C   UNL     1       1.478   8.067  20.522  0.00  0.00    +0.000 A 
ATOM     10  C   UNL     1       0.791   9.262  20.305  0.00  0.00    +0.000 A 
ENDBRANCH   3   8
BRANCH   3  11
ATOM     11  C   UNL     1       2.265   4.896  19.669  0.00  0.00    +0.000 A 
ATOM     12  C   UNL     1       1.871   4.193  20.824  0.00  0.00    +0.000 A 
ATOM     13  C   UNL     1       1.112   3.023  20.737  0.00  0.00    +0.000 A 
ATOM     14  C   UNL     1       0.712   2.539  19.495  0.00  0.00    +0.000 A 
ATOM     15  C   UNL     1       1.067   3.229  18.340  0.00  0.00    +0.000 A 
ATOM     16  C   UNL     1       1.827   4.399  18.427  0.00  0.00    +0.000 A 
ENDBRANCH   3  11
ENDBRANCH   1   3
BRANCH   1  17
ATOM     17  C   UNL     1       5.027   4.973  18.943  0.00  0.00    +0.000 C 
BRANCH  17  18
ATOM     18  C   UNL     1       6.026   4.814  17.850  0.00  0.00    +0.000 A 
ATOM     19  N   UNL     1       5.933   5.109  16.572  0.00  0.00    +0.000 NA
ATOM     20  C   UNL     1       7.186   4.791  16.110  0.00  0.00    +0.000 A 
ATOM     21  N   UNL     1       8.035   4.342  17.046  0.00  0.00    +0.000 NA
ATOM     22  O   UNL     1       7.261   4.349  18.208  0.00  0.00    +0.000 OA
BRANCH  20  23
ATOM     23  C   UNL     1       7.583   5.009  14.693  0.00  0.00    +0.000 C 
BRANCH  23  24
ATOM     24  O   UNL     1       6.442   5.085  13.830  0.00  0.00    +0.000 OA
BRANCH  24  25
ATOM     25  C   UNL     1       6.263   4.052  12.955  0.00  0.00    +0.000 A 
ATOM     26  C   UNL     1       5.042   3.449  12.635  0.00  0.00    +0.000 A 
ATOM     27  C   UNL     1       5.001   2.399  11.715  0.00  0.00    +0.000 A 
ATOM     28  C   UNL     1       6.178   1.956  11.121  0.00  0.00    +0.000 A 
ATOM     29  F   UNL     1       6.131   0.952  10.236  0.00  0.00    +0.000 F 
ATOM     30  C   UNL     1       7.398   2.541  11.433  0.00  0.00    +0.000 A 
ATOM     31  C   UNL     1       7.438   3.589  12.353  0.00  0.00    +0.000 A 
ENDBRANCH  24  25
ENDBRANCH  23  24
ENDBRANCH  20  23
ENDBRANCH  17  18
ENDBRANCH   1  17
TORSDOF 8
ENDMDL
MODEL 6
REMARK VINA RESULT:      -8.3      0.778      1.453
REMARK  Name = 
REMARK  9 active torsions:
REMARK  status: ('A' for Active; 'I' for Inactive)
REMARK    1  A    between atoms: C_1  and  C_2
REMARK    2  A    between atoms: C_5  and  C_6
REMARK    3  A    between atoms: C_6  and  N_7
REMARK    4  A    between atoms: C_6  and  C_23
REMARK    5  A    between atoms: N_7  and  C_8
REMARK    6  A    between atoms: C_8  and  C_9
REMARK    7  A    between atoms: C_11  and  C_12
REMARK    8  A    between atoms: C_12  and  O_13
REMARK    9  A    between atoms: O_13  and  C_14
REMARK                            x       y       z     vdW  Elec       q    Type
REMARK                         _______ _______ _______ _____ _____    ______ ____
ROOT
ATOM      1  N   UNL     1       4.115   6.363  17.099  0.00  0.00    +0.000 NA
ATOM      2  H   UNL     1       4.177   7.354  16.880  0.00  0.00    +0.000 HD
ENDROOT
BRANCH   1   3
ATOM      3  C   UNL     1       3.423   6.231  18.402  0.00  0.00    +0.000 C 
BRANCH   3   8
ATOM      4  C   UNL     1      -0.114  10.783  19.337  0.00  0.00    +0.000 C 
ATOM      5  C   UNL     1       0.854   9.657  19.128  0.00  0.00    +0.000 A 
ATOM      6  C   UNL     1       1.209   8.812  20.184  0.00  0.00    +0.000 A 
ATOM      7  C   UNL     1       2.076   7.740  19.969  0.00  0.00    +0.000 A 
ATOM      8  C   UNL     1       2.591   7.483  18.688  0.00  0.00    +0.000 A 
ATOM      9  C   UNL     1       2.266   8.359  17.640  0.00  0.00    +0.000 A 
ATOM     10  C   UNL     1       1.406   9.436  17.862  0.00  0.00    +0.000 A 
ENDBRANCH   3   8
BRANCH   3  11
ATOM     11  C   UNL     1       2.614   4.925  18.491  0.00  0.00    +0.000 A 
ATOM     12  C   UNL     1       2.707   3.931  17.497  0.00  0.00    +0.000 A 
ATOM     13  C   UNL     1       2.016   2.723  17.613  0.00  0.00    +0.000 A 
ATOM     14  C   UNL     1       1.230   2.471  18.734  0.00  0.00    +0.000 A 
ATOM     15  C   UNL     1       1.140   3.426  19.741  0.00  0.00    +0.000 A 
ATOM     16  C   UNL     1       1.832   4.635  19.626  0.00  0.00    +0.000 A 
ENDBRANCH   3  11
ENDBRANCH   1   3
BRANCH   1  17
ATOM     17  C   UNL     1       5.473   5.792  17.077  0.00  0.00    +0.000 C 
BRANCH  17  18
ATOM     18  C   UNL     1       6.552   6.724  17.508  0.00  0.00    +0.000 A 
ATOM     19  N   UNL     1       6.720   8.001  17.242  0.00  0.00    +0.000 NA
ATOM     20  C   UNL     1       7.846   8.301  17.966  0.00  0.00    +0.000 A 
ATOM     21  N   UNL     1       8.353   7.279  18.670  0.00  0.00    +0.000 NA
ATOM     22  O   UNL     1       7.494   6.223  18.361  0.00  0.00    +0.000 OA
BRANCH  20  23
ATOM     23  C   UNL     1       8.406   9.679  18.019  0.00  0.00    +0.000 C 
BRANCH  23  24
ATOM     24  O   UNL     1       9.597   9.735  18.812  0.00  0.00    +0.000 OA
BRANCH  24  25
ATOM     25  C   UNL     1       9.772  10.851  19.580  0.00  0.00    +0.000 A 
ATOM     26  C   UNL     1       9.187  11.090  20.828  0.00  0.00    +0.000 A 
ATOM     27  C   UNL     1       9.457  12.278  21.511  0.00  0.00    +0.000 A 
ATOM     28  C   UNL     1      10.308  13.220  20.944  0.00  0.00    +0.000 A 
ATOM     29  F   UNL     1      10.567  14.356  21.606  0.00  0.00    +0.000 F 
ATOM     30  C   UNL     1      10.892  13.001  19.704  0.00  0.00    +0.000 A 
ATOM     31  C   UNL     1      10.621  11.814  19.022  0.00  0.00    +0.000 A 
ENDBRANCH  24  25
ENDBRANCH  23  24
ENDBRANCH  20  23
ENDBRANCH  17  18
ENDBRANCH   1  17
TORSDOF 8
ENDMDL
MODEL 7
REMARK VINA RESULT:      -8.3      1.263      1.833
REMARK  Name = 
REMARK  9 active torsions:
REMARK  status: ('A' for Active; 'I' for Inactive)
REMARK    1  A    between atoms: C_1  and  C_2
REMARK    2  A    between atoms: C_5  and  C_6
REMARK    3  A    between atoms: C_6  and  N_7
REMARK    4  A    between atoms: C_6  and  C_23
REMARK    5  A    between atoms: N_7  and  C_8
REMARK    6  A    between atoms: C_8  and  C_9
REMARK    7  A    between atoms: C_11  and  C_12
REMARK    8  A    between atoms: C_12  and  O_13
REMARK    9  A    between atoms: O_13  and  C_14
REMARK                            x       y       z     vdW  Elec       q    Type
REMARK                         _______ _______ _______ _____ _____    ______ ____
ROOT
ATOM      1  N   UNL     1       4.382   5.948  16.546  0.00  0.00    +0.000 NA
ATOM      2  H   UNL     1       4.285   6.944  16.370  0.00  0.00    +0.000 HD
ENDROOT
BRANCH   1   3
ATOM      3  C   UNL     1       3.874   5.677  17.910  0.00  0.00    +0.000 C 
BRANCH   3   8
ATOM      4  C   UNL     1       0.767  10.218  19.868  0.00  0.00    +0.000 C 
ATOM      5  C   UNL     1       1.499   9.026  19.329  0.00  0.00    +0.000 A 
ATOM      6  C   UNL     1       1.956   9.002  18.008  0.00  0.00    +0.000 A 
ATOM      7  C   UNL     1       2.675   7.906  17.530  0.00  0.00    +0.000 A 
ATOM      8  C   UNL     1       2.964   6.819  18.371  0.00  0.00    +0.000 A 
ATOM      9  C   UNL     1       2.467   6.829  19.683  0.00  0.00    +0.000 A 
ATOM     10  C   UNL     1       1.739   7.922  20.155  0.00  0.00    +0.000 A 
ENDBRANCH   3   8
BRANCH   3  11
ATOM     11  C   UNL     1       3.215   4.290  18.013  0.00  0.00    +0.000 A 
ATOM     12  C   UNL     1       3.983   3.109  18.013  0.00  0.00    +0.000 A 
ATOM     13  C   UNL     1       3.384   1.856  18.166  0.00  0.00    +0.000 A 
ATOM     14  C   UNL     1       2.007   1.755  18.342  0.00  0.00    +0.000 A 
ATOM     15  C   UNL     1       1.230   2.908  18.370  0.00  0.00    +0.000 A 
ATOM     16  C   UNL     1       1.828   4.162  18.217  0.00  0.00    +0.000 A 
ENDBRANCH   3  11
ENDBRANCH   1   3
BRANCH   1  17
ATOM     17  C   UNL     1       5.791   5.570  16.340  0.00  0.00    +0.000 C 
BRANCH  17  18
ATOM     18  C   UNL     1       6.767   6.305  17.191  0.00  0.00    +0.000 A 
ATOM     19  N   UNL     1       7.089   7.580  17.197  0.00  0.00    +0.000 NA
ATOM     20  C   UNL     1       7.986   7.647  18.234  0.00  0.00    +0.000 A 
ATOM     21  N   UNL     1       8.205   6.485  18.866  0.00  0.00    +0.000 NA
ATOM     22  O   UNL     1       7.397   5.586  18.168  0.00  0.00    +0.000 OA
BRANCH  20  23
ATOM     23  C   UNL     1       8.601   8.932  18.663  0.00  0.00    +0.000 C 
BRANCH  23  24
ATOM     24  O   UNL     1       8.325   9.986  17.734  0.00  0.00    +0.000 OA
BRANCH  24  25
ATOM     25  C   UNL     1       9.014  11.153  17.906  0.00  0.00    +0.000 A 
ATOM     26  C   UNL     1      10.337  11.269  18.344  0.00  0.00    +0.000 A 
ATOM     27  C   UNL     1      10.924  12.530  18.471  0.00  0.00    +0.000 A 
ATOM     28  C   UNL     1      10.186  13.667  18.161  0.00  0.00    +0.000 A 
ATOM     29  F   UNL     1      10.756  14.874  18.280  0.00  0.00    +0.000 F 
ATOM     30  C   UNL     1       8.870  13.569  17.730  0.00  0.00    +0.000 A 
ATOM     31  C   UNL     1       8.285  12.309  17.604  0.00  0.00    +0.000 A 
ENDBRANCH  24  25
ENDBRANCH  23  24
ENDBRANCH  20  23
ENDBRANCH  17  18
ENDBRANCH   1  17
TORSDOF 8
ENDMDL
MODEL 8
REMARK VINA RESULT:      -8.3      5.452      7.115
REMARK  Name = 
REMARK  9 active torsions:
REMARK  status: ('A' for Active; 'I' for Inactive)
REMARK    1  A    between atoms: C_1  and  C_2
REMARK    2  A    between atoms: C_5  and  C_6
REMARK    3  A    between atoms: C_6  and  N_7
REMARK    4  A    between atoms: C_6  and  C_23
REMARK    5  A    between atoms: N_7  and  C_8
REMARK    6  A    between atoms: C_8  and  C_9
REMARK    7  A    between atoms: C_11  and  C_12
REMARK    8  A    between atoms: C_12  and  O_13
REMARK    9  A    between atoms: O_13  and  C_14
REMARK                            x       y       z     vdW  Elec       q    Type
REMARK                         _______ _______ _______ _____ _____    ______ ____
ROOT
ATOM      1  N   UNL     1       3.549   5.589  17.570  0.00  0.00    +0.000 NA
ATOM      2  H   UNL     1       4.049   6.361  17.137  0.00  0.00    +0.000 HD
ENDROOT
BRANCH   1   3
ATOM      3  C   UNL     1       3.173   6.005  18.940  0.00  0.00    +0.000 C 
BRANCH   3   8
ATOM      4  C   UNL     1       0.607  11.251  18.986  0.00  0.00    +0.000 C 
ATOM      5  C   UNL     1       1.202   9.876  18.936  0.00  0.00    +0.000 A 
ATOM      6  C   UNL     1       1.829   9.408  17.776  0.00  0.00    +0.000 A 
ATOM      7  C   UNL     1       2.419   8.144  17.755  0.00  0.00    +0.000 A 
ATOM      8  C   UNL     1       2.407   7.329  18.899  0.00  0.00    +0.000 A 
ATOM      9  C   UNL     1       1.739   7.786  20.046  0.00  0.00    +0.000 A 
ATOM     10  C   UNL     1       1.142   9.047  20.061  0.00  0.00    +0.000 A 
ENDBRANCH   3   8
BRANCH   3  11
ATOM     11  C   UNL     1       2.427   4.889  19.694  0.00  0.00    +0.000 A 
ATOM     12  C   UNL     1       1.400   4.146  19.081  0.00  0.00    +0.000 A 
ATOM     13  C   UNL     1       0.767   3.096  19.750  0.00  0.00    +0.000 A 
ATOM     14  C   UNL     1       1.158   2.751  21.040  0.00  0.00    +0.000 A 
ATOM     15  C   UNL     1       2.187   3.453  21.660  0.00  0.00    +0.000 A 
ATOM     16  C   UNL     1       2.821   4.504  20.990  0.00  0.00    +0.000 A 
ENDBRANCH   3  11
ENDBRANCH   1   3
BRANCH   1  17
ATOM     17  C   UNL     1       4.401   4.388  17.516  0.00  0.00    +0.000 C 
BRANCH  17  18
ATOM     18  C   UNL     1       5.595   4.507  16.633  0.00  0.00    +0.000 A 
ATOM     19  N   UNL     1       5.672   4.797  15.354  0.00  0.00    +0.000 NA
ATOM     20  C   UNL     1       7.028   4.812  15.142  0.00  0.00    +0.000 A 
ATOM     21  N   UNL     1       7.772   4.567  16.231  0.00  0.00    +0.000 NA
ATOM     22  O   UNL     1       6.816   4.356  17.227  0.00  0.00    +0.000 OA
BRANCH  20  23
ATOM     23  C   UNL     1       7.617   5.153  13.818  0.00  0.00    +0.000 C 
BRANCH  23  24
ATOM     24  O   UNL     1       6.645   5.068  12.771  0.00  0.00    +0.000 OA
BRANCH  24  25
ATOM     25  C   UNL     1       6.421   3.830  12.237  0.00  0.00    +0.000 A 
ATOM     26  C   UNL     1       5.175   3.211  12.094  0.00  0.00    +0.000 A 
ATOM     27  C   UNL     1       5.089   1.938  11.524  0.00  0.00    +0.000 A 
ATOM     28  C   UNL     1       6.246   1.292  11.104  0.00  0.00    +0.000 A 
ATOM     29  F   UNL     1       6.156   0.074  10.554  0.00  0.00    +0.000 F 
ATOM     30  C   UNL     1       7.490   1.891  11.245  0.00  0.00    +0.000 A 
ATOM     31  C   UNL     1       7.575   3.162  11.814  0.00  0.00    +0.000 A 
ENDBRANCH  24  25
ENDBRANCH  23  24
ENDBRANCH  20  23
ENDBRANCH  17  18
ENDBRANCH   1  17
TORSDOF 8
ENDMDL
MODEL 9
REMARK VINA RESULT:      -8.2      5.330      7.133
REMARK  Name = 
REMARK  9 active torsions:
REMARK  status: ('A' for Active; 'I' for Inactive)
REMARK    1  A    between atoms: C_1  and  C_2
REMARK    2  A    between atoms: C_5  and  C_6
REMARK    3  A    between atoms: C_6  and  N_7
REMARK    4  A    between atoms: C_6  and  C_23
REMARK    5  A    between atoms: N_7  and  C_8
REMARK    6  A    between atoms: C_8  and  C_9
REMARK    7  A    between atoms: C_11  and  C_12
REMARK    8  A    between atoms: C_12  and  O_13
REMARK    9  A    between atoms: O_13  and  C_14
REMARK                            x       y       z     vdW  Elec       q    Type
REMARK                         _______ _______ _______ _____ _____    ______ ____
ROOT
ATOM      1  N   UNL     1       4.008   6.463  18.031  0.00  0.00    +0.000 NA
ATOM      2  H   UNL     1       4.344   7.410  17.879  0.00  0.00    +0.000 HD
ENDROOT
BRANCH   1   3
ATOM      3  C   UNL     1       3.137   6.478  19.228  0.00  0.00    +0.000 C 
BRANCH   3   8
ATOM      4  C   UNL     1      -0.159  11.299  19.141  0.00  0.00    +0.000 C 
ATOM      5  C   UNL     1       0.624  10.020  19.137  0.00  0.00    +0.000 A 
ATOM      6  C   UNL     1       1.162   9.513  17.951  0.00  0.00    +0.000 A 
ATOM      7  C   UNL     1       1.928   8.347  17.965  0.00  0.00    +0.000 A 
ATOM      8  C   UNL     1       2.182   7.673  19.171  0.00  0.00    +0.000 A 
ATOM      9  C   UNL     1       1.604   8.163  20.353  0.00  0.00    +0.000 A 
ATOM     10  C   UNL     1       0.831   9.324  20.333  0.00  0.00    +0.000 A 
ENDBRANCH   3   8
BRANCH   3  11
ATOM     11  C   UNL     1       2.421   5.132  19.434  0.00  0.00    +0.000 A 
ATOM     12  C   UNL     1       2.292   4.555  20.712  0.00  0.00    +0.000 A 
ATOM     13  C   UNL     1       1.590   3.362  20.901  0.00  0.00    +0.000 A 
ATOM     14  C   UNL     1       0.983   2.728  19.821  0.00  0.00    +0.000 A 
ATOM     15  C   UNL     1       1.074   3.291  18.552  0.00  0.00    +0.000 A 
ATOM     16  C   UNL     1       1.776   4.484  18.363  0.00  0.00    +0.000 A 
ENDBRANCH   3  11
ENDBRANCH   1   3
BRANCH   1  17
ATOM     17  C   UNL     1       5.171   5.566  18.143  0.00  0.00    +0.000 C 
BRANCH  17  18
ATOM     18  C   UNL     1       5.743   5.118  16.844  0.00  0.00    +0.000 A 
ATOM     19  N   UNL     1       6.437   5.788  15.951  0.00  0.00    +0.000 NA
ATOM     20  C   UNL     1       6.721   4.821  15.019  0.00  0.00    +0.000 A 
ATOM     21  N   UNL     1       6.255   3.599  15.314  0.00  0.00    +0.000 NA
ATOM     22  O   UNL     1       5.595   3.796  16.530  0.00  0.00    +0.000 OA
BRANCH  20  23
ATOM     23  C   UNL     1       7.552   5.103  13.817  0.00  0.00    +0.000 C 
BRANCH  23  24
ATOM     24  O   UNL     1       6.795   4.973  12.609  0.00  0.00    +0.000 OA
BRANCH  24  25
ATOM     25  C   UNL     1       6.671   3.714  12.093  0.00  0.00    +0.000 A 
ATOM     26  C   UNL     1       7.721   2.889  11.679  0.00  0.00    +0.000 A 
ATOM     27  C   UNL     1       7.452   1.615  11.172  0.00  0.00    +0.000 A 
ATOM     28  C   UNL     1       6.136   1.175  11.080  0.00  0.00    +0.000 A 
ATOM     29  F   UNL     1       5.884  -0.049  10.597  0.00  0.00    +0.000 F 
ATOM     30  C   UNL     1       5.082   1.985  11.481  0.00  0.00    +0.000 A 
ATOM     31  C   UNL     1       5.352   3.257  11.986  0.00  0.00    +0.000 A 
ENDBRANCH  24  25
ENDBRANCH  23  24
ENDBRANCH  20  23
ENDBRANCH  17  18
ENDBRANCH   1  17
TORSDOF 8
ENDMDL
