MODEL 1
REMARK VINA RESULT:      -8.2      0.000      0.000
REMARK  Name = 
REMARK  3 active torsions:
REMARK  status: ('A' for Active; 'I' for Inactive)
REMARK    1  A    between atoms: C_1  and  N_2
REMARK    2  A    between atoms: C_9  and  N_10
REMARK    3  A    between atoms: C_11  and  C_13
REMARK                            x       y       z     vdW  Elec       q    Type
REMARK                         _______ _______ _______ _____ _____    ______ ____
ROOT
ATOM      1  N   UNL     1       1.320   8.677  20.602  0.00  0.00    +0.000 N 
ATOM      2  C   UNL     1       0.149   8.856  21.313  0.00  0.00    +0.000 C 
ATOM      3  O   UNL     1      -0.659   7.970  21.588  0.00  0.00    +0.000 OA
ATOM      4  H   UNL     1       1.886   9.510  20.431  0.00  0.00    +0.000 HD
ENDROOT
BRANCH   1  13
ATOM      5  C   UNL     1       4.097   3.765  17.288  0.00  0.00    +0.000 C 
ATOM      6  N   UNL     1       3.228   3.776  18.452  0.00  0.00    +0.000 N 
ATOM      7  C   UNL     1       2.885   2.556  19.037  0.00  0.00    +0.000 C 
ATOM      8  O   UNL     1       3.265   1.464  18.607  0.00  0.00    +0.000 OA
ATOM      9  C   UNL     1       1.909   2.608  20.191  0.00  0.00    +0.000 C 
ATOM     10  C   UNL     1       2.181   3.797  21.080  0.00  0.00    +0.000 C 
ATOM     11  C   UNL     1       2.201   5.045  20.250  0.00  0.00    +0.000 A 
ATOM     12  C   UNL     1       1.736   6.248  20.798  0.00  0.00    +0.000 A 
ATOM     13  C   UNL     1       1.799   7.448  20.089  0.00  0.00    +0.000 A 
ATOM     14  C   UNL     1       2.373   7.428  18.815  0.00  0.00    +0.000 A 
ATOM     15  C   UNL     1       2.863   6.229  18.267  0.00  0.00    +0.000 A 
ATOM     16  C   UNL     1       2.766   5.021  18.974  0.00  0.00    +0.000 A 
ENDBRANCH   1  13
BRANCH   2  17
ATOM     17  C   UNL     1      -0.136  10.241  21.773  0.00  0.00    +0.000 A 
ATOM     18  C   UNL     1      -0.969  10.370  22.821  0.00  0.00    +0.000 A 
ATOM     19  N   UNL     1      -1.356  11.547  23.397  0.00  0.00    +0.000 N 
ATOM     20  C   UNL     1      -0.971  12.768  22.834  0.00  0.00    +0.000 A 
ATOM     21  C   UNL     1      -1.406  13.974  23.390  0.00  0.00    +0.000 A 
ATOM     22  C   UNL     1      -0.986  15.188  22.848  0.00  0.00    +0.000 A 
ATOM     23  C   UNL     1      -0.118  15.207  21.754  0.00  0.00    +0.000 A 
ATOM     24  C   UNL     1       0.342  14.009  21.202  0.00  0.00    +0.000 A 
ATOM     25  C   UNL     1      -0.078  12.791  21.745  0.00  0.00    +0.000 A 
ATOM     26  C   UNL     1       0.403  11.494  21.178  0.00  0.00    +0.000 A 
ATOM     27  O   UNL     1       1.208  11.460  20.250  0.00  0.00    +0.000 OA
ATOM     28  H   UNL     1      -2.123  11.528  24.059  0.00  0.00    +0.000 HD
ENDBRANCH   2  17
TORSDOF 2
ENDMDL
MODEL 2
REMARK VINA RESULT:      -8.1      1.319      1.936
REMARK  Name = 
REMARK  3 active torsions:
REMARK  status: ('A' for Active; 'I' for Inactive)
REMARK    1  A    between atoms: C_1  and  N_2
REMARK    2  A    between atoms: C_9  and  N_10
REMARK    3  A    between atoms: C_11  and  C_13
REMARK                            x       y       z     vdW  Elec       q    Type
REMARK                         _______ _______ _______ _____ _____    ______ ____
ROOT
ATOM      1  N   UNL     1       1.567   8.719  20.161  0.00  0.00    +0.000 N 
ATOM      2  C   UNL     1       0.991   9.687  19.363  0.00  0.00    +0.000 C 
ATOM      3  O   UNL     1       0.793   9.587  18.153  0.00  0.00    +0.000 OA
ATOM      4  H   UNL     1       1.687   8.948  21.149  0.00  0.00    +0.000 HD
ENDROOT
BRANCH   1  13
ATOM      5  C   UNL     1       4.292   3.524  17.260  0.00  0.00    +0.000 C 
ATOM      6  N   UNL     1       3.333   3.633  18.346  0.00  0.00    +0.000 N 
ATOM      7  C   UNL     1       2.869   2.458  18.942  0.00  0.00    +0.000 C 
ATOM      8  O   UNL     1       3.213   1.330  18.583  0.00  0.00    +0.000 OA
ATOM      9  C   UNL     1       1.808   2.614  20.008  0.00  0.00    +0.000 C 
ATOM     10  C   UNL     1       2.080   3.818  20.876  0.00  0.00    +0.000 C 
ATOM     11  C   UNL     1       2.246   5.029  20.008  0.00  0.00    +0.000 A 
ATOM     12  C   UNL     1       1.814   6.279  20.473  0.00  0.00    +0.000 A 
ATOM     13  C   UNL     1       2.009   7.444  19.731  0.00  0.00    +0.000 A 
ATOM     14  C   UNL     1       2.682   7.340  18.512  0.00  0.00    +0.000 A 
ATOM     15  C   UNL     1       3.139   6.093  18.048  0.00  0.00    +0.000 A 
ATOM     16  C   UNL     1       2.910   4.922  18.785  0.00  0.00    +0.000 A 
ENDBRANCH   1  13
BRANCH   2  17
ATOM     17  C   UNL     1       0.583  10.945  20.044  0.00  0.00    +0.000 A 
ATOM     18  C   UNL     1       1.010  12.095  19.494  0.00  0.00    +0.000 A 
ATOM     19  N   UNL     1       0.746  13.352  19.961  0.00  0.00    +0.000 N 
ATOM     20  C   UNL     1       0.063  13.528  21.168  0.00  0.00    +0.000 A 
ATOM     21  C   UNL     1      -0.165  14.810  21.673  0.00  0.00    +0.000 A 
ATOM     22  C   UNL     1      -0.882  14.981  22.858  0.00  0.00    +0.000 A 
ATOM     23  C   UNL     1      -1.387  13.871  23.539  0.00  0.00    +0.000 A 
ATOM     24  C   UNL     1      -1.185  12.584  23.034  0.00  0.00    +0.000 A 
ATOM     25  C   UNL     1      -0.468  12.413  21.846  0.00  0.00    +0.000 A 
ATOM     26  C   UNL     1      -0.242  11.049  21.279  0.00  0.00    +0.000 A 
ATOM     27  O   UNL     1      -0.711  10.047  21.814  0.00  0.00    +0.000 OA
ATOM     28  H   UNL     1       1.268  14.129  19.570  0.00  0.00    +0.000 HD
ENDBRANCH   2  17
TORSDOF 2
ENDMDL
MODEL 3
REMARK VINA RESULT:      -8.1      2.606      2.906
REMARK  Name = 
REMARK  3 active torsions:
REMARK  status: ('A' for Active; 'I' for Inactive)
REMARK    1  A    between atoms: C_1  and  N_2
REMARK    2  A    between atoms: C_9  and  N_10
REMARK    3  A    between atoms: C_11  and  C_13
REMARK                            x       y       z     vdW  Elec       q    Type
REMARK                         _______ _______ _______ _____ _____    ______ ____
ROOT
ATOM      1  N   UNL     1       1.761   9.818  18.933  0.00  0.00    +0.000 N 
ATOM      2  C   UNL     1       0.593  10.380  18.457  0.00  0.00    +0.000 C 
ATOM      3  O   UNL     1      -0.314   9.768  17.896  0.00  0.00    +0.000 OA
ATOM      4  H   UNL     1       2.437  10.453  19.361  0.00  0.00    +0.000 HD
ENDROOT
BRANCH   1  13
ATOM      5  C   UNL     1       4.120   3.853  17.640  0.00  0.00    +0.000 C 
ATOM      6  N   UNL     1       3.140   4.316  18.606  0.00  0.00    +0.000 N 
ATOM      7  C   UNL     1       2.557   3.379  19.462  0.00  0.00    +0.000 C 
ATOM      8  O   UNL     1       2.814   2.174  19.430  0.00  0.00    +0.000 OA
ATOM      9  C   UNL     1       1.480   3.890  20.393  0.00  0.00    +0.000 C 
ATOM     10  C   UNL     1       1.827   5.258  20.929  0.00  0.00    +0.000 C 
ATOM     11  C   UNL     1       2.124   6.180  19.785  0.00  0.00    +0.000 A 
ATOM     12  C   UNL     1       1.786   7.536  19.884  0.00  0.00    +0.000 A 
ATOM     13  C   UNL     1       2.105   8.446  18.875  0.00  0.00    +0.000 A 
ATOM     14  C   UNL     1       2.805   7.973  17.763  0.00  0.00    +0.000 A 
ATOM     15  C   UNL     1       3.168   6.618  17.666  0.00  0.00    +0.000 A 
ATOM     16  C   UNL     1       2.815   5.703  18.670  0.00  0.00    +0.000 A 
ENDBRANCH   1  13
BRANCH   2  17
ATOM     17  C   UNL     1       0.442  11.847  18.651  0.00  0.00    +0.000 A 
ATOM     18  C   UNL     1      -0.796  12.296  18.921  0.00  0.00    +0.000 A 
ATOM     19  N   UNL     1      -1.147  13.600  19.135  0.00  0.00    +0.000 N 
ATOM     20  C   UNL     1      -0.204  14.620  18.973  0.00  0.00    +0.000 A 
ATOM     21  C   UNL     1      -0.571  15.957  19.141  0.00  0.00    +0.000 A 
ATOM     22  C   UNL     1       0.383  16.967  19.017  0.00  0.00    +0.000 A 
ATOM     23  C   UNL     1       1.713  16.646  18.737  0.00  0.00    +0.000 A 
ATOM     24  C   UNL     1       2.098  15.312  18.587  0.00  0.00    +0.000 A 
ATOM     25  C   UNL     1       1.142  14.299  18.713  0.00  0.00    +0.000 A 
ATOM     26  C   UNL     1       1.527  12.862  18.564  0.00  0.00    +0.000 A 
ATOM     27  O   UNL     1       2.693  12.528  18.369  0.00  0.00    +0.000 OA
ATOM     28  H   UNL     1      -2.133  13.836  19.150  0.00  0.00    +0.000 HD
ENDBRANCH   2  17
TORSDOF 2
ENDMDL
MODEL 4
REMARK VINA RESULT:      -8.0      2.648      3.758
REMARK  Name = 
REMARK  3 active torsions:
REMARK  status: ('A' for Active; 'I' for Inactive)
REMARK    1  A    between atoms: C_1  and  N_2
REMARK    2  A    between atoms: C_9  and  N_10
REMARK    3  A    between atoms: C_11  and  C_13
REMARK                            x       y       z     vdW  Elec       q    Type
REMARK                         _______ _______ _______ _____ _____    ______ ____
ROOT
ATOM      1  N   UNL     1       1.816   8.145  18.958  0.00  0.00    +0.000 N 
ATOM      2  C   UNL     1       1.473   9.382  18.451  0.00  0.00    +0.000 C 
ATOM      3  O   UNL     1       1.963   9.904  17.451  0.00  0.00    +0.000 OA
ATOM      4  H   UNL     1       1.338   7.847  19.810  0.00  0.00    +0.000 HD
ENDROOT
BRANCH   1  13
ATOM      5  C   UNL     1       5.185   3.242  16.230  0.00  0.00    +0.000 C 
ATOM      6  N   UNL     1       5.609   4.516  16.783  0.00  0.00    +0.000 N 
ATOM      7  C   UNL     1       6.969   4.834  16.753  0.00  0.00    +0.000 C 
ATOM      8  O   UNL     1       7.834   4.081  16.300  0.00  0.00    +0.000 OA
ATOM      9  C   UNL     1       7.377   6.131  17.416  0.00  0.00    +0.000 C 
ATOM     10  C   UNL     1       6.364   7.218  17.154  0.00  0.00    +0.000 C 
ATOM     11  C   UNL     1       5.002   6.737  17.555  0.00  0.00    +0.000 A 
ATOM     12  C   UNL     1       4.074   7.646  18.082  0.00  0.00    +0.000 A 
ATOM     13  C   UNL     1       2.773   7.259  18.405  0.00  0.00    +0.000 A 
ATOM     14  C   UNL     1       2.402   5.935  18.160  0.00  0.00    +0.000 A 
ATOM     15  C   UNL     1       3.320   5.022  17.611  0.00  0.00    +0.000 A 
ATOM     16  C   UNL     1       4.636   5.410  17.319  0.00  0.00    +0.000 A 
ENDBRANCH   1  13
BRANCH   2  17
ATOM     17  C   UNL     1       0.419  10.128  19.192  0.00  0.00    +0.000 A 
ATOM     18  C   UNL     1      -0.476  10.803  18.452  0.00  0.00    +0.000 A 
ATOM     19  N   UNL     1      -1.518  11.545  18.935  0.00  0.00    +0.000 N 
ATOM     20  C   UNL     1      -1.664  11.744  20.311  0.00  0.00    +0.000 A 
ATOM     21  C   UNL     1      -2.698  12.543  20.806  0.00  0.00    +0.000 A 
ATOM     22  C   UNL     1      -2.862  12.705  22.181  0.00  0.00    +0.000 A 
ATOM     23  C   UNL     1      -2.002  12.060  23.072  0.00  0.00    +0.000 A 
ATOM     24  C   UNL     1      -0.977  11.242  22.592  0.00  0.00    +0.000 A 
ATOM     25  C   UNL     1      -0.813  11.078  21.213  0.00  0.00    +0.000 A 
ATOM     26  C   UNL     1       0.272  10.203  20.671  0.00  0.00    +0.000 A 
ATOM     27  O   UNL     1       1.020   9.575  21.416  0.00  0.00    +0.000 OA
ATOM     28  H   UNL     1      -2.014  12.152  18.292  0.00  0.00    +0.000 HD
ENDBRANCH   2  17
TORSDOF 2
ENDMDL
MODEL 5
REMARK VINA RESULT:      -8.0      1.476      1.990
REMARK  Name = 
REMARK  3 active torsions:
REMARK  status: ('A' for Active; 'I' for Inactive)
REMARK    1  A    between atoms: C_1  and  N_2
REMARK    2  A    between atoms: C_9  and  N_10
REMARK    3  A    between atoms: C_11  and  C_13
REMARK                            x       y       z     vdW  Elec       q    Type
REMARK                         _______ _______ _______ _____ _____    ______ ____
ROOT
ATOM      1  N   UNL     1       0.908   8.685  20.375  0.00  0.00    +0.000 N 
ATOM      2  C   UNL     1       1.057   9.503  21.478  0.00  0.00    +0.000 C 
ATOM      3  O   UNL     1       1.852   9.319  22.398  0.00  0.00    +0.000 OA
ATOM      4  H   UNL     1       0.192   8.952  19.697  0.00  0.00    +0.000 HD
ENDROOT
BRANCH   1  13
ATOM      5  C   UNL     1       5.079   4.069  18.346  0.00  0.00    +0.000 C 
ATOM      6  N   UNL     1       3.907   4.004  19.201  0.00  0.00    +0.000 N 
ATOM      7  C   UNL     1       3.545   2.768  19.739  0.00  0.00    +0.000 C 
ATOM      8  O   UNL     1       4.155   1.721  19.511  0.00  0.00    +0.000 OA
ATOM      9  C   UNL     1       2.270   2.729  20.552  0.00  0.00    +0.000 C 
ATOM     10  C   UNL     1       2.129   3.969  21.402  0.00  0.00    +0.000 C 
ATOM     11  C   UNL     1       2.256   5.184  20.534  0.00  0.00    +0.000 A 
ATOM     12  C   UNL     1       1.517   6.335  20.842  0.00  0.00    +0.000 A 
ATOM     13  C   UNL     1       1.653   7.512  20.105  0.00  0.00    +0.000 A 
ATOM     14  C   UNL     1       2.579   7.528  19.060  0.00  0.00    +0.000 A 
ATOM     15  C   UNL     1       3.341   6.385  18.759  0.00  0.00    +0.000 A 
ATOM     16  C   UNL     1       3.174   5.195  19.483  0.00  0.00    +0.000 A 
ENDBRANCH   1  13
BRANCH   2  17
ATOM     17  C   UNL     1       0.174  10.699  21.534  0.00  0.00    +0.000 A 
ATOM     18  C   UNL     1       0.366  11.636  20.591  0.00  0.00    +0.000 A 
ATOM     19  N   UNL     1      -0.337  12.802  20.465  0.00  0.00    +0.000 N 
ATOM     20  C   UNL     1      -1.285  13.162  21.428  0.00  0.00    +0.000 A 
ATOM     21  C   UNL     1      -1.969  14.376  21.329  0.00  0.00    +0.000 A 
ATOM     22  C   UNL     1      -2.941  14.712  22.271  0.00  0.00    +0.000 A 
ATOM     23  C   UNL     1      -3.246  13.830  23.311  0.00  0.00    +0.000 A 
ATOM     24  C   UNL     1      -2.585  12.603  23.409  0.00  0.00    +0.000 A 
ATOM     25  C   UNL     1      -1.611  12.266  22.464  0.00  0.00    +0.000 A 
ATOM     26  C   UNL     1      -0.891  10.958  22.541  0.00  0.00    +0.000 A 
ATOM     27  O   UNL     1      -1.162  10.128  23.406  0.00  0.00    +0.000 OA
ATOM     28  H   UNL     1       0.016  13.509  19.829  0.00  0.00    +0.000 HD
ENDBRANCH   2  17
TORSDOF 2
ENDMDL
MODEL 6
REMARK VINA RESULT:      -7.9      2.602      3.336
REMARK  Name = 
REMARK  3 active torsions:
REMARK  status: ('A' for Active; 'I' for Inactive)
REMARK    1  A    between atoms: C_1  and  N_2
REMARK    2  A    between atoms: C_9  and  N_10
REMARK    3  A    between atoms: C_11  and  C_13
REMARK                            x       y       z     vdW  Elec       q    Type
REMARK                         _______ _______ _______ _____ _____    ______ ____
ROOT
ATOM      1  N   UNL     1       1.535   9.721  19.413  0.00  0.00    +0.000 N 
ATOM      2  C   UNL     1       0.551  10.299  18.636  0.00  0.00    +0.000 C 
ATOM      3  O   UNL     1      -0.222   9.691  17.897  0.00  0.00    +0.000 OA
ATOM      4  H   UNL     1       2.117  10.354  19.965  0.00  0.00    +0.000 HD
ENDROOT
BRANCH   1  13
ATOM      5  C   UNL     1       1.934   3.354  20.872  0.00  0.00    +0.000 C 
ATOM      6  N   UNL     1       2.634   4.167  19.893  0.00  0.00    +0.000 N 
ATOM      7  C   UNL     1       3.570   3.548  19.063  0.00  0.00    +0.000 C 
ATOM      8  O   UNL     1       3.852   2.349  19.129  0.00  0.00    +0.000 OA
ATOM      9  C   UNL     1       4.337   4.446  18.118  0.00  0.00    +0.000 C 
ATOM     10  C   UNL     1       3.445   5.520  17.544  0.00  0.00    +0.000 C 
ATOM     11  C   UNL     1       2.770   6.256  18.662  0.00  0.00    +0.000 A 
ATOM     12  C   UNL     1       2.497   7.624  18.525  0.00  0.00    +0.000 A 
ATOM     13  C   UNL     1       1.809   8.336  19.509  0.00  0.00    +0.000 A 
ATOM     14  C   UNL     1       1.365   7.637  20.634  0.00  0.00    +0.000 A 
ATOM     15  C   UNL     1       1.615   6.259  20.769  0.00  0.00    +0.000 A 
ATOM     16  C   UNL     1       2.336   5.558  19.791  0.00  0.00    +0.000 A 
ENDBRANCH   1  13
BRANCH   2  17
ATOM     17  C   UNL     1       0.434  11.780  18.716  0.00  0.00    +0.000 A 
ATOM     18  C   UNL     1      -0.796  12.278  18.930  0.00  0.00    +0.000 A 
ATOM     19  N   UNL     1      -1.116  13.603  19.039  0.00  0.00    +0.000 N 
ATOM     20  C   UNL     1      -0.145  14.584  18.816  0.00  0.00    +0.000 A 
ATOM     21  C   UNL     1      -0.480  15.939  18.875  0.00  0.00    +0.000 A 
ATOM     22  C   UNL     1       0.502  16.913  18.692  0.00  0.00    +0.000 A 
ATOM     23  C   UNL     1       1.827  16.539  18.459  0.00  0.00    +0.000 A 
ATOM     24  C   UNL     1       2.180  15.188  18.418  0.00  0.00    +0.000 A 
ATOM     25  C   UNL     1       1.197  14.212  18.603  0.00  0.00    +0.000 A 
ATOM     26  C   UNL     1       1.546  12.758  18.571  0.00  0.00    +0.000 A 
ATOM     27  O   UNL     1       2.706  12.382  18.421  0.00  0.00    +0.000 OA
ATOM     28  H   UNL     1      -2.096  13.863  19.019  0.00  0.00    +0.000 HD
ENDBRANCH   2  17
TORSDOF 2
ENDMDL
MODEL 7
REMARK VINA RESULT:      -7.9      1.691      2.099
REMARK  Name = 
REMARK  3 active torsions:
REMARK  status: ('A' for Active; 'I' for Inactive)
REMARK    1  A    between atoms: C_1  and  N_2
REMARK    2  A    between atoms: C_9  and  N_10
REMARK    3  A    between atoms: C_11  and  C_13
REMARK                            x       y       z     vdW  Elec       q    Type
REMARK                         _______ _______ _______ _____ _____    ______ ____
ROOT
ATOM      1  N   UNL     1       1.254   9.420  19.784  0.00  0.00    +0.000 N 
ATOM      2  C   UNL     1       0.370  10.114  18.982  0.00  0.00    +0.000 C 
ATOM      3  O   UNL     1      -0.057   9.731  17.895  0.00  0.00    +0.000 OA
ATOM      4  H   UNL     1       1.538   9.871  20.655  0.00  0.00    +0.000 HD
ENDROOT
BRANCH   1  13
ATOM      5  C   UNL     1       4.434   4.171  17.512  0.00  0.00    +0.000 C 
ATOM      6  N   UNL     1       3.446   4.321  18.566  0.00  0.00    +0.000 N 
ATOM      7  C   UNL     1       3.060   3.186  19.281  0.00  0.00    +0.000 C 
ATOM      8  O   UNL     1       3.497   2.056  19.054  0.00  0.00    +0.000 OA
ATOM      9  C   UNL     1       1.966   3.372  20.310  0.00  0.00    +0.000 C 
ATOM     10  C   UNL     1       2.125   4.682  21.042  0.00  0.00    +0.000 C 
ATOM     11  C   UNL     1       2.217   5.800  20.049  0.00  0.00    +0.000 A 
ATOM     12  C   UNL     1       1.680   7.055  20.367  0.00  0.00    +0.000 A 
ATOM     13  C   UNL     1       1.802   8.145  19.504  0.00  0.00    +0.000 A 
ATOM     14  C   UNL     1       2.508   7.962  18.313  0.00  0.00    +0.000 A 
ATOM     15  C   UNL     1       3.070   6.712  17.996  0.00  0.00    +0.000 A 
ATOM     16  C   UNL     1       2.915   5.613  18.854  0.00  0.00    +0.000 A 
ENDBRANCH   1  13
BRANCH   2  17
ATOM     17  C   UNL     1      -0.089  11.432  19.497  0.00  0.00    +0.000 A 
ATOM     18  C   UNL     1      -0.611  12.284  18.597  0.00  0.00    +0.000 A 
ATOM     19  N   UNL     1      -1.091  13.535  18.863  0.00  0.00    +0.000 N 
ATOM     20  C   UNL     1      -0.966  14.082  20.145  0.00  0.00    +0.000 A 
ATOM     21  C   UNL     1      -1.410  15.380  20.408  0.00  0.00    +0.000 A 
ATOM     22  C   UNL     1      -1.320  15.904  21.697  0.00  0.00    +0.000 A 
ATOM     23  C   UNL     1      -0.797  15.130  22.735  0.00  0.00    +0.000 A 
ATOM     24  C   UNL     1      -0.369  13.823  22.490  0.00  0.00    +0.000 A 
ATOM     25  C   UNL     1      -0.460  13.297  21.198  0.00  0.00    +0.000 A 
ATOM     26  C   UNL     1      -0.016  11.899  20.909  0.00  0.00    +0.000 A 
ATOM     27  O   UNL     1       0.403  11.162  21.799  0.00  0.00    +0.000 OA
ATOM     28  H   UNL     1      -1.291  14.149  18.081  0.00  0.00    +0.000 HD
ENDBRANCH   2  17
TORSDOF 2
ENDMDL
MODEL 8
REMARK VINA RESULT:      -7.9      1.117      1.117
REMARK  Name = 
REMARK  3 active torsions:
REMARK  status: ('A' for Active; 'I' for Inactive)
REMARK    1  A    between atoms: C_1  and  N_2
REMARK    2  A    between atoms: C_9  and  N_10
REMARK    3  A    between atoms: C_11  and  C_13
REMARK                            x       y       z     vdW  Elec       q    Type
REMARK                         _______ _______ _______ _____ _____    ______ ____
ROOT
ATOM      1  N   UNL     1       0.808   8.732  20.556  0.00  0.00    +0.000 N 
ATOM      2  C   UNL     1       0.971   9.474  21.708  0.00  0.00    +0.000 C 
ATOM      3  O   UNL     1       1.772   9.225  22.608  0.00  0.00    +0.000 OA
ATOM      4  H   UNL     1       0.089   9.048  19.903  0.00  0.00    +0.000 HD
ENDROOT
BRANCH   1  13
ATOM      5  C   UNL     1       4.874   4.216  18.129  0.00  0.00    +0.000 C 
ATOM      6  N   UNL     1       3.758   4.115  19.052  0.00  0.00    +0.000 N 
ATOM      7  C   UNL     1       3.437   2.859  19.572  0.00  0.00    +0.000 C 
ATOM      8  O   UNL     1       4.039   1.825  19.274  0.00  0.00    +0.000 OA
ATOM      9  C   UNL     1       2.215   2.785  20.460  0.00  0.00    +0.000 C 
ATOM     10  C   UNL     1       2.119   3.996  21.356  0.00  0.00    +0.000 C 
ATOM     11  C   UNL     1       2.185   5.239  20.521  0.00  0.00    +0.000 A 
ATOM     12  C   UNL     1       1.459   6.373  20.910  0.00  0.00    +0.000 A 
ATOM     13  C   UNL     1       1.542   7.574  20.204  0.00  0.00    +0.000 A 
ATOM     14  C   UNL     1       2.401   7.629  19.104  0.00  0.00    +0.000 A 
ATOM     15  C   UNL     1       3.151   6.503  18.720  0.00  0.00    +0.000 A 
ATOM     16  C   UNL     1       3.037   5.290  19.416  0.00  0.00    +0.000 A 
ENDBRANCH   1  13
BRANCH   2  17
ATOM     17  C   UNL     1       0.097  10.670  21.851  0.00  0.00    +0.000 A 
ATOM     18  C   UNL     1      -0.799  10.647  22.853  0.00  0.00    +0.000 A 
ATOM     19  N   UNL     1      -1.688  11.640  23.155  0.00  0.00    +0.000 N 
ATOM     20  C   UNL     1      -1.800  12.763  22.329  0.00  0.00    +0.000 A 
ATOM     21  C   UNL     1      -2.742  13.756  22.607  0.00  0.00    +0.000 A 
ATOM     22  C   UNL     1      -2.822  14.892  21.802  0.00  0.00    +0.000 A 
ATOM     23  C   UNL     1      -1.951  15.050  20.722  0.00  0.00    +0.000 A 
ATOM     24  C   UNL     1      -0.989  14.075  20.446  0.00  0.00    +0.000 A 
ATOM     25  C   UNL     1      -0.908  12.936  21.253  0.00  0.00    +0.000 A 
ATOM     26  C   UNL     1       0.115  11.880  20.984  0.00  0.00    +0.000 A 
ATOM     27  O   UNL     1       0.936  11.999  20.078  0.00  0.00    +0.000 OA
ATOM     28  H   UNL     1      -2.431  11.435  23.814  0.00  0.00    +0.000 HD
ENDBRANCH   2  17
TORSDOF 2
ENDMDL
MODEL 9
REMARK VINA RESULT:      -7.9      1.996      3.260
REMARK  Name = 
REMARK  3 active torsions:
REMARK  status: ('A' for Active; 'I' for Inactive)
REMARK    1  A    between atoms: C_1  and  N_2
REMARK    2  A    between atoms: C_9  and  N_10
REMARK    3  A    between atoms: C_11  and  C_13
REMARK                            x       y       z     vdW  Elec       q    Type
REMARK                         _______ _______ _______ _____ _____    ______ ____
ROOT
ATOM      1  N   UNL     1       1.842   8.549  19.504  0.00  0.00    +0.000 N 
ATOM      2  C   UNL     1       1.104   9.523  18.861  0.00  0.00    +0.000 C 
ATOM      3  O   UNL     1       0.912   9.585  17.648  0.00  0.00    +0.000 OA
ATOM      4  H   UNL     1       1.934   8.635  20.518  0.00  0.00    +0.000 HD
ENDROOT
BRANCH   1  13
ATOM      5  C   UNL     1       3.930   2.741  17.330  0.00  0.00    +0.000 C 
ATOM      6  N   UNL     1       4.414   4.090  17.097  0.00  0.00    +0.000 N 
ATOM      7  C   UNL     1       5.514   4.266  16.257  0.00  0.00    +0.000 C 
ATOM      8  O   UNL     1       6.114   3.334  15.715  0.00  0.00    +0.000 OA
ATOM      9  C   UNL     1       6.038   5.678  16.111  0.00  0.00    +0.000 C 
ATOM     10  C   UNL     1       4.906   6.675  16.055  0.00  0.00    +0.000 C 
ATOM     11  C   UNL     1       4.013   6.481  17.244  0.00  0.00    +0.000 A 
ATOM     12  C   UNL     1       3.378   7.589  17.821  0.00  0.00    +0.000 A 
ATOM     13  C   UNL     1       2.485   7.451  18.884  0.00  0.00    +0.000 A 
ATOM     14  C   UNL     1       2.210   6.161  19.345  0.00  0.00    +0.000 A 
ATOM     15  C   UNL     1       2.825   5.042  18.757  0.00  0.00    +0.000 A 
ATOM     16  C   UNL     1       3.747   5.192  17.710  0.00  0.00    +0.000 A 
ENDBRANCH   1  13
BRANCH   2  17
ATOM     17  C   UNL     1       0.501  10.571  19.727  0.00  0.00    +0.000 A 
ATOM     18  C   UNL     1       0.698  11.848  19.356  0.00  0.00    +0.000 A 
ATOM     19  N   UNL     1       0.228  12.953  20.009  0.00  0.00    +0.000 N 
ATOM     20  C   UNL     1      -0.435  12.821  21.233  0.00  0.00    +0.000 A 
ATOM     21  C   UNL     1      -0.872  13.952  21.928  0.00  0.00    +0.000 A 
ATOM     22  C   UNL     1      -1.569  13.812  23.128  0.00  0.00    +0.000 A 
ATOM     23  C   UNL     1      -1.845  12.540  23.636  0.00  0.00    +0.000 A 
ATOM     24  C   UNL     1      -1.433  11.401  22.940  0.00  0.00    +0.000 A 
ATOM     25  C   UNL     1      -0.736  11.541  21.736  0.00  0.00    +0.000 A 
ATOM     26  C   UNL     1      -0.288  10.339  20.968  0.00  0.00    +0.000 A 
ATOM     27  O   UNL     1      -0.553   9.201  21.348  0.00  0.00    +0.000 OA
ATOM     28  H   UNL     1       0.591  13.861  19.738  0.00  0.00    +0.000 HD
ENDBRANCH   2  17
TORSDOF 2
ENDMDL
