MODEL 1
REMARK VINA RESULT:      -8.6      0.000      0.000
REMARK  Name = 
REMARK  3 active torsions:
REMARK  status: ('A' for Active; 'I' for Inactive)
REMARK    1  A    between atoms: C_4  and  C_5
REMARK    2  A    between atoms: C_5  and  N_6
REMARK    3  A    between atoms: N_9  and  C_10
REMARK                            x       y       z     vdW  Elec       q    Type
REMARK                         _______ _______ _______ _____ _____    ______ ____
ROOT
ATOM      1  O   UNL     1       1.454   2.265  19.748  0.00  0.00    +0.000 OA
ATOM      2  C   UNL     1       2.163   3.197  19.377  0.00  0.00    +0.000 A 
ATOM      3  C   UNL     1       1.561   4.421  18.773  0.00  0.00    +0.000 A 
ATOM      4  C   UNL     1       2.307   5.392  18.238  0.00  0.00    +0.000 A 
ATOM      5  C   UNL     1       3.747   5.128  18.141  0.00  0.00    +0.000 A 
ATOM      6  C   UNL     1       4.541   5.968  17.378  0.00  0.00    +0.000 A 
ATOM      7  C   UNL     1       5.849   6.118  17.734  0.00  0.00    +0.000 A 
ATOM      8  C   UNL     1       6.465   5.261  18.629  0.00  0.00    +0.000 A 
ATOM      9  C   UNL     1       5.741   4.219  19.205  0.00  0.00    +0.000 A 
ATOM     10  C   UNL     1       4.355   4.191  18.973  0.00  0.00    +0.000 A 
ATOM     11  O   UNL     1       3.548   3.210  19.588  0.00  0.00    +0.000 OA
ATOM     12  C   UNL     1       7.899   5.680  18.759  0.00  0.00    +0.000 C 
ATOM     13  C   UNL     1       7.900   7.116  18.179  0.00  0.00    +0.000 C 
ATOM     14  C   UNL     1       6.652   7.294  17.325  0.00  0.00    +0.000 C 
ENDROOT
BRANCH   4  15
ATOM     15  C   UNL     1       1.954   6.814  17.831  0.00  0.00    +0.000 C 
BRANCH  15  16
ATOM     16  N   UNL     1       2.007   7.936  18.698  0.00  0.00    +0.000 NA
ATOM     17  C   UNL     1       2.032   7.815  20.137  0.00  0.00    +0.000 C 
ATOM     18  C   UNL     1       0.869   8.585  20.799  0.00  0.00    +0.000 C 
ATOM     19  N   UNL     1       0.718   9.914  20.179  0.00  0.00    +0.000 N 
ATOM     20  C   UNL     1       0.598   9.921  18.718  0.00  0.00    +0.000 C 
ATOM     21  C   UNL     1       1.860   9.267  18.140  0.00  0.00    +0.000 C 
BRANCH  19  22
ATOM     22  C   UNL     1       0.361  11.019  20.920  0.00  0.00    +0.000 A 
ATOM     23  C   UNL     1      -0.666  10.924  21.872  0.00  0.00    +0.000 A 
ATOM     24  C   UNL     1      -1.108  12.034  22.594  0.00  0.00    +0.000 A 
ATOM     25  C   UNL     1      -0.524  13.280  22.374  0.00  0.00    +0.000 A 
ATOM     26  C   UNL     1       0.499  13.408  21.445  0.00  0.00    +0.000 A 
ATOM     27  C   UNL     1       0.932  12.291  20.736  0.00  0.00    +0.000 A 
ATOM     28  F   UNL     1       1.941  12.465  19.867  0.00  0.00    +0.000 F 
ENDBRANCH  19  22
ENDBRANCH  15  16
ENDBRANCH   4  15
TORSDOF 3
ENDMDL
MODEL 2
REMARK VINA RESULT:      -8.4      1.584      2.101
REMARK  Name = 
REMARK  3 active torsions:
REMARK  status: ('A' for Active; 'I' for Inactive)
REMARK    1  A    between atoms: C_4  and  C_5
REMARK    2  A    between atoms: C_5  and  N_6
REMARK    3  A    between atoms: N_9  and  C_10
REMARK                            x       y       z     vdW  Elec       q    Type
REMARK                         _______ _______ _______ _____ _____    ______ ____
ROOT
ATOM      1  O   UNL     1       1.064   2.821  21.286  0.00  0.00    +0.000 OA
ATOM      2  C   UNL     1       1.797   3.627  20.721  0.00  0.00    +0.000 A 
ATOM      3  C   UNL     1       1.504   5.089  20.769  0.00  0.00    +0.000 A 
ATOM      4  C   UNL     1       2.202   5.980  20.057  0.00  0.00    +0.000 A 
ATOM      5  C   UNL     1       3.179   5.433  19.109  0.00  0.00    +0.000 A 
ATOM      6  C   UNL     1       3.753   6.271  18.166  0.00  0.00    +0.000 A 
ATOM      7  C   UNL     1       5.008   5.978  17.722  0.00  0.00    +0.000 A 
ATOM      8  C   UNL     1       5.596   4.746  17.954  0.00  0.00    +0.000 A 
ATOM      9  C   UNL     1       4.908   3.772  18.676  0.00  0.00    +0.000 A 
ATOM     10  C   UNL     1       3.699   4.153  19.284  0.00  0.00    +0.000 A 
ATOM     11  O   UNL     1       2.990   3.241  20.094  0.00  0.00    +0.000 OA
ATOM     12  C   UNL     1       6.943   4.745  17.296  0.00  0.00    +0.000 C 
ATOM     13  C   UNL     1       7.215   6.250  17.049  0.00  0.00    +0.000 C 
ATOM     14  C   UNL     1       5.891   6.998  17.110  0.00  0.00    +0.000 C 
ENDROOT
BRANCH   4  15
ATOM     15  C   UNL     1       2.276   7.496  20.151  0.00  0.00    +0.000 C 
BRANCH  15  16
ATOM     16  N   UNL     1       1.149   8.356  20.201  0.00  0.00    +0.000 NA
ATOM     17  C   UNL     1       0.929   9.417  19.247  0.00  0.00    +0.000 C 
ATOM     18  C   UNL     1       0.786  10.791  19.939  0.00  0.00    +0.000 C 
ATOM     19  N   UNL     1      -0.084  10.679  21.122  0.00  0.00    +0.000 N 
ATOM     20  C   UNL     1       0.284   9.635  22.083  0.00  0.00    +0.000 C 
ATOM     21  C   UNL     1       0.261   8.289  21.345  0.00  0.00    +0.000 C 
BRANCH  19  22
ATOM     22  C   UNL     1      -0.951  11.689  21.478  0.00  0.00    +0.000 A 
ATOM     23  C   UNL     1      -0.892  12.244  22.766  0.00  0.00    +0.000 A 
ATOM     24  C   UNL     1      -1.797  13.218  23.191  0.00  0.00    +0.000 A 
ATOM     25  C   UNL     1      -2.794  13.663  22.325  0.00  0.00    +0.000 A 
ATOM     26  C   UNL     1      -2.875  13.141  21.042  0.00  0.00    +0.000 A 
ATOM     27  C   UNL     1      -1.964  12.173  20.631  0.00  0.00    +0.000 A 
ATOM     28  F   UNL     1      -2.072  11.720  19.371  0.00  0.00    +0.000 F 
ENDBRANCH  19  22
ENDBRANCH  15  16
ENDBRANCH   4  15
TORSDOF 3
ENDMDL
MODEL 3
REMARK VINA RESULT:      -8.4      1.804      2.316
REMARK  Name = 
REMARK  3 active torsions:
REMARK  status: ('A' for Active; 'I' for Inactive)
REMARK    1  A    between atoms: C_4  and  C_5
REMARK    2  A    between atoms: C_5  and  N_6
REMARK    3  A    between atoms: N_9  and  C_10
REMARK                            x       y       z     vdW  Elec       q    Type
REMARK                         _______ _______ _______ _____ _____    ______ ____
ROOT
ATOM      1  O   UNL     1       1.390   2.684  21.634  0.00  0.00    +0.000 OA
ATOM      2  C   UNL     1       1.977   3.421  20.846  0.00  0.00    +0.000 A 
ATOM      3  C   UNL     1       1.809   4.902  20.916  0.00  0.00    +0.000 A 
ATOM      4  C   UNL     1       2.324   5.721  19.994  0.00  0.00    +0.000 A 
ATOM      5  C   UNL     1       2.941   5.082  18.826  0.00  0.00    +0.000 A 
ATOM      6  C   UNL     1       3.267   5.854  17.723  0.00  0.00    +0.000 A 
ATOM      7  C   UNL     1       4.314   5.457  16.945  0.00  0.00    +0.000 A 
ATOM      8  C   UNL     1       4.861   4.189  17.048  0.00  0.00    +0.000 A 
ATOM      9  C   UNL     1       4.352   3.286  17.979  0.00  0.00    +0.000 A 
ATOM     10  C   UNL     1       3.403   3.770  18.896  0.00  0.00    +0.000 A 
ATOM     11  O   UNL     1       2.904   2.932  19.916  0.00  0.00    +0.000 OA
ATOM     12  C   UNL     1       5.953   4.072  16.026  0.00  0.00    +0.000 C 
ATOM     13  C   UNL     1       6.239   5.546  15.647  0.00  0.00    +0.000 C 
ATOM     14  C   UNL     1       5.044   6.394  16.059  0.00  0.00    +0.000 C 
ENDROOT
BRANCH   4  15
ATOM     15  C   UNL     1       2.524   7.229  19.998  0.00  0.00    +0.000 C 
BRANCH  15  16
ATOM     16  N   UNL     1       1.472   8.180  19.950  0.00  0.00    +0.000 NA
ATOM     17  C   UNL     1       1.204   8.996  18.789  0.00  0.00    +0.000 C 
ATOM     18  C   UNL     1       1.243  10.503  19.124  0.00  0.00    +0.000 C 
ATOM     19  N   UNL     1       0.525  10.765  20.384  0.00  0.00    +0.000 N 
ATOM     20  C   UNL     1       0.942   9.954  21.531  0.00  0.00    +0.000 C 
ATOM     21  C   UNL     1       0.735   8.479  21.163  0.00  0.00    +0.000 C 
BRANCH  19  22
ATOM     22  C   UNL     1      -0.219  11.910  20.565  0.00  0.00    +0.000 A 
ATOM     23  C   UNL     1       0.275  12.950  21.367  0.00  0.00    +0.000 A 
ATOM     24  C   UNL     1      -0.475  14.096  21.635  0.00  0.00    +0.000 A 
ATOM     25  C   UNL     1      -1.755  14.227  21.099  0.00  0.00    +0.000 A 
ATOM     26  C   UNL     1      -2.271  13.221  20.294  0.00  0.00    +0.000 A 
ATOM     27  C   UNL     1      -1.510  12.086  20.033  0.00  0.00    +0.000 A 
ATOM     28  F   UNL     1      -2.047  11.154  19.228  0.00  0.00    +0.000 F 
ENDBRANCH  19  22
ENDBRANCH  15  16
ENDBRANCH   4  15
TORSDOF 3
ENDMDL
MODEL 4
REMARK VINA RESULT:      -8.3      1.322      1.911
REMARK  Name = 
REMARK  3 active torsions:
REMARK  status: ('A' for Active; 'I' for Inactive)
REMARK    1  A    between atoms: C_4  and  C_5
REMARK    2  A    between atoms: C_5  and  N_6
REMARK    3  A    between atoms: N_9  and  C_10
REMARK                            x       y       z     vdW  Elec       q    Type
REMARK                         _______ _______ _______ _____ _____    ______ ____
ROOT
ATOM      1  O   UNL     1       1.004   2.904  21.219  0.00  0.00    +0.000 OA
ATOM      2  C   UNL     1       1.760   3.694  20.660  0.00  0.00    +0.000 A 
ATOM      3  C   UNL     1       1.486   5.160  20.681  0.00  0.00    +0.000 A 
ATOM      4  C   UNL     1       2.210   6.031  19.973  0.00  0.00    +0.000 A 
ATOM      5  C   UNL     1       3.202   5.459  19.055  0.00  0.00    +0.000 A 
ATOM      6  C   UNL     1       3.807   6.275  18.114  0.00  0.00    +0.000 A 
ATOM      7  C   UNL     1       5.069   5.960  17.702  0.00  0.00    +0.000 A 
ATOM      8  C   UNL     1       5.635   4.724  17.966  0.00  0.00    +0.000 A 
ATOM      9  C   UNL     1       4.918   3.770  18.685  0.00  0.00    +0.000 A 
ATOM     10  C   UNL     1       3.701   4.174  19.260  0.00  0.00    +0.000 A 
ATOM     11  O   UNL     1       2.961   3.283  20.066  0.00  0.00    +0.000 OA
ATOM     12  C   UNL     1       6.997   4.696  17.338  0.00  0.00    +0.000 C 
ATOM     13  C   UNL     1       7.294   6.194  17.076  0.00  0.00    +0.000 C 
ATOM     14  C   UNL     1       5.979   6.960  17.097  0.00  0.00    +0.000 C 
ENDROOT
BRANCH   4  15
ATOM     15  C   UNL     1       2.303   7.547  20.047  0.00  0.00    +0.000 C 
BRANCH  15  16
ATOM     16  N   UNL     1       1.214   8.406  20.346  0.00  0.00    +0.000 NA
ATOM     17  C   UNL     1       0.856   9.535  19.520  0.00  0.00    +0.000 C 
ATOM     18  C   UNL     1       0.853  10.856  20.322  0.00  0.00    +0.000 C 
ATOM     19  N   UNL     1       0.190  10.661  21.623  0.00  0.00    +0.000 N 
ATOM     20  C   UNL     1       0.695   9.549  22.432  0.00  0.00    +0.000 C 
ATOM     21  C   UNL     1       0.528   8.261  21.615  0.00  0.00    +0.000 C 
BRANCH  19  22
ATOM     22  C   UNL     1      -0.589  11.647  22.190  0.00  0.00    +0.000 A 
ATOM     23  C   UNL     1      -1.756  11.305  22.889  0.00  0.00    +0.000 A 
ATOM     24  C   UNL     1      -2.611  12.274  23.416  0.00  0.00    +0.000 A 
ATOM     25  C   UNL     1      -2.312  13.625  23.251  0.00  0.00    +0.000 A 
ATOM     26  C   UNL     1      -1.161  13.998  22.571  0.00  0.00    +0.000 A 
ATOM     27  C   UNL     1      -0.317  13.021  22.055  0.00  0.00    +0.000 A 
ATOM     28  F   UNL     1       0.796  13.436  21.427  0.00  0.00    +0.000 F 
ENDBRANCH  19  22
ENDBRANCH  15  16
ENDBRANCH   4  15
TORSDOF 3
ENDMDL
MODEL 5
REMARK VINA RESULT:      -8.3      1.693      2.051
REMARK  Name = 
REMARK  3 active torsions:
REMARK  status: ('A' for Active; 'I' for Inactive)
REMARK    1  A    between atoms: C_4  and  C_5
REMARK    2  A    between atoms: C_5  and  N_6
REMARK    3  A    between atoms: N_9  and  C_10
REMARK                            x       y       z     vdW  Elec       q    Type
REMARK                         _______ _______ _______ _____ _____    ______ ____
ROOT
ATOM      1  O   UNL     1       1.088   2.601  21.198  0.00  0.00    +0.000 OA
ATOM      2  C   UNL     1       1.754   3.336  20.475  0.00  0.00    +0.000 A 
ATOM      3  C   UNL     1       1.661   4.820  20.601  0.00  0.00    +0.000 A 
ATOM      4  C   UNL     1       2.267   5.647  19.744  0.00  0.00    +0.000 A 
ATOM      5  C   UNL     1       2.912   5.024  18.583  0.00  0.00    +0.000 A 
ATOM      6  C   UNL     1       3.337   5.821  17.533  0.00  0.00    +0.000 A 
ATOM      7  C   UNL     1       4.402   5.399  16.793  0.00  0.00    +0.000 A 
ATOM      8  C   UNL     1       4.876   4.101  16.869  0.00  0.00    +0.000 A 
ATOM      9  C   UNL     1       4.270   3.189  17.732  0.00  0.00    +0.000 A 
ATOM     10  C   UNL     1       3.300   3.686  18.619  0.00  0.00    +0.000 A 
ATOM     11  O   UNL     1       2.703   2.836  19.573  0.00  0.00    +0.000 OA
ATOM     12  C   UNL     1       6.013   3.966  15.900  0.00  0.00    +0.000 C 
ATOM     13  C   UNL     1       6.397   5.437  15.602  0.00  0.00    +0.000 C 
ATOM     14  C   UNL     1       5.227   6.331  15.988  0.00  0.00    +0.000 C 
ENDROOT
BRANCH   4  15
ATOM     15  C   UNL     1       2.545   7.140  19.824  0.00  0.00    +0.000 C 
BRANCH  15  16
ATOM     16  N   UNL     1       1.549   8.148  19.763  0.00  0.00    +0.000 NA
ATOM     17  C   UNL     1       1.353   8.988  18.604  0.00  0.00    +0.000 C 
ATOM     18  C   UNL     1       1.468  10.488  18.956  0.00  0.00    +0.000 C 
ATOM     19  N   UNL     1       0.737  10.778  20.203  0.00  0.00    +0.000 N 
ATOM     20  C   UNL     1       1.082   9.934  21.350  0.00  0.00    +0.000 C 
ATOM     21  C   UNL     1       0.802   8.476  20.962  0.00  0.00    +0.000 C 
BRANCH  19  22
ATOM     22  C   UNL     1       0.053  11.961  20.378  0.00  0.00    +0.000 A 
ATOM     23  C   UNL     1      -1.349  11.977  20.323  0.00  0.00    +0.000 A 
ATOM     24  C   UNL     1      -2.078  13.163  20.423  0.00  0.00    +0.000 A 
ATOM     25  C   UNL     1      -1.410  14.375  20.583  0.00  0.00    +0.000 A 
ATOM     26  C   UNL     1      -0.024  14.394  20.650  0.00  0.00    +0.000 A 
ATOM     27  C   UNL     1       0.689  13.204  20.552  0.00  0.00    +0.000 A 
ATOM     28  F   UNL     1       2.027  13.276  20.648  0.00  0.00    +0.000 F 
ENDBRANCH  19  22
ENDBRANCH  15  16
ENDBRANCH   4  15
TORSDOF 3
ENDMDL
MODEL 6
REMARK VINA RESULT:      -8.3      1.151      1.401
REMARK  Name = 
REMARK  3 active torsions:
REMARK  status: ('A' for Active; 'I' for Inactive)
REMARK    1  A    between atoms: C_4  and  C_5
REMARK    2  A    between atoms: C_5  and  N_6
REMARK    3  A    between atoms: N_9  and  C_10
REMARK                            x       y       z     vdW  Elec       q    Type
REMARK                         _______ _______ _______ _____ _____    ______ ____
ROOT
ATOM      1  O   UNL     1       1.241   2.791  19.575  0.00  0.00    +0.000 OA
ATOM      2  C   UNL     1       2.033   3.673  19.255  0.00  0.00    +0.000 A 
ATOM      3  C   UNL     1       1.550   4.961  18.679  0.00  0.00    +0.000 A 
ATOM      4  C   UNL     1       2.388   5.885  18.197  0.00  0.00    +0.000 A 
ATOM      5  C   UNL     1       3.804   5.508  18.128  0.00  0.00    +0.000 A 
ATOM      6  C   UNL     1       4.685   6.305  17.416  0.00  0.00    +0.000 A 
ATOM      7  C   UNL     1       5.990   6.336  17.811  0.00  0.00    +0.000 A 
ATOM      8  C   UNL     1       6.509   5.401  18.691  0.00  0.00    +0.000 A 
ATOM      9  C   UNL     1       5.686   4.404  19.211  0.00  0.00    +0.000 A 
ATOM     10  C   UNL     1       4.310   4.497  18.942  0.00  0.00    +0.000 A 
ATOM     11  O   UNL     1       3.409   3.566  19.502  0.00  0.00    +0.000 OA
ATOM     12  C   UNL     1       7.968   5.697  18.872  0.00  0.00    +0.000 C 
ATOM     13  C   UNL     1       8.101   7.147  18.343  0.00  0.00    +0.000 C 
ATOM     14  C   UNL     1       6.897   7.455  17.465  0.00  0.00    +0.000 C 
ENDROOT
BRANCH   4  15
ATOM     15  C   UNL     1       2.162   7.344  17.832  0.00  0.00    +0.000 C 
BRANCH  15  16
ATOM     16  N   UNL     1       1.931   8.382  18.771  0.00  0.00    +0.000 NA
ATOM     17  C   UNL     1       1.863   8.151  20.195  0.00  0.00    +0.000 C 
ATOM     18  C   UNL     1       0.525   8.638  20.793  0.00  0.00    +0.000 C 
ATOM     19  N   UNL     1       0.173   9.961  20.249  0.00  0.00    +0.000 N 
ATOM     20  C   UNL     1       0.172  10.065  18.787  0.00  0.00    +0.000 C 
ATOM     21  C   UNL     1       1.578   9.704  18.290  0.00  0.00    +0.000 C 
BRANCH  19  22
ATOM     22  C   UNL     1      -0.447  10.918  21.024  0.00  0.00    +0.000 A 
ATOM     23  C   UNL     1      -0.658  12.207  20.512  0.00  0.00    +0.000 A 
ATOM     24  C   UNL     1      -1.216  13.226  21.286  0.00  0.00    +0.000 A 
ATOM     25  C   UNL     1      -1.579  12.972  22.607  0.00  0.00    +0.000 A 
ATOM     26  C   UNL     1      -1.391  11.705  23.142  0.00  0.00    +0.000 A 
ATOM     27  C   UNL     1      -0.837  10.699  22.358  0.00  0.00    +0.000 A 
ATOM     28  F   UNL     1      -0.699   9.486  22.917  0.00  0.00    +0.000 F 
ENDBRANCH  19  22
ENDBRANCH  15  16
ENDBRANCH   4  15
TORSDOF 3
ENDMDL
MODEL 7
REMARK VINA RESULT:      -8.1      1.605      2.157
REMARK  Name = 
REMARK  3 active torsions:
REMARK  status: ('A' for Active; 'I' for Inactive)
REMARK    1  A    between atoms: C_4  and  C_5
REMARK    2  A    between atoms: C_5  and  N_6
REMARK    3  A    between atoms: N_9  and  C_10
REMARK                            x       y       z     vdW  Elec       q    Type
REMARK                         _______ _______ _______ _____ _____    ______ ____
ROOT
ATOM      1  O   UNL     1       0.356   2.488  19.214  0.00  0.00    +0.000 OA
ATOM      2  C   UNL     1       1.254   3.298  19.003  0.00  0.00    +0.000 A 
ATOM      3  C   UNL     1       1.192   4.673  19.578  0.00  0.00    +0.000 A 
ATOM      4  C   UNL     1       2.081   5.619  19.260  0.00  0.00    +0.000 A 
ATOM      5  C   UNL     1       3.040   5.282  18.203  0.00  0.00    +0.000 A 
ATOM      6  C   UNL     1       3.820   6.285  17.648  0.00  0.00    +0.000 A 
ATOM      7  C   UNL     1       5.048   5.950  17.158  0.00  0.00    +0.000 A 
ATOM      8  C   UNL     1       5.411   4.633  16.937  0.00  0.00    +0.000 A 
ATOM      9  C   UNL     1       4.518   3.606  17.233  0.00  0.00    +0.000 A 
ATOM     10  C   UNL     1       3.335   3.953  17.908  0.00  0.00    +0.000 A 
ATOM     11  O   UNL     1       2.422   2.955  18.308  0.00  0.00    +0.000 OA
ATOM     12  C   UNL     1       6.795   4.626  16.358  0.00  0.00    +0.000 C 
ATOM     13  C   UNL     1       7.321   6.045  16.688  0.00  0.00    +0.000 C 
ATOM     14  C   UNL     1       6.131   6.946  16.986  0.00  0.00    +0.000 C 
ENDROOT
BRANCH   4  15
ATOM     15  C   UNL     1       2.385   6.962  19.907  0.00  0.00    +0.000 C 
BRANCH  15  16
ATOM     16  N   UNL     1       1.412   7.953  20.199  0.00  0.00    +0.000 NA
ATOM     17  C   UNL     1       1.003   8.957  19.245  0.00  0.00    +0.000 C 
ATOM     18  C   UNL     1       1.209  10.387  19.792  0.00  0.00    +0.000 C 
ATOM     19  N   UNL     1       0.744  10.471  21.188  0.00  0.00    +0.000 N 
ATOM     20  C   UNL     1       1.297   9.467  22.102  0.00  0.00    +0.000 C 
ATOM     21  C   UNL     1       0.923   8.082  21.559  0.00  0.00    +0.000 C 
BRANCH  19  22
ATOM     22  C   UNL     1       0.127  11.603  21.675  0.00  0.00    +0.000 A 
ATOM     23  C   UNL     1       0.547  12.871  21.245  0.00  0.00    +0.000 A 
ATOM     24  C   UNL     1      -0.001  14.045  21.766  0.00  0.00    +0.000 A 
ATOM     25  C   UNL     1      -0.993  13.973  22.742  0.00  0.00    +0.000 A 
ATOM     26  C   UNL     1      -1.436  12.734  23.183  0.00  0.00    +0.000 A 
ATOM     27  C   UNL     1      -0.884  11.573  22.653  0.00  0.00    +0.000 A 
ATOM     28  F   UNL     1      -1.366  10.401  23.097  0.00  0.00    +0.000 F 
ENDBRANCH  19  22
ENDBRANCH  15  16
ENDBRANCH   4  15
TORSDOF 3
ENDMDL
MODEL 8
REMARK VINA RESULT:      -8.1      1.828      2.003
REMARK  Name = 
REMARK  3 active torsions:
REMARK  status: ('A' for Active; 'I' for Inactive)
REMARK    1  A    between atoms: C_4  and  C_5
REMARK    2  A    between atoms: C_5  and  N_6
REMARK    3  A    between atoms: N_9  and  C_10
REMARK                            x       y       z     vdW  Elec       q    Type
REMARK                         _______ _______ _______ _____ _____    ______ ____
ROOT
ATOM      1  O   UNL     1       1.820   3.271  22.012  0.00  0.00    +0.000 OA
ATOM      2  C   UNL     1       2.351   3.896  21.098  0.00  0.00    +0.000 A 
ATOM      3  C   UNL     1       1.779   5.190  20.625  0.00  0.00    +0.000 A 
ATOM      4  C   UNL     1       2.251   5.827  19.550  0.00  0.00    +0.000 A 
ATOM      5  C   UNL     1       3.268   5.117  18.766  0.00  0.00    +0.000 A 
ATOM      6  C   UNL     1       3.618   5.595  17.514  0.00  0.00    +0.000 A 
ATOM      7  C   UNL     1       4.883   5.357  17.063  0.00  0.00    +0.000 A 
ATOM      8  C   UNL     1       5.712   4.430  17.670  0.00  0.00    +0.000 A 
ATOM      9  C   UNL     1       5.266   3.723  18.785  0.00  0.00    +0.000 A 
ATOM     10  C   UNL     1       4.038   4.112  19.347  0.00  0.00    +0.000 A 
ATOM     11  O   UNL     1       3.563   3.492  20.522  0.00  0.00    +0.000 OA
ATOM     12  C   UNL     1       6.999   4.387  16.901  0.00  0.00    +0.000 C 
ATOM     13  C   UNL     1       6.956   5.695  16.071  0.00  0.00    +0.000 C 
ATOM     14  C   UNL     1       5.516   6.181  16.007  0.00  0.00    +0.000 C 
ENDROOT
BRANCH   4  15
ATOM     15  C   UNL     1       2.030   7.248  19.053  0.00  0.00    +0.000 C 
BRANCH  15  16
ATOM     16  N   UNL     1       1.629   8.334  19.873  0.00  0.00    +0.000 NA
ATOM     17  C   UNL     1       1.183   8.165  21.236  0.00  0.00    +0.000 C 
ATOM     18  C   UNL     1      -0.232   8.745  21.454  0.00  0.00    +0.000 C 
ATOM     19  N   UNL     1      -0.350  10.062  20.804  0.00  0.00    +0.000 N 
ATOM     20  C   UNL     1       0.032  10.106  19.389  0.00  0.00    +0.000 C 
ATOM     21  C   UNL     1       1.494   9.652  19.283  0.00  0.00    +0.000 C 
BRANCH  19  22
ATOM     22  C   UNL     1      -1.088  11.080  21.366  0.00  0.00    +0.000 A 
ATOM     23  C   UNL     1      -1.721  12.025  20.545  0.00  0.00    +0.000 A 
ATOM     24  C   UNL     1      -2.418  13.113  21.073  0.00  0.00    +0.000 A 
ATOM     25  C   UNL     1      -2.496  13.280  22.454  0.00  0.00    +0.000 A 
ATOM     26  C   UNL     1      -1.888  12.359  23.296  0.00  0.00    +0.000 A 
ATOM     27  C   UNL     1      -1.200  11.278  22.755  0.00  0.00    +0.000 A 
ATOM     28  F   UNL     1      -0.651  10.404  23.613  0.00  0.00    +0.000 F 
ENDBRANCH  19  22
ENDBRANCH  15  16
ENDBRANCH   4  15
TORSDOF 3
ENDMDL
MODEL 9
REMARK VINA RESULT:      -8.1      1.218      1.282
REMARK  Name = 
REMARK  3 active torsions:
REMARK  status: ('A' for Active; 'I' for Inactive)
REMARK    1  A    between atoms: C_4  and  C_5
REMARK    2  A    between atoms: C_5  and  N_6
REMARK    3  A    between atoms: N_9  and  C_10
REMARK                            x       y       z     vdW  Elec       q    Type
REMARK                         _______ _______ _______ _____ _____    ______ ____
ROOT
ATOM      1  O   UNL     1       0.979   3.114  19.151  0.00  0.00    +0.000 OA
ATOM      2  C   UNL     1       1.838   3.959  18.914  0.00  0.00    +0.000 A 
ATOM      3  C   UNL     1       1.461   5.306  18.395  0.00  0.00    +0.000 A 
ATOM      4  C   UNL     1       2.374   6.198  18.000  0.00  0.00    +0.000 A 
ATOM      5  C   UNL     1       3.765   5.734  17.965  0.00  0.00    +0.000 A 
ATOM      6  C   UNL     1       4.724   6.511  17.335  0.00  0.00    +0.000 A 
ATOM      7  C   UNL     1       6.011   6.435  17.782  0.00  0.00    +0.000 A 
ATOM      8  C   UNL     1       6.432   5.423  18.626  0.00  0.00    +0.000 A 
ATOM      9  C   UNL     1       5.527   4.453  19.055  0.00  0.00    +0.000 A 
ATOM     10  C   UNL     1       4.172   4.650  18.739  0.00  0.00    +0.000 A 
ATOM     11  O   UNL     1       3.192   3.750  19.208  0.00  0.00    +0.000 OA
ATOM     12  C   UNL     1       7.898   5.613  18.882  0.00  0.00    +0.000 C 
ATOM     13  C   UNL     1       8.143   7.078  18.443  0.00  0.00    +0.000 C 
ATOM     14  C   UNL     1       6.999   7.511  17.537  0.00  0.00    +0.000 C 
ENDROOT
BRANCH   4  15
ATOM     15  C   UNL     1       2.256   7.687  17.711  0.00  0.00    +0.000 C 
BRANCH  15  16
ATOM     16  N   UNL     1       1.910   8.669  18.675  0.00  0.00    +0.000 NA
ATOM     17  C   UNL     1       1.790   8.377  20.084  0.00  0.00    +0.000 C 
ATOM     18  C   UNL     1       0.394   8.751  20.631  0.00  0.00    +0.000 C 
ATOM     19  N   UNL     1      -0.019  10.070  20.119  0.00  0.00    +0.000 N 
ATOM     20  C   UNL     1       0.044  10.232  18.663  0.00  0.00    +0.000 C 
ATOM     21  C   UNL     1       1.494   9.983  18.225  0.00  0.00    +0.000 C 
BRANCH  19  22
ATOM     22  C   UNL     1      -0.737  10.952  20.896  0.00  0.00    +0.000 A 
ATOM     23  C   UNL     1      -0.632  10.903  22.294  0.00  0.00    +0.000 A 
ATOM     24  C   UNL     1      -1.395  11.728  23.121  0.00  0.00    +0.000 A 
ATOM     25  C   UNL     1      -2.294  12.632  22.558  0.00  0.00    +0.000 A 
ATOM     26  C   UNL     1      -2.417  12.712  21.178  0.00  0.00    +0.000 A 
ATOM     27  C   UNL     1      -1.647  11.886  20.366  0.00  0.00    +0.000 A 
ATOM     28  F   UNL     1      -1.787  12.021  19.037  0.00  0.00    +0.000 F 
ENDBRANCH  19  22
ENDBRANCH  15  16
ENDBRANCH   4  15
TORSDOF 3
ENDMDL
