MODEL 1
REMARK VINA RESULT:      -8.9      0.000      0.000
REMARK  Name = 
REMARK  9 active torsions:
REMARK  status: ('A' for Active; 'I' for Inactive)
REMARK    1  A    between atoms: C_1  and  C_2
REMARK    2  A    between atoms: C_2  and  C_3
REMARK    3  A    between atoms: C_7  and  C_8
REMARK    4  A    between atoms: N_14  and  C_15
REMARK    5  A    between atoms: C_19  and  N_20
REMARK    6  A    between atoms: N_20  and  C_21
REMARK    7  A    between atoms: N_20  and  C_22
REMARK    8  A    between atoms: C_22  and  C_23
REMARK    9  A    between atoms: N_27  and  C_28
REMARK                            x       y       z     vdW  Elec       q    Type
REMARK                         _______ _______ _______ _____ _____    ______ ____
ROOT
ATOM      1  C   UNL     1       3.856   5.187  17.711  0.00  0.00    +0.000 A 
ATOM      2  C   UNL     1       3.465   6.529  17.763  0.00  0.00    +0.000 A 
ATOM      3  C   UNL     1       2.649   6.929  18.807  0.00  0.00    +0.000 A 
ATOM      4  C   UNL     1       2.240   6.070  19.827  0.00  0.00    +0.000 A 
ATOM      5  C   UNL     1       2.600   4.725  19.791  0.00  0.00    +0.000 A 
ATOM      6  C   UNL     1       3.420   4.299  18.720  0.00  0.00    +0.000 A 
ATOM      7  C   UNL     1       1.416   6.837  20.820  0.00  0.00    +0.000 C 
ATOM      8  N   UNL     1       1.356   8.162  20.231  0.00  0.00    +0.000 N 
ATOM      9  C   UNL     1       2.046   8.247  19.029  0.00  0.00    +0.000 C 
ATOM     10  O   UNL     1       2.186   9.189  18.272  0.00  0.00    +0.000 OA
ENDROOT
BRANCH   8  11
ATOM     11  C   UNL     1       0.567   9.192  20.770  0.00  0.00    +0.000 A 
ATOM     12  C   UNL     1       0.307   9.222  22.139  0.00  0.00    +0.000 A 
ATOM     13  C   UNL     1      -0.376  10.307  22.684  0.00  0.00    +0.000 A 
ATOM     14  C   UNL     1      -0.872  11.315  21.853  0.00  0.00    +0.000 A 
ATOM     15  C   UNL     1      -0.730  11.252  20.461  0.00  0.00    +0.000 A 
ATOM     16  C   UNL     1       0.054  10.209  19.948  0.00  0.00    +0.000 A 
BRANCH  15  17
ATOM     17  N   UNL     1      -1.354  12.174  19.637  0.00  0.00    +0.000 N 
ATOM     18  C   UNL     1      -0.713  13.438  19.305  0.00  0.00    +0.000 C 
BRANCH  17  19
ATOM     19  C   UNL     1      -2.732  11.960  19.177  0.00  0.00    +0.000 C 
BRANCH  19  20
ATOM     20  C   UNL     1      -2.974  11.501  17.763  0.00  0.00    +0.000 A 
ATOM     21  N   UNL     1      -2.024  11.020  16.979  0.00  0.00    +0.000 NA
ATOM     22  N   UNL     1      -2.585  10.621  15.794  0.00  0.00    +0.000 NA
ATOM     23  C   UNL     1      -3.869  10.864  15.869  0.00  0.00    +0.000 A 
ATOM     24  N   UNL     1      -4.164  11.416  17.081  0.00  0.00    +0.000 N 
ATOM     25  C   UNL     1      -5.490  11.797  17.483  0.00  0.00    +0.000 C 
ENDBRANCH  19  20
ENDBRANCH  17  19
ENDBRANCH  15  17
ENDBRANCH   8  11
BRANCH   5  26
ATOM     26  C   UNL     1       2.121   3.721  20.807  0.00  0.00    +0.000 C 
ATOM     27  F   UNL     1       2.449   4.042  22.090  0.00  0.00    +0.000 F 
ATOM     28  F   UNL     1       0.769   3.578  20.797  0.00  0.00    +0.000 F 
ATOM     29  F   UNL     1       2.631   2.478  20.595  0.00  0.00    +0.000 F 
ENDBRANCH   5  26
BRANCH   1  31
ATOM     30  C   UNL     1       6.187   4.571  16.967  0.00  0.00    +0.000 C 
ATOM     31  C   UNL     1       4.723   4.697  16.575  0.00  0.00    +0.000 C 
ENDBRANCH   1  31
TORSDOF 6
ENDMDL
MODEL 2
REMARK VINA RESULT:      -8.8      3.578      8.484
REMARK  Name = 
REMARK  9 active torsions:
REMARK  status: ('A' for Active; 'I' for Inactive)
REMARK    1  A    between atoms: C_1  and  C_2
REMARK    2  A    between atoms: C_2  and  C_3
REMARK    3  A    between atoms: C_7  and  C_8
REMARK    4  A    between atoms: N_14  and  C_15
REMARK    5  A    between atoms: C_19  and  N_20
REMARK    6  A    between atoms: N_20  and  C_21
REMARK    7  A    between atoms: N_20  and  C_22
REMARK    8  A    between atoms: C_22  and  C_23
REMARK    9  A    between atoms: N_27  and  C_28
REMARK                            x       y       z     vdW  Elec       q    Type
REMARK                         _______ _______ _______ _____ _____    ______ ____
ROOT
ATOM      1  C   UNL     1       0.280  11.517  19.199  0.00  0.00    +0.000 A 
ATOM      2  C   UNL     1       0.981  10.595  18.414  0.00  0.00    +0.000 A 
ATOM      3  C   UNL     1       1.333   9.387  18.990  0.00  0.00    +0.000 A 
ATOM      4  C   UNL     1       0.984   9.032  20.293  0.00  0.00    +0.000 A 
ATOM      5  C   UNL     1       0.302   9.938  21.102  0.00  0.00    +0.000 A 
ATOM      6  C   UNL     1      -0.050  11.183  20.531  0.00  0.00    +0.000 A 
ATOM      7  C   UNL     1       1.473   7.642  20.577  0.00  0.00    +0.000 C 
ATOM      8  N   UNL     1       2.169   7.291  19.352  0.00  0.00    +0.000 N 
ATOM      9  C   UNL     1       2.134   8.305  18.405  0.00  0.00    +0.000 C 
ATOM     10  O   UNL     1       2.621   8.354  17.292  0.00  0.00    +0.000 OA
ENDROOT
BRANCH   8  11
ATOM     11  C   UNL     1       2.903   6.101  19.216  0.00  0.00    +0.000 A 
ATOM     12  C   UNL     1       2.841   5.131  20.215  0.00  0.00    +0.000 A 
ATOM     13  C   UNL     1       3.477   3.906  20.022  0.00  0.00    +0.000 A 
ATOM     14  C   UNL     1       4.243   3.685  18.874  0.00  0.00    +0.000 A 
ATOM     15  C   UNL     1       4.420   4.684  17.908  0.00  0.00    +0.000 A 
ATOM     16  C   UNL     1       3.684   5.866  18.073  0.00  0.00    +0.000 A 
BRANCH  15  17
ATOM     17  N   UNL     1       5.300   4.509  16.853  0.00  0.00    +0.000 N 
ATOM     18  C   UNL     1       4.823   4.106  15.538  0.00  0.00    +0.000 C 
BRANCH  17  19
ATOM     19  C   UNL     1       6.751   4.601  17.059  0.00  0.00    +0.000 C 
BRANCH  19  20
ATOM     20  C   UNL     1       7.360   5.928  17.431  0.00  0.00    +0.000 A 
ATOM     21  N   UNL     1       7.426   6.958  16.604  0.00  0.00    +0.000 NA
ATOM     22  N   UNL     1       7.959   8.030  17.271  0.00  0.00    +0.000 NA
ATOM     23  C   UNL     1       8.212   7.641  18.495  0.00  0.00    +0.000 A 
ATOM     24  N   UNL     1       7.856   6.333  18.647  0.00  0.00    +0.000 N 
ATOM     25  C   UNL     1       8.002   5.603  19.876  0.00  0.00    +0.000 C 
ENDBRANCH  19  20
ENDBRANCH  17  19
ENDBRANCH  15  17
ENDBRANCH   8  11
BRANCH   5  26
ATOM     26  C   UNL     1      -0.029   9.661  22.545  0.00  0.00    +0.000 C 
ATOM     27  F   UNL     1       1.057   9.349  23.305  0.00  0.00    +0.000 F 
ATOM     28  F   UNL     1      -0.613  10.726  23.157  0.00  0.00    +0.000 F 
ATOM     29  F   UNL     1      -0.895   8.622  22.694  0.00  0.00    +0.000 F 
ENDBRANCH   5  26
BRANCH   1  31
ATOM     30  C   UNL     1       0.844  13.972  19.051  0.00  0.00    +0.000 C 
ATOM     31  C   UNL     1      -0.102  12.861  18.623  0.00  0.00    +0.000 C 
ENDBRANCH   1  31
TORSDOF 6
ENDMDL
MODEL 3
REMARK VINA RESULT:      -8.6      2.423      3.356
REMARK  Name = 
REMARK  9 active torsions:
REMARK  status: ('A' for Active; 'I' for Inactive)
REMARK    1  A    between atoms: C_1  and  C_2
REMARK    2  A    between atoms: C_2  and  C_3
REMARK    3  A    between atoms: C_7  and  C_8
REMARK    4  A    between atoms: N_14  and  C_15
REMARK    5  A    between atoms: C_19  and  N_20
REMARK    6  A    between atoms: N_20  and  C_21
REMARK    7  A    between atoms: N_20  and  C_22
REMARK    8  A    between atoms: C_22  and  C_23
REMARK    9  A    between atoms: N_27  and  C_28
REMARK                            x       y       z     vdW  Elec       q    Type
REMARK                         _______ _______ _______ _____ _____    ______ ____
ROOT
ATOM      1  C   UNL     1       4.093   4.388  17.581  0.00  0.00    +0.000 A 
ATOM      2  C   UNL     1       3.882   5.753  17.356  0.00  0.00    +0.000 A 
ATOM      3  C   UNL     1       3.074   6.440  18.246  0.00  0.00    +0.000 A 
ATOM      4  C   UNL     1       2.505   5.849  19.373  0.00  0.00    +0.000 A 
ATOM      5  C   UNL     1       2.686   4.488  19.612  0.00  0.00    +0.000 A 
ATOM      6  C   UNL     1       3.494   3.770  18.701  0.00  0.00    +0.000 A 
ATOM      7  C   UNL     1       1.741   6.885  20.145  0.00  0.00    +0.000 C 
ATOM      8  N   UNL     1       1.886   8.070  19.319  0.00  0.00    +0.000 N 
ATOM      9  C   UNL     1       2.640   7.839  18.177  0.00  0.00    +0.000 C 
ATOM     10  O   UNL     1       2.940   8.595  17.272  0.00  0.00    +0.000 OA
ENDROOT
BRANCH   8  11
ATOM     11  C   UNL     1       1.214   9.272  19.600  0.00  0.00    +0.000 A 
ATOM     12  C   UNL     1       1.171  10.282  18.640  0.00  0.00    +0.000 A 
ATOM     13  C   UNL     1       0.406  11.422  18.879  0.00  0.00    +0.000 A 
ATOM     14  C   UNL     1      -0.241  11.590  20.106  0.00  0.00    +0.000 A 
ATOM     15  C   UNL     1      -0.119  10.647  21.134  0.00  0.00    +0.000 A 
ATOM     16  C   UNL     1       0.565   9.461  20.831  0.00  0.00    +0.000 A 
BRANCH  15  17
ATOM     17  N   UNL     1      -0.637  10.893  22.395  0.00  0.00    +0.000 N 
ATOM     18  C   UNL     1      -0.722   9.833  23.390  0.00  0.00    +0.000 C 
BRANCH  17  19
ATOM     19  C   UNL     1      -1.233  12.194  22.724  0.00  0.00    +0.000 C 
BRANCH  19  20
ATOM     20  C   UNL     1      -2.732  12.327  22.766  0.00  0.00    +0.000 A 
ATOM     21  N   UNL     1      -3.462  12.034  23.829  0.00  0.00    +0.000 NA
ATOM     22  N   UNL     1      -4.772  12.341  23.568  0.00  0.00    +0.000 NA
ATOM     23  C   UNL     1      -4.826  12.815  22.349  0.00  0.00    +0.000 A 
ATOM     24  N   UNL     1      -3.576  12.828  21.803  0.00  0.00    +0.000 N 
ATOM     25  C   UNL     1      -3.289  13.295  20.474  0.00  0.00    +0.000 C 
ENDBRANCH  19  20
ENDBRANCH  17  19
ENDBRANCH  15  17
ENDBRANCH   8  11
BRANCH   5  26
ATOM     26  C   UNL     1       2.029   3.762  20.757  0.00  0.00    +0.000 C 
ATOM     27  F   UNL     1       0.674   3.904  20.789  0.00  0.00    +0.000 F 
ATOM     28  F   UNL     1       2.258   2.422  20.721  0.00  0.00    +0.000 F 
ATOM     29  F   UNL     1       2.474   4.187  21.971  0.00  0.00    +0.000 F 
ENDBRANCH   5  26
BRANCH   1  31
ATOM     30  C   UNL     1       5.565   4.449  15.532  0.00  0.00    +0.000 C 
ATOM     31  C   UNL     1       4.943   3.589  16.622  0.00  0.00    +0.000 C 
ENDBRANCH   1  31
TORSDOF 6
ENDMDL
MODEL 4
REMARK VINA RESULT:      -8.6      1.510      2.346
REMARK  Name = 
REMARK  9 active torsions:
REMARK  status: ('A' for Active; 'I' for Inactive)
REMARK    1  A    between atoms: C_1  and  C_2
REMARK    2  A    between atoms: C_2  and  C_3
REMARK    3  A    between atoms: C_7  and  C_8
REMARK    4  A    between atoms: N_14  and  C_15
REMARK    5  A    between atoms: C_19  and  N_20
REMARK    6  A    between atoms: N_20  and  C_21
REMARK    7  A    between atoms: N_20  and  C_22
REMARK    8  A    between atoms: C_22  and  C_23
REMARK    9  A    between atoms: N_27  and  C_28
REMARK                            x       y       z     vdW  Elec       q    Type
REMARK                         _______ _______ _______ _____ _____    ______ ____
ROOT
ATOM      1  C   UNL     1       3.888   4.971  17.742  0.00  0.00    +0.000 A 
ATOM      2  C   UNL     1       3.530   6.322  17.800  0.00  0.00    +0.000 A 
ATOM      3  C   UNL     1       2.706   6.732  18.835  0.00  0.00    +0.000 A 
ATOM      4  C   UNL     1       2.259   5.875  19.839  0.00  0.00    +0.000 A 
ATOM      5  C   UNL     1       2.586   4.521  19.797  0.00  0.00    +0.000 A 
ATOM      6  C   UNL     1       3.413   4.085  18.735  0.00  0.00    +0.000 A 
ATOM      7  C   UNL     1       1.437   6.652  20.826  0.00  0.00    +0.000 C 
ATOM      8  N   UNL     1       1.420   7.984  20.249  0.00  0.00    +0.000 N 
ATOM      9  C   UNL     1       2.131   8.063  19.060  0.00  0.00    +0.000 C 
ATOM     10  O   UNL     1       2.307   9.008  18.314  0.00  0.00    +0.000 OA
ENDROOT
BRANCH   8  11
ATOM     11  C   UNL     1       0.647   9.028  20.785  0.00  0.00    +0.000 A 
ATOM     12  C   UNL     1       0.527   9.162  22.167  0.00  0.00    +0.000 A 
ATOM     13  C   UNL     1      -0.141  10.265  22.693  0.00  0.00    +0.000 A 
ATOM     14  C   UNL     1      -0.761  11.183  21.842  0.00  0.00    +0.000 A 
ATOM     15  C   UNL     1      -0.759  11.011  20.452  0.00  0.00    +0.000 A 
ATOM     16  C   UNL     1       0.011   9.955  19.943  0.00  0.00    +0.000 A 
BRANCH  15  17
ATOM     17  N   UNL     1      -1.502  11.840  19.628  0.00  0.00    +0.000 N 
ATOM     18  C   UNL     1      -1.409  11.734  18.179  0.00  0.00    +0.000 C 
BRANCH  17  19
ATOM     19  C   UNL     1      -2.307  12.933  20.187  0.00  0.00    +0.000 C 
BRANCH  19  20
ATOM     20  C   UNL     1      -3.783  12.725  20.404  0.00  0.00    +0.000 A 
ATOM     21  N   UNL     1      -4.638  12.487  19.423  0.00  0.00    +0.000 NA
ATOM     22  N   UNL     1      -5.880  12.266  19.960  0.00  0.00    +0.000 NA
ATOM     23  C   UNL     1      -5.767  12.372  21.260  0.00  0.00    +0.000 A 
ATOM     24  N   UNL     1      -4.474  12.660  21.590  0.00  0.00    +0.000 N 
ATOM     25  C   UNL     1      -4.015  12.837  22.940  0.00  0.00    +0.000 C 
ENDBRANCH  19  20
ENDBRANCH  17  19
ENDBRANCH  15  17
ENDBRANCH   8  11
BRANCH   5  26
ATOM     26  C   UNL     1       2.066   3.520  20.795  0.00  0.00    +0.000 C 
ATOM     27  F   UNL     1       2.518   2.252  20.582  0.00  0.00    +0.000 F 
ATOM     28  F   UNL     1       2.420   3.828  22.071  0.00  0.00    +0.000 F 
ATOM     29  F   UNL     1       0.708   3.434  20.792  0.00  0.00    +0.000 F 
ENDBRANCH   5  26
BRANCH   1  31
ATOM     30  C   UNL     1       5.306   5.597  15.751  0.00  0.00    +0.000 C 
ATOM     31  C   UNL     1       4.761   4.470  16.616  0.00  0.00    +0.000 C 
ENDBRANCH   1  31
TORSDOF 6
ENDMDL
MODEL 5
REMARK VINA RESULT:      -8.6      4.327      8.963
REMARK  Name = 
REMARK  9 active torsions:
REMARK  status: ('A' for Active; 'I' for Inactive)
REMARK    1  A    between atoms: C_1  and  C_2
REMARK    2  A    between atoms: C_2  and  C_3
REMARK    3  A    between atoms: C_7  and  C_8
REMARK    4  A    between atoms: N_14  and  C_15
REMARK    5  A    between atoms: C_19  and  N_20
REMARK    6  A    between atoms: N_20  and  C_21
REMARK    7  A    between atoms: N_20  and  C_22
REMARK    8  A    between atoms: C_22  and  C_23
REMARK    9  A    between atoms: N_27  and  C_28
REMARK                            x       y       z     vdW  Elec       q    Type
REMARK                         _______ _______ _______ _____ _____    ______ ____
ROOT
ATOM      1  C   UNL     1       0.327   9.370  21.981  0.00  0.00    +0.000 A 
ATOM      2  C   UNL     1       0.882   8.089  21.888  0.00  0.00    +0.000 A 
ATOM      3  C   UNL     1       1.444   7.711  20.681  0.00  0.00    +0.000 A 
ATOM      4  C   UNL     1       1.523   8.559  19.577  0.00  0.00    +0.000 A 
ATOM      5  C   UNL     1       0.962   9.833  19.636  0.00  0.00    +0.000 A 
ATOM      6  C   UNL     1       0.369  10.226  20.858  0.00  0.00    +0.000 A 
ATOM      7  C   UNL     1       2.237   7.855  18.460  0.00  0.00    +0.000 C 
ATOM      8  N   UNL     1       2.486   6.539  19.019  0.00  0.00    +0.000 N 
ATOM      9  C   UNL     1       2.007   6.407  20.315  0.00  0.00    +0.000 C 
ATOM     10  O   UNL     1       2.031   5.449  21.065  0.00  0.00    +0.000 OA
ENDROOT
BRANCH   8  11
ATOM     11  C   UNL     1       3.035   5.489  18.263  0.00  0.00    +0.000 A 
ATOM     12  C   UNL     1       2.544   4.194  18.418  0.00  0.00    +0.000 A 
ATOM     13  C   UNL     1       3.009   3.180  17.583  0.00  0.00    +0.000 A 
ATOM     14  C   UNL     1       4.023   3.441  16.658  0.00  0.00    +0.000 A 
ATOM     15  C   UNL     1       4.619   4.705  16.561  0.00  0.00    +0.000 A 
ATOM     16  C   UNL     1       4.059   5.733  17.334  0.00  0.00    +0.000 A 
BRANCH  15  17
ATOM     17  N   UNL     1       5.722   4.916  15.750  0.00  0.00    +0.000 N 
ATOM     18  C   UNL     1       5.565   5.263  14.345  0.00  0.00    +0.000 C 
BRANCH  17  19
ATOM     19  C   UNL     1       7.081   4.670  16.250  0.00  0.00    +0.000 C 
BRANCH  19  20
ATOM     20  C   UNL     1       7.481   5.216  17.595  0.00  0.00    +0.000 A 
ATOM     21  N   UNL     1       7.859   4.455  18.609  0.00  0.00    +0.000 NA
ATOM     22  N   UNL     1       8.232   5.260  19.654  0.00  0.00    +0.000 NA
ATOM     23  C   UNL     1       8.076   6.501  19.266  0.00  0.00    +0.000 A 
ATOM     24  N   UNL     1       7.607   6.528  17.984  0.00  0.00    +0.000 N 
ATOM     25  C   UNL     1       7.333   7.738  17.260  0.00  0.00    +0.000 C 
ENDBRANCH  19  20
ENDBRANCH  17  19
ENDBRANCH  15  17
ENDBRANCH   8  11
BRANCH   5  26
ATOM     26  C   UNL     1       0.928  10.769  18.456  0.00  0.00    +0.000 C 
ATOM     27  F   UNL     1       0.183  10.308  17.413  0.00  0.00    +0.000 F 
ATOM     28  F   UNL     1       0.405  11.984  18.774  0.00  0.00    +0.000 F 
ATOM     29  F   UNL     1       2.165  11.015  17.947  0.00  0.00    +0.000 F 
ENDBRANCH   5  26
BRANCH   1  31
ATOM     30  C   UNL     1      -1.268  10.994  23.070  0.00  0.00    +0.000 C 
ATOM     31  C   UNL     1      -0.324   9.819  23.268  0.00  0.00    +0.000 C 
ENDBRANCH   1  31
TORSDOF 6
ENDMDL
MODEL 6
REMARK VINA RESULT:      -8.5      1.699      2.852
REMARK  Name = 
REMARK  9 active torsions:
REMARK  status: ('A' for Active; 'I' for Inactive)
REMARK    1  A    between atoms: C_1  and  C_2
REMARK    2  A    between atoms: C_2  and  C_3
REMARK    3  A    between atoms: C_7  and  C_8
REMARK    4  A    between atoms: N_14  and  C_15
REMARK    5  A    between atoms: C_19  and  N_20
REMARK    6  A    between atoms: N_20  and  C_21
REMARK    7  A    between atoms: N_20  and  C_22
REMARK    8  A    between atoms: C_22  and  C_23
REMARK    9  A    between atoms: N_27  and  C_28
REMARK                            x       y       z     vdW  Elec       q    Type
REMARK                         _______ _______ _______ _____ _____    ______ ____
ROOT
ATOM      1  C   UNL     1       3.843   4.946  17.642  0.00  0.00    +0.000 A 
ATOM      2  C   UNL     1       3.512   6.303  17.725  0.00  0.00    +0.000 A 
ATOM      3  C   UNL     1       2.703   6.711  18.772  0.00  0.00    +0.000 A 
ATOM      4  C   UNL     1       2.245   5.845  19.765  0.00  0.00    +0.000 A 
ATOM      5  C   UNL     1       2.546   4.486  19.696  0.00  0.00    +0.000 A 
ATOM      6  C   UNL     1       3.357   4.053  18.622  0.00  0.00    +0.000 A 
ATOM      7  C   UNL     1       1.445   6.620  20.770  0.00  0.00    +0.000 C 
ATOM      8  N   UNL     1       1.450   7.962  20.216  0.00  0.00    +0.000 N 
ATOM      9  C   UNL     1       2.156   8.048  19.024  0.00  0.00    +0.000 C 
ATOM     10  O   UNL     1       2.346   9.002  18.294  0.00  0.00    +0.000 OA
ENDROOT
BRANCH   8  11
ATOM     11  C   UNL     1       0.702   9.012  20.775  0.00  0.00    +0.000 A 
ATOM     12  C   UNL     1       0.524   9.077  22.156  0.00  0.00    +0.000 A 
ATOM     13  C   UNL     1      -0.118  10.181  22.713  0.00  0.00    +0.000 A 
ATOM     14  C   UNL     1      -0.655  11.172  21.889  0.00  0.00    +0.000 A 
ATOM     15  C   UNL     1      -0.596  11.075  20.492  0.00  0.00    +0.000 A 
ATOM     16  C   UNL     1       0.148  10.012  19.960  0.00  0.00    +0.000 A 
BRANCH  15  17
ATOM     17  N   UNL     1      -1.262  11.981  19.684  0.00  0.00    +0.000 N 
ATOM     18  C   UNL     1      -2.642  12.356  19.955  0.00  0.00    +0.000 C 
BRANCH  17  19
ATOM     19  C   UNL     1      -0.639  12.493  18.456  0.00  0.00    +0.000 C 
BRANCH  19  20
ATOM     20  C   UNL     1       0.604  13.337  18.558  0.00  0.00    +0.000 A 
ATOM     21  N   UNL     1       1.818  12.886  18.285  0.00  0.00    +0.000 NA
ATOM     22  N   UNL     1       2.711  13.919  18.396  0.00  0.00    +0.000 NA
ATOM     23  C   UNL     1       2.034  14.986  18.736  0.00  0.00    +0.000 A 
ATOM     24  N   UNL     1       0.710  14.676  18.851  0.00  0.00    +0.000 N 
ATOM     25  C   UNL     1      -0.306  15.628  19.207  0.00  0.00    +0.000 C 
ENDBRANCH  19  20
ENDBRANCH  17  19
ENDBRANCH  15  17
ENDBRANCH   8  11
BRANCH   5  26
ATOM     26  C   UNL     1       2.012   3.478  20.680  0.00  0.00    +0.000 C 
ATOM     27  F   UNL     1       0.658   3.516  20.822  0.00  0.00    +0.000 F 
ATOM     28  F   UNL     1       2.309   2.199  20.324  0.00  0.00    +0.000 F 
ATOM     29  F   UNL     1       2.520   3.647  21.931  0.00  0.00    +0.000 F 
ENDBRANCH   5  26
BRANCH   1  31
ATOM     30  C   UNL     1       5.394   5.576  15.753  0.00  0.00    +0.000 C 
ATOM     31  C   UNL     1       4.700   4.448  16.501  0.00  0.00    +0.000 C 
ENDBRANCH   1  31
TORSDOF 6
ENDMDL
MODEL 7
REMARK VINA RESULT:      -8.5      1.623      2.443
REMARK  Name = 
REMARK  9 active torsions:
REMARK  status: ('A' for Active; 'I' for Inactive)
REMARK    1  A    between atoms: C_1  and  C_2
REMARK    2  A    between atoms: C_2  and  C_3
REMARK    3  A    between atoms: C_7  and  C_8
REMARK    4  A    between atoms: N_14  and  C_15
REMARK    5  A    between atoms: C_19  and  N_20
REMARK    6  A    between atoms: N_20  and  C_21
REMARK    7  A    between atoms: N_20  and  C_22
REMARK    8  A    between atoms: C_22  and  C_23
REMARK    9  A    between atoms: N_27  and  C_28
REMARK                            x       y       z     vdW  Elec       q    Type
REMARK                         _______ _______ _______ _____ _____    ______ ____
ROOT
ATOM      1  C   UNL     1       4.074   4.714  17.297  0.00  0.00    +0.000 A 
ATOM      2  C   UNL     1       3.782   6.074  17.451  0.00  0.00    +0.000 A 
ATOM      3  C   UNL     1       2.970   6.449  18.508  0.00  0.00    +0.000 A 
ATOM      4  C   UNL     1       2.473   5.545  19.446  0.00  0.00    +0.000 A 
ATOM      5  C   UNL     1       2.734   4.184  19.307  0.00  0.00    +0.000 A 
ATOM      6  C   UNL     1       3.548   3.784  18.221  0.00  0.00    +0.000 A 
ATOM      7  C   UNL     1       1.681   6.289  20.481  0.00  0.00    +0.000 C 
ATOM      8  N   UNL     1       1.734   7.658  20.001  0.00  0.00    +0.000 N 
ATOM      9  C   UNL     1       2.459   7.787  18.825  0.00  0.00    +0.000 C 
ATOM     10  O   UNL     1       2.688   8.773  18.151  0.00  0.00    +0.000 OA
ENDROOT
BRANCH   8  11
ATOM     11  C   UNL     1       1.009   8.698  20.607  0.00  0.00    +0.000 A 
ATOM     12  C   UNL     1       1.092   8.889  21.986  0.00  0.00    +0.000 A 
ATOM     13  C   UNL     1       0.466   9.991  22.564  0.00  0.00    +0.000 A 
ATOM     14  C   UNL     1      -0.311  10.849  21.782  0.00  0.00    +0.000 A 
ATOM     15  C   UNL     1      -0.510  10.616  20.415  0.00  0.00    +0.000 A 
ATOM     16  C   UNL     1       0.218   9.565  19.837  0.00  0.00    +0.000 A 
BRANCH  15  17
ATOM     17  N   UNL     1      -1.401  11.381  19.681  0.00  0.00    +0.000 N 
ATOM     18  C   UNL     1      -1.684  11.072  18.287  0.00  0.00    +0.000 C 
BRANCH  17  19
ATOM     19  C   UNL     1      -1.987  12.603  20.247  0.00  0.00    +0.000 C 
BRANCH  19  20
ATOM     20  C   UNL     1      -3.333  12.531  20.918  0.00  0.00    +0.000 A 
ATOM     21  N   UNL     1      -3.499  12.567  22.230  0.00  0.00    +0.000 NA
ATOM     22  N   UNL     1      -4.840  12.564  22.509  0.00  0.00    +0.000 NA
ATOM     23  C   UNL     1      -5.477  12.525  21.366  0.00  0.00    +0.000 A 
ATOM     24  N   UNL     1      -4.579  12.503  20.338  0.00  0.00    +0.000 N 
ATOM     25  C   UNL     1      -4.954  12.464  18.951  0.00  0.00    +0.000 C 
ENDBRANCH  19  20
ENDBRANCH  17  19
ENDBRANCH  15  17
ENDBRANCH   8  11
BRANCH   5  26
ATOM     26  C   UNL     1       2.156   3.140  20.228  0.00  0.00    +0.000 C 
ATOM     27  F   UNL     1       0.815   3.270  20.428  0.00  0.00    +0.000 F 
ATOM     28  F   UNL     1       2.338   1.877  19.757  0.00  0.00    +0.000 F 
ATOM     29  F   UNL     1       2.720   3.164  21.466  0.00  0.00    +0.000 F 
ENDBRANCH   5  26
BRANCH   1  31
ATOM     30  C   UNL     1       5.444   5.408  15.295  0.00  0.00    +0.000 C 
ATOM     31  C   UNL     1       4.931   4.253  16.142  0.00  0.00    +0.000 C 
ENDBRANCH   1  31
TORSDOF 6
ENDMDL
MODEL 8
REMARK VINA RESULT:      -8.5      0.931      1.612
REMARK  Name = 
REMARK  9 active torsions:
REMARK  status: ('A' for Active; 'I' for Inactive)
REMARK    1  A    between atoms: C_1  and  C_2
REMARK    2  A    between atoms: C_2  and  C_3
REMARK    3  A    between atoms: C_7  and  C_8
REMARK    4  A    between atoms: N_14  and  C_15
REMARK    5  A    between atoms: C_19  and  N_20
REMARK    6  A    between atoms: N_20  and  C_21
REMARK    7  A    between atoms: N_20  and  C_22
REMARK    8  A    between atoms: C_22  and  C_23
REMARK    9  A    between atoms: N_27  and  C_28
REMARK                            x       y       z     vdW  Elec       q    Type
REMARK                         _______ _______ _______ _____ _____    ______ ____
ROOT
ATOM      1  C   UNL     1       3.747   4.790  17.668  0.00  0.00    +0.000 A 
ATOM      2  C   UNL     1       3.433   6.153  17.697  0.00  0.00    +0.000 A 
ATOM      3  C   UNL     1       2.707   6.629  18.775  0.00  0.00    +0.000 A 
ATOM      4  C   UNL     1       2.317   5.827  19.847  0.00  0.00    +0.000 A 
ATOM      5  C   UNL     1       2.602   4.464  19.836  0.00  0.00    +0.000 A 
ATOM      6  C   UNL     1       3.329   3.960  18.731  0.00  0.00    +0.000 A 
ATOM      7  C   UNL     1       1.599   6.668  20.861  0.00  0.00    +0.000 C 
ATOM      8  N   UNL     1       1.573   7.976  20.232  0.00  0.00    +0.000 N 
ATOM      9  C   UNL     1       2.189   7.985  18.988  0.00  0.00    +0.000 C 
ATOM     10  O   UNL     1       2.332   8.894  18.192  0.00  0.00    +0.000 OA
ENDROOT
BRANCH   8  11
ATOM     11  C   UNL     1       0.876   9.065  20.782  0.00  0.00    +0.000 A 
ATOM     12  C   UNL     1       0.231   8.925  22.010  0.00  0.00    +0.000 A 
ATOM     13  C   UNL     1      -0.358  10.038  22.606  0.00  0.00    +0.000 A 
ATOM     14  C   UNL     1      -0.378  11.265  21.937  0.00  0.00    +0.000 A 
ATOM     15  C   UNL     1       0.157  11.407  20.651  0.00  0.00    +0.000 A 
ATOM     16  C   UNL     1       0.839  10.302  20.120  0.00  0.00    +0.000 A 
BRANCH  15  17
ATOM     17  N   UNL     1      -0.001  12.583  19.936  0.00  0.00    +0.000 N 
ATOM     18  C   UNL     1       0.523  13.844  20.441  0.00  0.00    +0.000 C 
BRANCH  17  19
ATOM     19  C   UNL     1      -0.813  12.617  18.713  0.00  0.00    +0.000 C 
BRANCH  19  20
ATOM     20  C   UNL     1      -2.271  12.244  18.786  0.00  0.00    +0.000 A 
ATOM     21  N   UNL     1      -3.076  12.630  19.762  0.00  0.00    +0.000 NA
ATOM     22  N   UNL     1      -4.345  12.193  19.490  0.00  0.00    +0.000 NA
ATOM     23  C   UNL     1      -4.300  11.545  18.353  0.00  0.00    +0.000 A 
ATOM     24  N   UNL     1      -3.024  11.548  17.870  0.00  0.00    +0.000 N 
ATOM     25  C   UNL     1      -2.635  10.924  16.635  0.00  0.00    +0.000 C 
ENDBRANCH  19  20
ENDBRANCH  17  19
ENDBRANCH  15  17
ENDBRANCH   8  11
BRANCH   5  26
ATOM     26  C   UNL     1       2.135   3.519  20.913  0.00  0.00    +0.000 C 
ATOM     27  F   UNL     1       0.785   3.345  20.939  0.00  0.00    +0.000 F 
ATOM     28  F   UNL     1       2.665   2.274  20.775  0.00  0.00    +0.000 F 
ATOM     29  F   UNL     1       2.479   3.938  22.161  0.00  0.00    +0.000 F 
ENDBRANCH   5  26
BRANCH   1  31
ATOM     30  C   UNL     1       5.477   5.220  15.882  0.00  0.00    +0.000 C 
ATOM     31  C   UNL     1       4.513   4.218  16.498  0.00  0.00    +0.000 C 
ENDBRANCH   1  31
TORSDOF 6
ENDMDL
MODEL 9
REMARK VINA RESULT:      -8.4      1.274      1.989
REMARK  Name = 
REMARK  9 active torsions:
REMARK  status: ('A' for Active; 'I' for Inactive)
REMARK    1  A    between atoms: C_1  and  C_2
REMARK    2  A    between atoms: C_2  and  C_3
REMARK    3  A    between atoms: C_7  and  C_8
REMARK    4  A    between atoms: N_14  and  C_15
REMARK    5  A    between atoms: C_19  and  N_20
REMARK    6  A    between atoms: N_20  and  C_21
REMARK    7  A    between atoms: N_20  and  C_22
REMARK    8  A    between atoms: C_22  and  C_23
REMARK    9  A    between atoms: N_27  and  C_28
REMARK                            x       y       z     vdW  Elec       q    Type
REMARK                         _______ _______ _______ _____ _____    ______ ____
ROOT
ATOM      1  C   UNL     1       4.864   4.305  16.851  0.00  0.00    +0.000 A 
ATOM      2  C   UNL     1       4.571   5.666  16.989  0.00  0.00    +0.000 A 
ATOM      3  C   UNL     1       3.649   6.037  17.953  0.00  0.00    +0.000 A 
ATOM      4  C   UNL     1       3.039   5.128  18.816  0.00  0.00    +0.000 A 
ATOM      5  C   UNL     1       3.300   3.765  18.689  0.00  0.00    +0.000 A 
ATOM      6  C   UNL     1       4.227   3.370  17.696  0.00  0.00    +0.000 A 
ATOM      7  C   UNL     1       2.144   5.868  19.765  0.00  0.00    +0.000 C 
ATOM      8  N   UNL     1       2.265   7.242  19.314  0.00  0.00    +0.000 N 
ATOM      9  C   UNL     1       3.120   7.377  18.229  0.00  0.00    +0.000 C 
ATOM     10  O   UNL     1       3.434   8.369  17.598  0.00  0.00    +0.000 OA
ENDROOT
BRANCH   8  11
ATOM     11  C   UNL     1       1.488   8.284  19.848  0.00  0.00    +0.000 A 
ATOM     12  C   UNL     1       1.565   8.577  21.209  0.00  0.00    +0.000 A 
ATOM     13  C   UNL     1       0.882   9.683  21.711  0.00  0.00    +0.000 A 
ATOM     14  C   UNL     1       0.058  10.440  20.874  0.00  0.00    +0.000 A 
ATOM     15  C   UNL     1      -0.133  10.098  19.529  0.00  0.00    +0.000 A 
ATOM     16  C   UNL     1       0.648   9.049  19.023  0.00  0.00    +0.000 A 
BRANCH  15  17
ATOM     17  N   UNL     1      -1.065  10.761  18.748  0.00  0.00    +0.000 N 
ATOM     18  C   UNL     1      -0.984  12.200  18.542  0.00  0.00    +0.000 C 
BRANCH  17  19
ATOM     19  C   UNL     1      -2.235  10.054  18.210  0.00  0.00    +0.000 C 
BRANCH  19  20
ATOM     20  C   UNL     1      -3.449  10.845  17.802  0.00  0.00    +0.000 A 
ATOM     21  N   UNL     1      -4.264  11.430  18.664  0.00  0.00    +0.000 NA
ATOM     22  N   UNL     1      -5.216  12.131  17.970  0.00  0.00    +0.000 NA
ATOM     23  C   UNL     1      -4.972  11.964  16.695  0.00  0.00    +0.000 A 
ATOM     24  N   UNL     1      -3.876  11.167  16.535  0.00  0.00    +0.000 N 
ATOM     25  C   UNL     1      -3.341  10.793  15.255  0.00  0.00    +0.000 C 
ENDBRANCH  19  20
ENDBRANCH  17  19
ENDBRANCH  15  17
ENDBRANCH   8  11
BRANCH   5  26
ATOM     26  C   UNL     1       2.611   2.717  19.523  0.00  0.00    +0.000 C 
ATOM     27  F   UNL     1       1.251   2.777  19.463  0.00  0.00    +0.000 F 
ATOM     28  F   UNL     1       2.941   1.453  19.144  0.00  0.00    +0.000 F 
ATOM     29  F   UNL     1       2.927   2.808  20.844  0.00  0.00    +0.000 F 
ENDBRANCH   5  26
BRANCH   1  31
ATOM     30  C   UNL     1       5.603   4.512  14.447  0.00  0.00    +0.000 C 
ATOM     31  C   UNL     1       5.842   3.848  15.794  0.00  0.00    +0.000 C 
ENDBRANCH   1  31
TORSDOF 6
ENDMDL
