MODEL 1
REMARK VINA RESULT:      -8.3      0.000      0.000
REMARK  Name = 
REMARK  8 active torsions:
REMARK  status: ('A' for Active; 'I' for Inactive)
REMARK    1  A    between atoms: C_1  and  N_2
REMARK    2  A    between atoms: C_6  and  C_7
REMARK    3  A    between atoms: C_7  and  C_8
REMARK    4  A    between atoms: C_12  and  N_13
REMARK    5  A    between atoms: C_16  and  C_17
REMARK    6  A    between atoms: C_17  and  C_18
REMARK    7  A    between atoms: C_18  and  C_19
REMARK    8  A    between atoms: C_18  and  C_20
REMARK                            x       y       z     vdW  Elec       q    Type
REMARK                         _______ _______ _______ _____ _____    ______ ____
ROOT
ATOM      1  N   UNL     1       3.360   5.898  20.162  0.00  0.00    +0.000 N 
ATOM      2  C   UNL     1       4.514   5.478  19.337  0.00  0.00    +0.000 C 
ATOM      3  C   UNL     1       3.955   4.293  18.607  0.00  0.00    +0.000 A 
ATOM      4  C   UNL     1       4.018   3.921  17.266  0.00  0.00    +0.000 A 
ATOM      5  C   UNL     1       3.163   2.869  16.867  0.00  0.00    +0.000 A 
ATOM      6  C   UNL     1       2.262   2.253  17.759  0.00  0.00    +0.000 A 
ATOM      7  C   UNL     1       2.165   2.685  19.079  0.00  0.00    +0.000 A 
ATOM      8  C   UNL     1       3.016   3.704  19.468  0.00  0.00    +0.000 A 
ATOM      9  C   UNL     1       2.756   4.669  20.567  0.00  0.00    +0.000 C 
ATOM     10  O   UNL     1       2.003   4.469  21.507  0.00  0.00    +0.000 OA
ENDROOT
BRANCH   1  15
ATOM     11  C   UNL     1       1.132   8.803  19.629  0.00  0.00    +0.000 A 
ATOM     12  C   UNL     1       1.779   9.320  18.499  0.00  0.00    +0.000 A 
ATOM     13  C   UNL     1       2.579   8.505  17.711  0.00  0.00    +0.000 A 
ATOM     14  C   UNL     1       2.852   7.204  18.121  0.00  0.00    +0.000 A 
ATOM     15  C   UNL     1       2.477   6.791  19.405  0.00  0.00    +0.000 A 
ATOM     16  C   UNL     1       1.516   7.545  20.099  0.00  0.00    +0.000 A 
BRANCH  11  17
ATOM     17  C   UNL     1       0.119   9.643  20.372  0.00  0.00    +0.000 C 
BRANCH  17  23
ATOM     18  C   UNL     1      -0.800  12.080  18.599  0.00  0.00    +0.000 C 
ATOM     19  N   UNL     1       0.132  12.107  19.695  0.00  0.00    +0.000 N 
ATOM     20  C   UNL     1       0.827  13.203  20.108  0.00  0.00    +0.000 A 
ATOM     21  N   UNL     1       1.601  12.878  21.115  0.00  0.00    +0.000 NA
ATOM     22  N   UNL     1       1.421  11.541  21.364  0.00  0.00    +0.000 NA
ATOM     23  C   UNL     1       0.538  11.072  20.502  0.00  0.00    +0.000 A 
ENDBRANCH  17  23
ENDBRANCH  11  17
ENDBRANCH   1  15
BRANCH   4  24
ATOM     24  C   UNL     1       4.716   4.733  16.195  0.00  0.00    +0.000 C 
BRANCH  24  25
ATOM     25  C   UNL     1       6.107   4.299  15.698  0.00  0.00    +0.000 C 
ATOM     26  C   UNL     1       6.507   4.979  14.394  0.00  0.00    +0.000 C 
ATOM     27  C   UNL     1       7.143   4.576  16.797  0.00  0.00    +0.000 C 
ATOM     28  F   UNL     1       6.108   2.951  15.483  0.00  0.00    +0.000 F 
ENDBRANCH  24  25
ENDBRANCH   4  24
TORSDOF 5
ENDMDL
MODEL 2
REMARK VINA RESULT:      -8.3      0.752      1.344
REMARK  Name = 
REMARK  8 active torsions:
REMARK  status: ('A' for Active; 'I' for Inactive)
REMARK    1  A    between atoms: C_1  and  N_2
REMARK    2  A    between atoms: C_6  and  C_7
REMARK    3  A    between atoms: C_7  and  C_8
REMARK    4  A    between atoms: C_12  and  N_13
REMARK    5  A    between atoms: C_16  and  C_17
REMARK    6  A    between atoms: C_17  and  C_18
REMARK    7  A    between atoms: C_18  and  C_19
REMARK    8  A    between atoms: C_18  and  C_20
REMARK                            x       y       z     vdW  Elec       q    Type
REMARK                         _______ _______ _______ _____ _____    ______ ____
ROOT
ATOM      1  N   UNL     1       3.367   5.827  20.183  0.00  0.00    +0.000 N 
ATOM      2  C   UNL     1       4.530   5.420  19.363  0.00  0.00    +0.000 C 
ATOM      3  C   UNL     1       3.978   4.248  18.608  0.00  0.00    +0.000 A 
ATOM      4  C   UNL     1       4.054   3.899  17.262  0.00  0.00    +0.000 A 
ATOM      5  C   UNL     1       3.203   2.854  16.837  0.00  0.00    +0.000 A 
ATOM      6  C   UNL     1       2.293   2.223  17.710  0.00  0.00    +0.000 A 
ATOM      7  C   UNL     1       2.183   2.634  19.035  0.00  0.00    +0.000 A 
ATOM      8  C   UNL     1       3.030   3.645  19.450  0.00  0.00    +0.000 A 
ATOM      9  C   UNL     1       2.759   4.592  20.562  0.00  0.00    +0.000 C 
ATOM     10  O   UNL     1       1.996   4.377  21.491  0.00  0.00    +0.000 OA
ENDROOT
BRANCH   1  15
ATOM     11  C   UNL     1       1.352   8.873  19.595  0.00  0.00    +0.000 A 
ATOM     12  C   UNL     1       1.924   9.233  18.368  0.00  0.00    +0.000 A 
ATOM     13  C   UNL     1       2.569   8.285  17.588  0.00  0.00    +0.000 A 
ATOM     14  C   UNL     1       2.771   7.002  18.088  0.00  0.00    +0.000 A 
ATOM     15  C   UNL     1       2.493   6.733  19.433  0.00  0.00    +0.000 A 
ATOM     16  C   UNL     1       1.673   7.628  20.140  0.00  0.00    +0.000 A 
BRANCH  11  17
ATOM     17  C   UNL     1       0.493   9.863  20.348  0.00  0.00    +0.000 C 
BRANCH  17  23
ATOM     18  C   UNL     1       1.308  12.842  19.731  0.00  0.00    +0.000 C 
ATOM     19  N   UNL     1       0.170  12.130  19.216  0.00  0.00    +0.000 N 
ATOM     20  C   UNL     1      -0.791  12.663  18.411  0.00  0.00    +0.000 A 
ATOM     21  N   UNL     1      -1.693  11.751  18.142  0.00  0.00    +0.000 NA
ATOM     22  N   UNL     1      -1.326  10.597  18.790  0.00  0.00    +0.000 NA
ATOM     23  C   UNL     1      -0.204  10.828  19.445  0.00  0.00    +0.000 A 
ENDBRANCH  17  23
ENDBRANCH  11  17
ENDBRANCH   1  15
BRANCH   4  24
ATOM     24  C   UNL     1       4.762   4.728  16.211  0.00  0.00    +0.000 C 
BRANCH  24  25
ATOM     25  C   UNL     1       6.142   4.282  15.694  0.00  0.00    +0.000 C 
ATOM     26  C   UNL     1       6.516   4.934  14.368  0.00  0.00    +0.000 C 
ATOM     27  C   UNL     1       7.202   4.579  16.765  0.00  0.00    +0.000 C 
ATOM     28  F   UNL     1       6.137   2.929  15.507  0.00  0.00    +0.000 F 
ENDBRANCH  24  25
ENDBRANCH   4  24
TORSDOF 5
ENDMDL
MODEL 3
REMARK VINA RESULT:      -7.8      1.060      1.662
REMARK  Name = 
REMARK  8 active torsions:
REMARK  status: ('A' for Active; 'I' for Inactive)
REMARK    1  A    between atoms: C_1  and  N_2
REMARK    2  A    between atoms: C_6  and  C_7
REMARK    3  A    between atoms: C_7  and  C_8
REMARK    4  A    between atoms: C_12  and  N_13
REMARK    5  A    between atoms: C_16  and  C_17
REMARK    6  A    between atoms: C_17  and  C_18
REMARK    7  A    between atoms: C_18  and  C_19
REMARK    8  A    between atoms: C_18  and  C_20
REMARK                            x       y       z     vdW  Elec       q    Type
REMARK                         _______ _______ _______ _____ _____    ______ ____
ROOT
ATOM      1  N   UNL     1       3.199   5.946  20.266  0.00  0.00    +0.000 N 
ATOM      2  C   UNL     1       4.450   5.684  19.520  0.00  0.00    +0.000 C 
ATOM      3  C   UNL     1       4.041   4.551  18.624  0.00  0.00    +0.000 A 
ATOM      4  C   UNL     1       4.251   4.327  17.266  0.00  0.00    +0.000 A 
ATOM      5  C   UNL     1       3.510   3.276  16.683  0.00  0.00    +0.000 A 
ATOM      6  C   UNL     1       2.576   2.516  17.417  0.00  0.00    +0.000 A 
ATOM      7  C   UNL     1       2.331   2.801  18.758  0.00  0.00    +0.000 A 
ATOM      8  C   UNL     1       3.070   3.821  19.328  0.00  0.00    +0.000 A 
ATOM      9  C   UNL     1       2.646   4.648  20.486  0.00  0.00    +0.000 C 
ATOM     10  O   UNL     1       1.826   4.306  21.324  0.00  0.00    +0.000 OA
ENDROOT
BRANCH   1  15
ATOM     11  C   UNL     1       1.266   9.041  19.659  0.00  0.00    +0.000 A 
ATOM     12  C   UNL     1       1.809   9.348  18.405  0.00  0.00    +0.000 A 
ATOM     13  C   UNL     1       2.396   8.359  17.631  0.00  0.00    +0.000 A 
ATOM     14  C   UNL     1       2.572   7.084  18.159  0.00  0.00    +0.000 A 
ATOM     15  C   UNL     1       2.330   6.860  19.519  0.00  0.00    +0.000 A 
ATOM     16  C   UNL     1       1.564   7.801  20.228  0.00  0.00    +0.000 A 
BRANCH  11  17
ATOM     17  C   UNL     1       0.466  10.079  20.413  0.00  0.00    +0.000 C 
BRANCH  17  23
ATOM     18  C   UNL     1       1.389  13.000  19.678  0.00  0.00    +0.000 C 
ATOM     19  N   UNL     1       0.201  12.326  19.225  0.00  0.00    +0.000 N 
ATOM     20  C   UNL     1      -0.764  12.878  18.440  0.00  0.00    +0.000 A 
ATOM     21  N   UNL     1      -1.715  12.001  18.231  0.00  0.00    +0.000 NA
ATOM     22  N   UNL     1      -1.375  10.851  18.899  0.00  0.00    +0.000 NA
ATOM     23  C   UNL     1      -0.220  11.049  19.506  0.00  0.00    +0.000 A 
ENDBRANCH  17  23
ENDBRANCH  11  17
ENDBRANCH   1  15
BRANCH   4  24
ATOM     24  C   UNL     1       4.986   5.287  16.354  0.00  0.00    +0.000 C 
BRANCH  24  25
ATOM     25  C   UNL     1       6.487   5.078  16.082  0.00  0.00    +0.000 C 
ATOM     26  C   UNL     1       7.208   4.398  17.239  0.00  0.00    +0.000 C 
ATOM     27  C   UNL     1       6.657   4.273  14.785  0.00  0.00    +0.000 C 
ATOM     28  F   UNL     1       7.080   6.291  15.875  0.00  0.00    +0.000 F 
ENDBRANCH  24  25
ENDBRANCH   4  24
TORSDOF 5
ENDMDL
MODEL 4
REMARK VINA RESULT:      -7.7      1.082      1.467
REMARK  Name = 
REMARK  8 active torsions:
REMARK  status: ('A' for Active; 'I' for Inactive)
REMARK    1  A    between atoms: C_1  and  N_2
REMARK    2  A    between atoms: C_6  and  C_7
REMARK    3  A    between atoms: C_7  and  C_8
REMARK    4  A    between atoms: C_12  and  N_13
REMARK    5  A    between atoms: C_16  and  C_17
REMARK    6  A    between atoms: C_17  and  C_18
REMARK    7  A    between atoms: C_18  and  C_19
REMARK    8  A    between atoms: C_18  and  C_20
REMARK                            x       y       z     vdW  Elec       q    Type
REMARK                         _______ _______ _______ _____ _____    ______ ____
ROOT
ATOM      1  N   UNL     1       3.210   5.988  20.250  0.00  0.00    +0.000 N 
ATOM      2  C   UNL     1       4.467   5.730  19.513  0.00  0.00    +0.000 C 
ATOM      3  C   UNL     1       4.067   4.599  18.612  0.00  0.00    +0.000 A 
ATOM      4  C   UNL     1       4.288   4.378  17.255  0.00  0.00    +0.000 A 
ATOM      5  C   UNL     1       3.553   3.326  16.664  0.00  0.00    +0.000 A 
ATOM      6  C   UNL     1       2.615   2.564  17.389  0.00  0.00    +0.000 A 
ATOM      7  C   UNL     1       2.359   2.845  18.728  0.00  0.00    +0.000 A 
ATOM      8  C   UNL     1       3.092   3.865  19.306  0.00  0.00    +0.000 A 
ATOM      9  C   UNL     1       2.657   4.689  20.463  0.00  0.00    +0.000 C 
ATOM     10  O   UNL     1       1.831   4.344  21.293  0.00  0.00    +0.000 OA
ENDROOT
BRANCH   1  15
ATOM     11  C   UNL     1       1.164   9.019  19.688  0.00  0.00    +0.000 A 
ATOM     12  C   UNL     1       1.770   9.425  18.492  0.00  0.00    +0.000 A 
ATOM     13  C   UNL     1       2.456   8.512  17.705  0.00  0.00    +0.000 A 
ATOM     14  C   UNL     1       2.663   7.217  18.173  0.00  0.00    +0.000 A 
ATOM     15  C   UNL     1       2.345   6.903  19.498  0.00  0.00    +0.000 A 
ATOM     16  C   UNL     1       1.487   7.763  20.205  0.00  0.00    +0.000 A 
BRANCH  11  17
ATOM     17  C   UNL     1       0.264   9.971  20.442  0.00  0.00    +0.000 C 
BRANCH  17  23
ATOM     18  C   UNL     1      -2.011  10.235  18.279  0.00  0.00    +0.000 C 
ATOM     19  N   UNL     1      -1.082  11.254  18.690  0.00  0.00    +0.000 N 
ATOM     20  C   UNL     1      -0.998  12.502  18.152  0.00  0.00    +0.000 A 
ATOM     21  N   UNL     1      -0.035  13.169  18.741  0.00  0.00    +0.000 NA
ATOM     22  N   UNL     1       0.533  12.342  19.677  0.00  0.00    +0.000 NA
ATOM     23  C   UNL     1      -0.095  11.182  19.642  0.00  0.00    +0.000 A 
ENDBRANCH  17  23
ENDBRANCH  11  17
ENDBRANCH   1  15
BRANCH   4  24
ATOM     24  C   UNL     1       5.029   5.342  16.351  0.00  0.00    +0.000 C 
BRANCH  24  25
ATOM     25  C   UNL     1       6.551   5.196  16.169  0.00  0.00    +0.000 C 
ATOM     26  C   UNL     1       7.211   4.426  17.308  0.00  0.00    +0.000 C 
ATOM     27  C   UNL     1       6.835   4.521  14.819  0.00  0.00    +0.000 C 
ATOM     28  F   UNL     1       7.119   6.436  16.120  0.00  0.00    +0.000 F 
ENDBRANCH  24  25
ENDBRANCH   4  24
TORSDOF 5
ENDMDL
MODEL 5
REMARK VINA RESULT:      -7.7      3.072      7.992
REMARK  Name = 
REMARK  8 active torsions:
REMARK  status: ('A' for Active; 'I' for Inactive)
REMARK    1  A    between atoms: C_1  and  N_2
REMARK    2  A    between atoms: C_6  and  C_7
REMARK    3  A    between atoms: C_7  and  C_8
REMARK    4  A    between atoms: C_12  and  N_13
REMARK    5  A    between atoms: C_16  and  C_17
REMARK    6  A    between atoms: C_17  and  C_18
REMARK    7  A    between atoms: C_18  and  C_19
REMARK    8  A    between atoms: C_18  and  C_20
REMARK                            x       y       z     vdW  Elec       q    Type
REMARK                         _______ _______ _______ _____ _____    ______ ____
ROOT
ATOM      1  N   UNL     1       0.734   8.305  21.167  0.00  0.00    +0.000 N 
ATOM      2  C   UNL     1      -0.545   8.572  20.472  0.00  0.00    +0.000 C 
ATOM      3  C   UNL     1      -0.419  10.031  20.146  0.00  0.00    +0.000 A 
ATOM      4  C   UNL     1      -0.680  10.741  18.977  0.00  0.00    +0.000 A 
ATOM      5  C   UNL     1      -0.210  12.073  18.936  0.00  0.00    +0.000 A 
ATOM      6  C   UNL     1       0.519  12.647  19.997  0.00  0.00    +0.000 A 
ATOM      7  C   UNL     1       0.828  11.898  21.129  0.00  0.00    +0.000 A 
ATOM      8  C   UNL     1       0.353  10.600  21.172  0.00  0.00    +0.000 A 
ATOM      9  C   UNL     1       0.964   9.484  21.938  0.00  0.00    +0.000 C 
ATOM     10  O   UNL     1       1.682   9.621  22.916  0.00  0.00    +0.000 OA
ENDROOT
BRANCH   1  15
ATOM     11  C   UNL     1       2.932   6.122  19.144  0.00  0.00    +0.000 A 
ATOM     12  C   UNL     1       2.683   6.719  17.902  0.00  0.00    +0.000 A 
ATOM     13  C   UNL     1       2.213   8.022  17.828  0.00  0.00    +0.000 A 
ATOM     14  C   UNL     1       1.854   8.692  18.994  0.00  0.00    +0.000 A 
ATOM     15  C   UNL     1       1.793   7.990  20.203  0.00  0.00    +0.000 A 
ATOM     16  C   UNL     1       2.448   6.750  20.294  0.00  0.00    +0.000 A 
BRANCH  11  17
ATOM     17  C   UNL     1       3.617   4.777  19.214  0.00  0.00    +0.000 C 
BRANCH  17  23
ATOM     18  C   UNL     1       4.929   4.074  16.438  0.00  0.00    +0.000 C 
ATOM     19  N   UNL     1       5.604   4.511  17.630  0.00  0.00    +0.000 N 
ATOM     20  C   UNL     1       6.954   4.632  17.769  0.00  0.00    +0.000 A 
ATOM     21  N   UNL     1       7.236   5.032  18.984  0.00  0.00    +0.000 NA
ATOM     22  N   UNL     1       6.051   5.168  19.664  0.00  0.00    +0.000 NA
ATOM     23  C   UNL     1       5.065   4.846  18.848  0.00  0.00    +0.000 A 
ENDBRANCH  17  23
ENDBRANCH  11  17
ENDBRANCH   1  15
BRANCH   4  24
ATOM     24  C   UNL     1      -1.169  10.105  17.693  0.00  0.00    +0.000 C 
BRANCH  24  25
ATOM     25  C   UNL     1      -2.672  10.124  17.360  0.00  0.00    +0.000 C 
ATOM     26  C   UNL     1      -3.363  11.403  17.819  0.00  0.00    +0.000 C 
ATOM     27  C   UNL     1      -2.856   9.918  15.849  0.00  0.00    +0.000 C 
ATOM     28  F   UNL     1      -3.284   9.074  17.981  0.00  0.00    +0.000 F 
ENDBRANCH  24  25
ENDBRANCH   4  24
TORSDOF 5
ENDMDL
MODEL 6
REMARK VINA RESULT:      -7.6      1.351      1.634
REMARK  Name = 
REMARK  8 active torsions:
REMARK  status: ('A' for Active; 'I' for Inactive)
REMARK    1  A    between atoms: C_1  and  N_2
REMARK    2  A    between atoms: C_6  and  C_7
REMARK    3  A    between atoms: C_7  and  C_8
REMARK    4  A    between atoms: C_12  and  N_13
REMARK    5  A    between atoms: C_16  and  C_17
REMARK    6  A    between atoms: C_17  and  C_18
REMARK    7  A    between atoms: C_18  and  C_19
REMARK    8  A    between atoms: C_18  and  C_20
REMARK                            x       y       z     vdW  Elec       q    Type
REMARK                         _______ _______ _______ _____ _____    ______ ____
ROOT
ATOM      1  N   UNL     1       3.135   5.989  20.271  0.00  0.00    +0.000 N 
ATOM      2  C   UNL     1       4.377   5.645  19.543  0.00  0.00    +0.000 C 
ATOM      3  C   UNL     1       3.924   4.499  18.688  0.00  0.00    +0.000 A 
ATOM      4  C   UNL     1       4.130   4.215  17.340  0.00  0.00    +0.000 A 
ATOM      5  C   UNL     1       3.347   3.175  16.792  0.00  0.00    +0.000 A 
ATOM      6  C   UNL     1       2.378   2.485  17.548  0.00  0.00    +0.000 A 
ATOM      7  C   UNL     1       2.138   2.830  18.875  0.00  0.00    +0.000 A 
ATOM      8  C   UNL     1       2.919   3.838  19.411  0.00  0.00    +0.000 A 
ATOM      9  C   UNL     1       2.525   4.725  20.535  0.00  0.00    +0.000 C 
ATOM     10  O   UNL     1       1.687   4.451  21.379  0.00  0.00    +0.000 OA
ENDROOT
BRANCH   1  15
ATOM     11  C   UNL     1       1.590   9.231  19.382  0.00  0.00    +0.000 A 
ATOM     12  C   UNL     1       1.997   9.262  18.042  0.00  0.00    +0.000 A 
ATOM     13  C   UNL     1       2.330   8.089  17.380  0.00  0.00    +0.000 A 
ATOM     14  C   UNL     1       2.396   6.893  18.088  0.00  0.00    +0.000 A 
ATOM     15  C   UNL     1       2.310   6.911  19.485  0.00  0.00    +0.000 A 
ATOM     16  C   UNL     1       1.785   8.055  20.110  0.00  0.00    +0.000 A 
BRANCH  11  17
ATOM     17  C   UNL     1       1.051  10.481  20.038  0.00  0.00    +0.000 C 
BRANCH  17  23
ATOM     18  C   UNL     1      -1.638  11.557  21.275  0.00  0.00    +0.000 C 
ATOM     19  N   UNL     1      -0.654  10.733  21.924  0.00  0.00    +0.000 N 
ATOM     20  C   UNL     1      -0.701  10.330  23.224  0.00  0.00    +0.000 A 
ATOM     21  N   UNL     1       0.358   9.608  23.498  0.00  0.00    +0.000 NA
ATOM     22  N   UNL     1       1.124   9.542  22.360  0.00  0.00    +0.000 NA
ATOM     23  C   UNL     1       0.515  10.228  21.411  0.00  0.00    +0.000 A 
ENDBRANCH  17  23
ENDBRANCH  11  17
ENDBRANCH   1  15
BRANCH   4  24
ATOM     24  C   UNL     1       4.911   5.108  16.398  0.00  0.00    +0.000 C 
BRANCH  24  25
ATOM     25  C   UNL     1       6.450   5.052  16.398  0.00  0.00    +0.000 C 
ATOM     26  C   UNL     1       7.032   4.799  15.012  0.00  0.00    +0.000 C 
ATOM     27  C   UNL     1       7.001   6.357  16.990  0.00  0.00    +0.000 C 
ATOM     28  F   UNL     1       6.863   4.040  17.215  0.00  0.00    +0.000 F 
ENDBRANCH  24  25
ENDBRANCH   4  24
TORSDOF 5
ENDMDL
MODEL 7
REMARK VINA RESULT:      -7.5      3.430      8.222
REMARK  Name = 
REMARK  8 active torsions:
REMARK  status: ('A' for Active; 'I' for Inactive)
REMARK    1  A    between atoms: C_1  and  N_2
REMARK    2  A    between atoms: C_6  and  C_7
REMARK    3  A    between atoms: C_7  and  C_8
REMARK    4  A    between atoms: C_12  and  N_13
REMARK    5  A    between atoms: C_16  and  C_17
REMARK    6  A    between atoms: C_17  and  C_18
REMARK    7  A    between atoms: C_18  and  C_19
REMARK    8  A    between atoms: C_18  and  C_20
REMARK                            x       y       z     vdW  Elec       q    Type
REMARK                         _______ _______ _______ _____ _____    ______ ____
ROOT
ATOM      1  N   UNL     1       0.186   8.745  21.145  0.00  0.00    +0.000 N 
ATOM      2  C   UNL     1      -1.026   9.025  20.343  0.00  0.00    +0.000 C 
ATOM      3  C   UNL     1      -0.905  10.501  20.108  0.00  0.00    +0.000 A 
ATOM      4  C   UNL     1      -1.067  11.269  18.958  0.00  0.00    +0.000 A 
ATOM      5  C   UNL     1      -0.629  12.610  19.032  0.00  0.00    +0.000 A 
ATOM      6  C   UNL     1      -0.021  13.139  20.189  0.00  0.00    +0.000 A 
ATOM      7  C   UNL     1       0.196  12.336  21.305  0.00  0.00    +0.000 A 
ATOM      8  C   UNL     1      -0.250  11.029  21.233  0.00  0.00    +0.000 A 
ATOM      9  C   UNL     1       0.311   9.885  21.996  0.00  0.00    +0.000 C 
ATOM     10  O   UNL     1       0.927   9.982  23.045  0.00  0.00    +0.000 OA
ENDROOT
BRANCH   1  15
ATOM     11  C   UNL     1       2.676   6.717  19.308  0.00  0.00    +0.000 A 
ATOM     12  C   UNL     1       2.500   7.313  18.052  0.00  0.00    +0.000 A 
ATOM     13  C   UNL     1       1.962   8.587  17.946  0.00  0.00    +0.000 A 
ATOM     14  C   UNL     1       1.465   9.222  19.080  0.00  0.00    +0.000 A 
ATOM     15  C   UNL     1       1.341   8.504  20.275  0.00  0.00    +0.000 A 
ATOM     16  C   UNL     1       2.058   7.303  20.415  0.00  0.00    +0.000 A 
BRANCH  11  17
ATOM     17  C   UNL     1       3.431   5.414  19.428  0.00  0.00    +0.000 C 
BRANCH  17  23
ATOM     18  C   UNL     1       1.270   3.559  20.776  0.00  0.00    +0.000 C 
ATOM     19  N   UNL     1       1.780   3.463  19.435  0.00  0.00    +0.000 N 
ATOM     20  C   UNL     1       1.448   2.496  18.536  0.00  0.00    +0.000 A 
ATOM     21  N   UNL     1       2.105   2.690  17.419  0.00  0.00    +0.000 NA
ATOM     22  N   UNL     1       2.894   3.801  17.587  0.00  0.00    +0.000 NA
ATOM     23  C   UNL     1       2.703   4.265  18.808  0.00  0.00    +0.000 A 
ENDBRANCH  17  23
ENDBRANCH  11  17
ENDBRANCH   1  15
BRANCH   4  24
ATOM     24  C   UNL     1      -1.414  10.695  17.599  0.00  0.00    +0.000 C 
BRANCH  24  25
ATOM     25  C   UNL     1      -2.878  10.352  17.270  0.00  0.00    +0.000 C 
ATOM     26  C   UNL     1      -3.853  11.438  17.710  0.00  0.00    +0.000 C 
ATOM     27  C   UNL     1      -3.006  10.082  15.764  0.00  0.00    +0.000 C 
ATOM     28  F   UNL     1      -3.224   9.197  17.911  0.00  0.00    +0.000 F 
ENDBRANCH  24  25
ENDBRANCH   4  24
TORSDOF 5
ENDMDL
MODEL 8
REMARK VINA RESULT:      -7.5      1.731      2.242
REMARK  Name = 
REMARK  8 active torsions:
REMARK  status: ('A' for Active; 'I' for Inactive)
REMARK    1  A    between atoms: C_1  and  N_2
REMARK    2  A    between atoms: C_6  and  C_7
REMARK    3  A    between atoms: C_7  and  C_8
REMARK    4  A    between atoms: C_12  and  N_13
REMARK    5  A    between atoms: C_16  and  C_17
REMARK    6  A    between atoms: C_17  and  C_18
REMARK    7  A    between atoms: C_18  and  C_19
REMARK    8  A    between atoms: C_18  and  C_20
REMARK                            x       y       z     vdW  Elec       q    Type
REMARK                         _______ _______ _______ _____ _____    ______ ____
ROOT
ATOM      1  N   UNL     1       2.907   6.334  20.026  0.00  0.00    +0.000 N 
ATOM      2  C   UNL     1       4.247   6.027  19.477  0.00  0.00    +0.000 C 
ATOM      3  C   UNL     1       3.938   4.918  18.515  0.00  0.00    +0.000 A 
ATOM      4  C   UNL     1       4.345   4.694  17.203  0.00  0.00    +0.000 A 
ATOM      5  C   UNL     1       3.662   3.676  16.500  0.00  0.00    +0.000 A 
ATOM      6  C   UNL     1       2.598   2.950  17.073  0.00  0.00    +0.000 A 
ATOM      7  C   UNL     1       2.161   3.236  18.364  0.00  0.00    +0.000 A 
ATOM      8  C   UNL     1       2.843   4.222  19.053  0.00  0.00    +0.000 A 
ATOM      9  C   UNL     1       2.278   5.058  20.142  0.00  0.00    +0.000 C 
ATOM     10  O   UNL     1       1.326   4.744  20.840  0.00  0.00    +0.000 OA
ENDROOT
BRANCH   1  15
ATOM     11  C   UNL     1       0.989   9.395  19.225  0.00  0.00    +0.000 A 
ATOM     12  C   UNL     1       1.813   9.857  18.191  0.00  0.00    +0.000 A 
ATOM     13  C   UNL     1       2.645   8.982  17.509  0.00  0.00    +0.000 A 
ATOM     14  C   UNL     1       2.766   7.665  17.944  0.00  0.00    +0.000 A 
ATOM     15  C   UNL     1       2.199   7.287  19.166  0.00  0.00    +0.000 A 
ATOM     16  C   UNL     1       1.215   8.114  19.734  0.00  0.00    +0.000 A 
BRANCH  11  17
ATOM     17  C   UNL     1      -0.046  10.311  19.835  0.00  0.00    +0.000 C 
BRANCH  17  23
ATOM     18  C   UNL     1      -2.172  12.621  20.099  0.00  0.00    +0.000 C 
ATOM     19  N   UNL     1      -2.081  11.642  19.050  0.00  0.00    +0.000 N 
ATOM     20  C   UNL     1      -2.957  11.517  18.014  0.00  0.00    +0.000 A 
ATOM     21  N   UNL     1      -2.595  10.515  17.252  0.00  0.00    +0.000 NA
ATOM     22  N   UNL     1      -1.465   9.961  17.800  0.00  0.00    +0.000 NA
ATOM     23  C   UNL     1      -1.158  10.637  18.890  0.00  0.00    +0.000 A 
ENDBRANCH  17  23
ENDBRANCH  11  17
ENDBRANCH   1  15
BRANCH   4  24
ATOM     24  C   UNL     1       5.247   5.630  16.426  0.00  0.00    +0.000 C 
BRANCH  24  25
ATOM     25  C   UNL     1       6.755   5.330  16.335  0.00  0.00    +0.000 C 
ATOM     26  C   UNL     1       7.239   4.396  17.438  0.00  0.00    +0.000 C 
ATOM     27  C   UNL     1       7.070   4.747  14.950  0.00  0.00    +0.000 C 
ATOM     28  F   UNL     1       7.453   6.498  16.441  0.00  0.00    +0.000 F 
ENDBRANCH  24  25
ENDBRANCH   4  24
TORSDOF 5
ENDMDL
MODEL 9
REMARK VINA RESULT:      -7.4      3.163      8.053
REMARK  Name = 
REMARK  8 active torsions:
REMARK  status: ('A' for Active; 'I' for Inactive)
REMARK    1  A    between atoms: C_1  and  N_2
REMARK    2  A    between atoms: C_6  and  C_7
REMARK    3  A    between atoms: C_7  and  C_8
REMARK    4  A    between atoms: C_12  and  N_13
REMARK    5  A    between atoms: C_16  and  C_17
REMARK    6  A    between atoms: C_17  and  C_18
REMARK    7  A    between atoms: C_18  and  C_19
REMARK    8  A    between atoms: C_18  and  C_20
REMARK                            x       y       z     vdW  Elec       q    Type
REMARK                         _______ _______ _______ _____ _____    ______ ____
ROOT
ATOM      1  N   UNL     1       0.781   8.233  21.232  0.00  0.00    +0.000 N 
ATOM      2  C   UNL     1      -0.524   8.511  20.592  0.00  0.00    +0.000 C 
ATOM      3  C   UNL     1      -0.374   9.951  20.200  0.00  0.00    +0.000 A 
ATOM      4  C   UNL     1      -0.674  10.622  19.017  0.00  0.00    +0.000 A 
ATOM      5  C   UNL     1      -0.170  11.936  18.897  0.00  0.00    +0.000 A 
ATOM      6  C   UNL     1       0.630  12.529  19.895  0.00  0.00    +0.000 A 
ATOM      7  C   UNL     1       0.976  11.817  21.040  0.00  0.00    +0.000 A 
ATOM      8  C   UNL     1       0.466  10.537  21.161  0.00  0.00    +0.000 A 
ATOM      9  C   UNL     1       1.085   9.435  21.941  0.00  0.00    +0.000 C 
ATOM     10  O   UNL     1       1.856   9.589  22.874  0.00  0.00    +0.000 OA
ENDROOT
BRANCH   1  15
ATOM     11  C   UNL     1       2.585   5.941  18.956  0.00  0.00    +0.000 A 
ATOM     12  C   UNL     1       2.459   6.709  17.792  0.00  0.00    +0.000 A 
ATOM     13  C   UNL     1       2.227   8.074  17.870  0.00  0.00    +0.000 A 
ATOM     14  C   UNL     1       1.978   8.661  19.108  0.00  0.00    +0.000 A 
ATOM     15  C   UNL     1       1.780   7.848  20.230  0.00  0.00    +0.000 A 
ATOM     16  C   UNL     1       2.205   6.510  20.173  0.00  0.00    +0.000 A 
BRANCH  11  17
ATOM     17  C   UNL     1       3.022   4.497  18.867  0.00  0.00    +0.000 C 
BRANCH  17  23
ATOM     18  C   UNL     1       6.036   5.298  19.308  0.00  0.00    +0.000 C 
ATOM     19  N   UNL     1       5.465   4.679  18.142  0.00  0.00    +0.000 N 
ATOM     20  C   UNL     1       6.140   4.392  16.994  0.00  0.00    +0.000 A 
ATOM     21  N   UNL     1       5.321   3.851  16.126  0.00  0.00    +0.000 NA
ATOM     22  N   UNL     1       4.079   3.790  16.708  0.00  0.00    +0.000 NA
ATOM     23  C   UNL     1       4.164   4.296  17.924  0.00  0.00    +0.000 A 
ENDBRANCH  17  23
ENDBRANCH  11  17
ENDBRANCH   1  15
BRANCH   4  24
ATOM     24  C   UNL     1      -1.246   9.951  17.786  0.00  0.00    +0.000 C 
BRANCH  24  25
ATOM     25  C   UNL     1      -2.737  10.134  17.445  0.00  0.00    +0.000 C 
ATOM     26  C   UNL     1      -3.352  11.355  18.118  0.00  0.00    +0.000 C 
ATOM     27  C   UNL     1      -2.898  10.213  15.920  0.00  0.00    +0.000 C 
ATOM     28  F   UNL     1      -3.432   9.034  17.860  0.00  0.00    +0.000 F 
ENDBRANCH  24  25
ENDBRANCH   4  24
TORSDOF 5
ENDMDL
