MODEL 1
REMARK VINA RESULT:      -8.5      0.000      0.000
REMARK  Name = 
REMARK  5 active torsions:
REMARK  status: ('A' for Active; 'I' for Inactive)
REMARK    1  A    between atoms: C_1  and  C_2
REMARK    2  A    between atoms: C_2  and  C_3
REMARK    3  A    between atoms: C_9  and  S_10
REMARK    4  A    between atoms: S_10  and  N_13
REMARK    5  A    between atoms: N_13  and  C_14
REMARK                            x       y       z     vdW  Elec       q    Type
REMARK                         _______ _______ _______ _____ _____    ______ ____
ROOT
ATOM      1  N   UNL     1       2.767   6.449  20.433  0.00  0.00    +0.000 N 
ATOM      2  H   UNL     1       3.749   6.376  20.166  0.00  0.00    +0.000 HD
ENDROOT
BRANCH   1   3
ATOM      3  C   UNL     1       2.040   7.555  19.902  0.00  0.00    +0.000 A 
ATOM      4  C   UNL     1       2.196   7.899  18.565  0.00  0.00    +0.000 A 
ATOM      5  C   UNL     1       1.548   9.020  18.045  0.00  0.00    +0.000 A 
ATOM      6  C   UNL     1       0.742   9.802  18.871  0.00  0.00    +0.000 A 
ATOM      7  C   UNL     1       0.545   9.457  20.218  0.00  0.00    +0.000 A 
ATOM      8  C   UNL     1       1.196   8.313  20.724  0.00  0.00    +0.000 A 
ATOM      9  C   UNL     1      -0.304  10.303  21.140  0.00  0.00    +0.000 C 
ATOM     10  C   UNL     1       0.211  11.743  21.270  0.00  0.00    +0.000 C 
ATOM     11  C   UNL     1      -0.127  12.622  20.065  0.00  0.00    +0.000 C 
ATOM     12  C   UNL     1       0.590  12.163  18.809  0.00  0.00    +0.000 C 
ATOM     13  O   UNL     1       1.503  12.803  18.302  0.00  0.00    +0.000 OA
ATOM     14  N   UNL     1       0.125  10.949  18.307  0.00  0.00    +0.000 N 
ATOM     15  H   UNL     1      -0.872  10.894  18.486  0.00  0.00    +0.000 HD
ENDBRANCH   1   3
BRANCH   1  16
ATOM     16  S   UNL     1       2.017   4.934  20.503  0.00  0.00    +0.000 S 
ATOM     17  O   UNL     1       0.612   5.135  20.215  0.00  0.00    +0.000 OA
ATOM     18  O   UNL     1       2.425   4.295  21.744  0.00  0.00    +0.000 OA
BRANCH  16  27
ATOM     19  C   UNL     1       6.920   5.259  18.540  0.00  0.00    +0.000 C 
ATOM     20  C   UNL     1       5.653   5.424  17.694  0.00  0.00    +0.000 C 
ATOM     21  C   UNL     1       5.706   6.734  16.907  0.00  0.00    +0.000 C 
ATOM     22  C   UNL     1       5.444   4.218  16.755  0.00  0.00    +0.000 C 
ATOM     23  C   UNL     1       4.278   3.575  17.408  0.00  0.00    +0.000 A 
ATOM     24  C   UNL     1       3.662   2.383  17.067  0.00  0.00    +0.000 A 
ATOM     25  C   UNL     1       2.547   1.978  17.800  0.00  0.00    +0.000 A 
ATOM     26  C   UNL     1       2.067   2.773  18.846  0.00  0.00    +0.000 A 
ATOM     27  C   UNL     1       2.688   3.985  19.169  0.00  0.00    +0.000 A 
ATOM     28  C   UNL     1       3.807   4.370  18.448  0.00  0.00    +0.000 A 
ATOM     29  O   UNL     1       4.516   5.525  18.609  0.00  0.00    +0.000 OA
ENDBRANCH  16  27
ENDBRANCH   1  16
TORSDOF 3
ENDMDL
MODEL 2
REMARK VINA RESULT:      -8.4      2.577      8.050
REMARK  Name = 
REMARK  5 active torsions:
REMARK  status: ('A' for Active; 'I' for Inactive)
REMARK    1  A    between atoms: C_1  and  C_2
REMARK    2  A    between atoms: C_2  and  C_3
REMARK    3  A    between atoms: C_9  and  S_10
REMARK    4  A    between atoms: S_10  and  N_13
REMARK    5  A    between atoms: N_13  and  C_14
REMARK                            x       y       z     vdW  Elec       q    Type
REMARK                         _______ _______ _______ _____ _____    ______ ____
ROOT
ATOM      1  N   UNL     1       0.976   9.188  20.315  0.00  0.00    +0.000 N 
ATOM      2  H   UNL     1       1.373  10.063  19.970  0.00  0.00    +0.000 HD
ENDROOT
BRANCH   1   3
ATOM      3  C   UNL     1       1.619   7.985  19.899  0.00  0.00    +0.000 A 
ATOM      4  C   UNL     1       2.293   7.954  18.684  0.00  0.00    +0.000 A 
ATOM      5  C   UNL     1       2.868   6.768  18.228  0.00  0.00    +0.000 A 
ATOM      6  C   UNL     1       2.765   5.606  18.992  0.00  0.00    +0.000 A 
ATOM      7  C   UNL     1       2.116   5.621  20.238  0.00  0.00    +0.000 A 
ATOM      8  C   UNL     1       1.551   6.832  20.691  0.00  0.00    +0.000 A 
ATOM      9  C   UNL     1       1.969   4.370  21.074  0.00  0.00    +0.000 C 
ATOM     10  C   UNL     1       1.203   3.255  20.348  0.00  0.00    +0.000 C 
ATOM     11  C   UNL     1       2.043   2.521  19.301  0.00  0.00    +0.000 C 
ATOM     12  C   UNL     1       2.420   3.425  18.142  0.00  0.00    +0.000 C 
ATOM     13  O   UNL     1       1.940   3.294  17.022  0.00  0.00    +0.000 OA
ATOM     14  N   UNL     1       3.341   4.416  18.476  0.00  0.00    +0.000 N 
ATOM     15  H   UNL     1       3.970   4.038  19.177  0.00  0.00    +0.000 HD
ENDBRANCH   1   3
BRANCH   1  16
ATOM     16  S   UNL     1       0.445   9.323  21.915  0.00  0.00    +0.000 S 
ATOM     17  O   UNL     1       1.616   9.259  22.764  0.00  0.00    +0.000 OA
ATOM     18  O   UNL     1      -0.646   8.380  22.101  0.00  0.00    +0.000 OA
BRANCH  16  27
ATOM     19  C   UNL     1       0.997  13.333  18.507  0.00  0.00    +0.000 C 
ATOM     20  C   UNL     1       1.383  13.416  19.988  0.00  0.00    +0.000 C 
ATOM     21  C   UNL     1       2.827  13.898  20.134  0.00  0.00    +0.000 C 
ATOM     22  C   UNL     1       0.411  14.323  20.771  0.00  0.00    +0.000 C 
ATOM     23  C   UNL     1      -0.312  13.304  21.570  0.00  0.00    +0.000 A 
ATOM     24  C   UNL     1      -1.381  13.497  22.427  0.00  0.00    +0.000 A 
ATOM     25  C   UNL     1      -1.891  12.396  23.113  0.00  0.00    +0.000 A 
ATOM     26  C   UNL     1      -1.318  11.131  22.936  0.00  0.00    +0.000 A 
ATOM     27  C   UNL     1      -0.225  10.953  22.081  0.00  0.00    +0.000 A 
ATOM     28  C   UNL     1       0.262  12.050  21.389  0.00  0.00    +0.000 A 
ATOM     29  O   UNL     1       1.330  12.063  20.539  0.00  0.00    +0.000 OA
ENDBRANCH  16  27
ENDBRANCH   1  16
TORSDOF 3
ENDMDL
MODEL 3
REMARK VINA RESULT:      -8.3      2.676      8.143
REMARK  Name = 
REMARK  5 active torsions:
REMARK  status: ('A' for Active; 'I' for Inactive)
REMARK    1  A    between atoms: C_1  and  C_2
REMARK    2  A    between atoms: C_2  and  C_3
REMARK    3  A    between atoms: C_9  and  S_10
REMARK    4  A    between atoms: S_10  and  N_13
REMARK    5  A    between atoms: N_13  and  C_14
REMARK                            x       y       z     vdW  Elec       q    Type
REMARK                         _______ _______ _______ _____ _____    ______ ____
ROOT
ATOM      1  N   UNL     1       1.023   9.526  20.606  0.00  0.00    +0.000 N 
ATOM      2  H   UNL     1       1.608  10.360  20.565  0.00  0.00    +0.000 HD
ENDROOT
BRANCH   1   3
ATOM      3  C   UNL     1       1.581   8.325  20.077  0.00  0.00    +0.000 A 
ATOM      4  C   UNL     1       2.055   8.308  18.771  0.00  0.00    +0.000 A 
ATOM      5  C   UNL     1       2.540   7.126  18.213  0.00  0.00    +0.000 A 
ATOM      6  C   UNL     1       2.546   5.952  18.966  0.00  0.00    +0.000 A 
ATOM      7  C   UNL     1       2.101   5.952  20.298  0.00  0.00    +0.000 A 
ATOM      8  C   UNL     1       1.627   7.160  20.852  0.00  0.00    +0.000 A 
ATOM      9  C   UNL     1       2.074   4.688  21.128  0.00  0.00    +0.000 C 
ATOM     10  C   UNL     1       1.194   3.591  20.515  0.00  0.00    +0.000 C 
ATOM     11  C   UNL     1       1.851   2.868  19.339  0.00  0.00    +0.000 C 
ATOM     12  C   UNL     1       2.051   3.788  18.148  0.00  0.00    +0.000 C 
ATOM     13  O   UNL     1       1.400   3.679  17.116  0.00  0.00    +0.000 OA
ATOM     14  N   UNL     1       3.022   4.766  18.349  0.00  0.00    +0.000 N 
ATOM     15  H   UNL     1       3.750   4.372  18.936  0.00  0.00    +0.000 HD
ENDBRANCH   1   3
BRANCH   1  16
ATOM     16  S   UNL     1       0.130   9.452  22.041  0.00  0.00    +0.000 S 
ATOM     17  O   UNL     1       1.065   9.589  23.138  0.00  0.00    +0.000 OA
ATOM     18  O   UNL     1      -0.740   8.289  21.963  0.00  0.00    +0.000 OA
BRANCH  16  27
ATOM     19  C   UNL     1      -1.863  11.970  17.835  0.00  0.00    +0.000 C 
ATOM     20  C   UNL     1      -1.011  12.653  18.911  0.00  0.00    +0.000 C 
ATOM     21  C   UNL     1       0.162  13.394  18.268  0.00  0.00    +0.000 C 
ATOM     22  C   UNL     1      -1.860  13.604  19.780  0.00  0.00    +0.000 C 
ATOM     23  C   UNL     1      -1.890  12.840  21.051  0.00  0.00    +0.000 A 
ATOM     24  C   UNL     1      -2.578  13.148  22.212  0.00  0.00    +0.000 A 
ATOM     25  C   UNL     1      -2.436  12.303  23.312  0.00  0.00    +0.000 A 
ATOM     26  C   UNL     1      -1.606  11.180  23.233  0.00  0.00    +0.000 A 
ATOM     27  C   UNL     1      -0.902  10.890  22.059  0.00  0.00    +0.000 A 
ATOM     28  C   UNL     1      -1.064  11.723  20.965  0.00  0.00    +0.000 A 
ATOM     29  O   UNL     1      -0.439  11.607  19.758  0.00  0.00    +0.000 OA
ENDBRANCH  16  27
ENDBRANCH   1  16
TORSDOF 3
ENDMDL
MODEL 4
REMARK VINA RESULT:      -8.3      1.128      1.498
REMARK  Name = 
REMARK  5 active torsions:
REMARK  status: ('A' for Active; 'I' for Inactive)
REMARK    1  A    between atoms: C_1  and  C_2
REMARK    2  A    between atoms: C_2  and  C_3
REMARK    3  A    between atoms: C_9  and  S_10
REMARK    4  A    between atoms: S_10  and  N_13
REMARK    5  A    between atoms: N_13  and  C_14
REMARK                            x       y       z     vdW  Elec       q    Type
REMARK                         _______ _______ _______ _____ _____    ______ ____
ROOT
ATOM      1  N   UNL     1       3.309   6.238  19.899  0.00  0.00    +0.000 N 
ATOM      2  H   UNL     1       4.318   6.389  19.942  0.00  0.00    +0.000 HD
ENDROOT
BRANCH   1   3
ATOM      3  C   UNL     1       2.514   7.343  19.476  0.00  0.00    +0.000 A 
ATOM      4  C   UNL     1       2.641   7.820  18.177  0.00  0.00    +0.000 A 
ATOM      5  C   UNL     1       1.923   8.943  17.765  0.00  0.00    +0.000 A 
ATOM      6  C   UNL     1       1.076   9.593  18.661  0.00  0.00    +0.000 A 
ATOM      7  C   UNL     1       0.908   9.111  19.969  0.00  0.00    +0.000 A 
ATOM      8  C   UNL     1       1.631   7.966  20.366  0.00  0.00    +0.000 A 
ATOM      9  C   UNL     1       0.015   9.813  20.968  0.00  0.00    +0.000 C 
ATOM     10  C   UNL     1       0.442  11.264  21.233  0.00  0.00    +0.000 C 
ATOM     11  C   UNL     1       0.043  12.230  20.117  0.00  0.00    +0.000 C 
ATOM     12  C   UNL     1       0.780  11.935  18.822  0.00  0.00    +0.000 C 
ATOM     13  O   UNL     1       1.649  12.675  18.378  0.00  0.00    +0.000 OA
ATOM     14  N   UNL     1       0.387  10.748  18.208  0.00  0.00    +0.000 N 
ATOM     15  H   UNL     1      -0.604  10.616  18.382  0.00  0.00    +0.000 HD
ENDBRANCH   1   3
BRANCH   1  16
ATOM     16  S   UNL     1       2.926   4.689  19.338  0.00  0.00    +0.000 S 
ATOM     17  O   UNL     1       1.575   4.740  18.820  0.00  0.00    +0.000 OA
ATOM     18  O   UNL     1       3.273   3.740  20.384  0.00  0.00    +0.000 OA
BRANCH  16  27
ATOM     19  C   UNL     1       8.102   5.752  19.051  0.00  0.00    +0.000 C 
ATOM     20  C   UNL     1       7.070   6.271  18.043  0.00  0.00    +0.000 C 
ATOM     21  C   UNL     1       7.181   7.790  17.903  0.00  0.00    +0.000 C 
ATOM     22  C   UNL     1       7.220   5.573  16.676  0.00  0.00    +0.000 C 
ATOM     23  C   UNL     1       6.001   4.729  16.676  0.00  0.00    +0.000 A 
ATOM     24  C   UNL     1       5.611   3.797  15.730  0.00  0.00    +0.000 A 
ATOM     25  C   UNL     1       4.397   3.134  15.911  0.00  0.00    +0.000 A 
ATOM     26  C   UNL     1       3.598   3.423  17.022  0.00  0.00    +0.000 A 
ATOM     27  C   UNL     1       3.995   4.380  17.962  0.00  0.00    +0.000 A 
ATOM     28  C   UNL     1       5.212   5.019  17.785  0.00  0.00    +0.000 A 
ATOM     29  O   UNL     1       5.740   5.992  18.583  0.00  0.00    +0.000 OA
ENDBRANCH  16  27
ENDBRANCH   1  16
TORSDOF 3
ENDMDL
MODEL 5
REMARK VINA RESULT:      -8.1      1.633      2.185
REMARK  Name = 
REMARK  5 active torsions:
REMARK  status: ('A' for Active; 'I' for Inactive)
REMARK    1  A    between atoms: C_1  and  C_2
REMARK    2  A    between atoms: C_2  and  C_3
REMARK    3  A    between atoms: C_9  and  S_10
REMARK    4  A    between atoms: S_10  and  N_13
REMARK    5  A    between atoms: N_13  and  C_14
REMARK                            x       y       z     vdW  Elec       q    Type
REMARK                         _______ _______ _______ _____ _____    ______ ____
ROOT
ATOM      1  N   UNL     1       3.129   7.106  19.035  0.00  0.00    +0.000 N 
ATOM      2  H   UNL     1       3.757   7.417  18.292  0.00  0.00    +0.000 HD
ENDROOT
BRANCH   1   3
ATOM      3  C   UNL     1       2.089   8.006  19.412  0.00  0.00    +0.000 A 
ATOM      4  C   UNL     1       1.827   9.119  18.622  0.00  0.00    +0.000 A 
ATOM      5  C   UNL     1       0.861  10.047  19.012  0.00  0.00    +0.000 A 
ATOM      6  C   UNL     1       0.157   9.861  20.201  0.00  0.00    +0.000 A 
ATOM      7  C   UNL     1       0.383   8.728  20.999  0.00  0.00    +0.000 A 
ATOM      8  C   UNL     1       1.353   7.792  20.584  0.00  0.00    +0.000 A 
ATOM      9  C   UNL     1      -0.349   8.516  22.306  0.00  0.00    +0.000 C 
ATOM     10  C   UNL     1      -0.110   9.648  23.314  0.00  0.00    +0.000 C 
ATOM     11  C   UNL     1      -0.910  10.915  23.009  0.00  0.00    +0.000 C 
ATOM     12  C   UNL     1      -0.464  11.570  21.714  0.00  0.00    +0.000 C 
ATOM     13  O   UNL     1       0.145  12.633  21.692  0.00  0.00    +0.000 OA
ATOM     14  N   UNL     1      -0.795  10.845  20.572  0.00  0.00    +0.000 N 
ATOM     15  H   UNL     1      -1.683  10.382  20.739  0.00  0.00    +0.000 HD
ENDBRANCH   1   3
BRANCH   1  16
ATOM     16  S   UNL     1       2.782   5.455  18.917  0.00  0.00    +0.000 S 
ATOM     17  O   UNL     1       1.482   5.331  18.291  0.00  0.00    +0.000 OA
ATOM     18  O   UNL     1       3.026   4.857  20.220  0.00  0.00    +0.000 OA
BRANCH  16  27
ATOM     19  C   UNL     1       8.050   5.804  19.268  0.00  0.00    +0.000 C 
ATOM     20  C   UNL     1       7.248   6.258  18.044  0.00  0.00    +0.000 C 
ATOM     21  C   UNL     1       7.600   7.702  17.685  0.00  0.00    +0.000 C 
ATOM     22  C   UNL     1       7.472   5.316  16.844  0.00  0.00    +0.000 C 
ATOM     23  C   UNL     1       6.152   4.642  16.790  0.00  0.00    +0.000 A 
ATOM     24  C   UNL     1       5.755   3.612  15.954  0.00  0.00    +0.000 A 
ATOM     25  C   UNL     1       4.444   3.147  16.047  0.00  0.00    +0.000 A 
ATOM     26  C   UNL     1       3.557   3.724  16.962  0.00  0.00    +0.000 A 
ATOM     27  C   UNL     1       3.965   4.777  17.789  0.00  0.00    +0.000 A 
ATOM     28  C   UNL     1       5.275   5.219  17.703  0.00  0.00    +0.000 A 
ATOM     29  O   UNL     1       5.832   6.245  18.410  0.00  0.00    +0.000 OA
ENDBRANCH  16  27
ENDBRANCH   1  16
TORSDOF 3
ENDMDL
MODEL 6
REMARK VINA RESULT:      -8.1      2.744      8.046
REMARK  Name = 
REMARK  5 active torsions:
REMARK  status: ('A' for Active; 'I' for Inactive)
REMARK    1  A    between atoms: C_1  and  C_2
REMARK    2  A    between atoms: C_2  and  C_3
REMARK    3  A    between atoms: C_9  and  S_10
REMARK    4  A    between atoms: S_10  and  N_13
REMARK    5  A    between atoms: N_13  and  C_14
REMARK                            x       y       z     vdW  Elec       q    Type
REMARK                         _______ _______ _______ _____ _____    ______ ____
ROOT
ATOM      1  N   UNL     1       1.437   9.070  19.793  0.00  0.00    +0.000 N 
ATOM      2  H   UNL     1       2.036   9.867  19.573  0.00  0.00    +0.000 HD
ENDROOT
BRANCH   1   3
ATOM      3  C   UNL     1       1.978   7.774  19.546  0.00  0.00    +0.000 A 
ATOM      4  C   UNL     1       2.626   7.521  18.343  0.00  0.00    +0.000 A 
ATOM      5  C   UNL     1       3.099   6.241  18.054  0.00  0.00    +0.000 A 
ATOM      6  C   UNL     1       2.920   5.209  18.974  0.00  0.00    +0.000 A 
ATOM      7  C   UNL     1       2.296   5.449  20.209  0.00  0.00    +0.000 A 
ATOM      8  C   UNL     1       1.835   6.752  20.491  0.00  0.00    +0.000 A 
ATOM      9  C   UNL     1       2.067   4.341  21.213  0.00  0.00    +0.000 C 
ATOM     10  C   UNL     1       1.205   3.200  20.656  0.00  0.00    +0.000 C 
ATOM     11  C   UNL     1       1.967   2.264  19.717  0.00  0.00    +0.000 C 
ATOM     12  C   UNL     1       2.393   2.965  18.440  0.00  0.00    +0.000 C 
ATOM     13  O   UNL     1       1.885   2.718  17.353  0.00  0.00    +0.000 OA
ATOM     14  N   UNL     1       3.393   3.917  18.626  0.00  0.00    +0.000 N 
ATOM     15  H   UNL     1       4.004   3.591  19.369  0.00  0.00    +0.000 HD
ENDBRANCH   1   3
BRANCH   1  16
ATOM     16  S   UNL     1       0.536   9.328  21.201  0.00  0.00    +0.000 S 
ATOM     17  O   UNL     1       1.467   9.700  22.246  0.00  0.00    +0.000 OA
ATOM     18  O   UNL     1      -0.345   8.185  21.380  0.00  0.00    +0.000 OA
BRANCH  16  27
ATOM     19  C   UNL     1      -3.734   9.526  18.082  0.00  0.00    +0.000 C 
ATOM     20  C   UNL     1      -2.522  10.451  17.924  0.00  0.00    +0.000 C 
ATOM     21  C   UNL     1      -1.999  10.400  16.488  0.00  0.00    +0.000 C 
ATOM     22  C   UNL     1      -2.861  11.897  18.342  0.00  0.00    +0.000 C 
ATOM     23  C   UNL     1      -2.092  11.992  19.607  0.00  0.00    +0.000 A 
ATOM     24  C   UNL     1      -2.058  13.044  20.505  0.00  0.00    +0.000 A 
ATOM     25  C   UNL     1      -1.231  12.938  21.623  0.00  0.00    +0.000 A 
ATOM     26  C   UNL     1      -0.452  11.791  21.814  0.00  0.00    +0.000 A 
ATOM     27  C   UNL     1      -0.482  10.742  20.889  0.00  0.00    +0.000 A 
ATOM     28  C   UNL     1      -1.321  10.848  19.791  0.00  0.00    +0.000 A 
ATOM     29  O   UNL     1      -1.455   9.938  18.783  0.00  0.00    +0.000 OA
ENDBRANCH  16  27
ENDBRANCH   1  16
TORSDOF 3
ENDMDL
MODEL 7
REMARK VINA RESULT:      -8.0      1.001      1.236
REMARK  Name = 
REMARK  5 active torsions:
REMARK  status: ('A' for Active; 'I' for Inactive)
REMARK    1  A    between atoms: C_1  and  C_2
REMARK    2  A    between atoms: C_2  and  C_3
REMARK    3  A    between atoms: C_9  and  S_10
REMARK    4  A    between atoms: S_10  and  N_13
REMARK    5  A    between atoms: N_13  and  C_14
REMARK                            x       y       z     vdW  Elec       q    Type
REMARK                         _______ _______ _______ _____ _____    ______ ____
ROOT
ATOM      1  N   UNL     1       2.695   6.552  20.341  0.00  0.00    +0.000 N 
ATOM      2  H   UNL     1       3.495   6.595  19.710  0.00  0.00    +0.000 HD
ENDROOT
BRANCH   1   3
ATOM      3  C   UNL     1       1.772   7.638  20.281  0.00  0.00    +0.000 A 
ATOM      4  C   UNL     1       1.776   8.478  19.174  0.00  0.00    +0.000 A 
ATOM      5  C   UNL     1       0.930   9.586  19.129  0.00  0.00    +0.000 A 
ATOM      6  C   UNL     1       0.079   9.856  20.199  0.00  0.00    +0.000 A 
ATOM      7  C   UNL     1       0.036   9.004  21.315  0.00  0.00    +0.000 A 
ATOM      8  C   UNL     1       0.888   7.880  21.339  0.00  0.00    +0.000 A 
ATOM      9  C   UNL     1      -0.860   9.288  22.500  0.00  0.00    +0.000 C 
ATOM     10  C   UNL     1      -0.560  10.639  23.163  0.00  0.00    +0.000 C 
ATOM     11  C   UNL     1      -1.115  11.835  22.389  0.00  0.00    +0.000 C 
ATOM     12  C   UNL     1      -0.432  12.007  21.044  0.00  0.00    +0.000 C 
ATOM     13  O   UNL     1       0.335  12.934  20.810  0.00  0.00    +0.000 OA
ATOM     14  N   UNL     1      -0.744  11.010  20.122  0.00  0.00    +0.000 N 
ATOM     15  H   UNL     1      -1.706  10.726  20.279  0.00  0.00    +0.000 HD
ENDBRANCH   1   3
BRANCH   1  16
ATOM     16  S   UNL     1       2.098   4.977  20.496  0.00  0.00    +0.000 S 
ATOM     17  O   UNL     1       0.667   5.035  20.278  0.00  0.00    +0.000 OA
ATOM     18  O   UNL     1       2.627   4.422  21.731  0.00  0.00    +0.000 OA
BRANCH  16  27
ATOM     19  C   UNL     1       7.025   5.340  18.601  0.00  0.00    +0.000 C 
ATOM     20  C   UNL     1       5.768   5.516  17.742  0.00  0.00    +0.000 C 
ATOM     21  C   UNL     1       5.829   6.838  16.976  0.00  0.00    +0.000 C 
ATOM     22  C   UNL     1       5.574   4.325  16.781  0.00  0.00    +0.000 C 
ATOM     23  C   UNL     1       4.400   3.670  17.409  0.00  0.00    +0.000 A 
ATOM     24  C   UNL     1       3.791   2.482  17.042  0.00  0.00    +0.000 A 
ATOM     25  C   UNL     1       2.667   2.064  17.754  0.00  0.00    +0.000 A 
ATOM     26  C   UNL     1       2.172   2.842  18.806  0.00  0.00    +0.000 A 
ATOM     27  C   UNL     1       2.787   4.050  19.156  0.00  0.00    +0.000 A 
ATOM     28  C   UNL     1       3.914   4.448  18.456  0.00  0.00    +0.000 A 
ATOM     29  O   UNL     1       4.620   5.601  18.643  0.00  0.00    +0.000 OA
ENDBRANCH  16  27
ENDBRANCH   1  16
TORSDOF 3
ENDMDL
MODEL 8
REMARK VINA RESULT:      -8.0      2.278      3.661
REMARK  Name = 
REMARK  5 active torsions:
REMARK  status: ('A' for Active; 'I' for Inactive)
REMARK    1  A    between atoms: C_1  and  C_2
REMARK    2  A    between atoms: C_2  and  C_3
REMARK    3  A    between atoms: C_9  and  S_10
REMARK    4  A    between atoms: S_10  and  N_13
REMARK    5  A    between atoms: N_13  and  C_14
REMARK                            x       y       z     vdW  Elec       q    Type
REMARK                         _______ _______ _______ _____ _____    ______ ____
ROOT
ATOM      1  N   UNL     1       2.447   3.936  18.317  0.00  0.00    +0.000 N 
ATOM      2  H   UNL     1       1.609   3.360  18.232  0.00  0.00    +0.000 HD
ENDROOT
BRANCH   1   3
ATOM      3  C   UNL     1       2.287   5.211  18.936  0.00  0.00    +0.000 A 
ATOM      4  C   UNL     1       1.903   5.280  20.270  0.00  0.00    +0.000 A 
ATOM      5  C   UNL     1       1.673   6.517  20.873  0.00  0.00    +0.000 A 
ATOM      6  C   UNL     1       1.827   7.690  20.136  0.00  0.00    +0.000 A 
ATOM      7  C   UNL     1       2.245   7.646  18.796  0.00  0.00    +0.000 A 
ATOM      8  C   UNL     1       2.486   6.388  18.204  0.00  0.00    +0.000 A 
ATOM      9  C   UNL     1       2.395   8.902  17.967  0.00  0.00    +0.000 C 
ATOM     10  C   UNL     1       1.088   9.698  17.850  0.00  0.00    +0.000 C 
ATOM     11  C   UNL     1       0.750  10.502  19.105  0.00  0.00    +0.000 C 
ATOM     12  C   UNL     1       0.444   9.604  20.290  0.00  0.00    +0.000 C 
ATOM     13  O   UNL     1      -0.685   9.485  20.751  0.00  0.00    +0.000 OA
ATOM     14  N   UNL     1       1.556   8.924  20.782  0.00  0.00    +0.000 N 
ATOM     15  H   UNL     1       2.367   9.525  20.674  0.00  0.00    +0.000 HD
ENDBRANCH   1   3
BRANCH   1  16
ATOM     16  S   UNL     1       3.814   3.011  18.685  0.00  0.00    +0.000 S 
ATOM     17  O   UNL     1       3.907   1.964  17.689  0.00  0.00    +0.000 OA
ATOM     18  O   UNL     1       3.754   2.673  20.098  0.00  0.00    +0.000 OA
BRANCH  16  27
ATOM     19  C   UNL     1       4.995   5.766  14.324  0.00  0.00    +0.000 C 
ATOM     20  C   UNL     1       5.952   4.768  14.985  0.00  0.00    +0.000 C 
ATOM     21  C   UNL     1       6.444   3.745  13.961  0.00  0.00    +0.000 C 
ATOM     22  C   UNL     1       7.135   5.490  15.663  0.00  0.00    +0.000 C 
ATOM     23  C   UNL     1       6.788   5.281  17.090  0.00  0.00    +0.000 A 
ATOM     24  C   UNL     1       7.442   5.773  18.206  0.00  0.00    +0.000 A 
ATOM     25  C   UNL     1       6.963   5.420  19.466  0.00  0.00    +0.000 A 
ATOM     26  C   UNL     1       5.852   4.578  19.586  0.00  0.00    +0.000 A 
ATOM     27  C   UNL     1       5.211   4.072  18.450  0.00  0.00    +0.000 A 
ATOM     28  C   UNL     1       5.681   4.444  17.201  0.00  0.00    +0.000 A 
ATOM     29  O   UNL     1       5.197   4.028  15.995  0.00  0.00    +0.000 OA
ENDBRANCH  16  27
ENDBRANCH   1  16
TORSDOF 3
ENDMDL
MODEL 9
REMARK VINA RESULT:      -7.9      2.593      8.114
REMARK  Name = 
REMARK  5 active torsions:
REMARK  status: ('A' for Active; 'I' for Inactive)
REMARK    1  A    between atoms: C_1  and  C_2
REMARK    2  A    between atoms: C_2  and  C_3
REMARK    3  A    between atoms: C_9  and  S_10
REMARK    4  A    between atoms: S_10  and  N_13
REMARK    5  A    between atoms: N_13  and  C_14
REMARK                            x       y       z     vdW  Elec       q    Type
REMARK                         _______ _______ _______ _____ _____    ______ ____
ROOT
ATOM      1  N   UNL     1       1.477   8.894  19.664  0.00  0.00    +0.000 N 
ATOM      2  H   UNL     1       0.720   8.985  20.341  0.00  0.00    +0.000 HD
ENDROOT
BRANCH   1   3
ATOM      3  C   UNL     1       2.038   7.593  19.502  0.00  0.00    +0.000 A 
ATOM      4  C   UNL     1       2.905   7.348  18.443  0.00  0.00    +0.000 A 
ATOM      5  C   UNL     1       3.408   6.065  18.227  0.00  0.00    +0.000 A 
ATOM      6  C   UNL     1       3.037   5.021  19.073  0.00  0.00    +0.000 A 
ATOM      7  C   UNL     1       2.187   5.251  20.167  0.00  0.00    +0.000 A 
ATOM      8  C   UNL     1       1.698   6.557  20.380  0.00  0.00    +0.000 A 
ATOM      9  C   UNL     1       1.750   4.131  21.085  0.00  0.00    +0.000 C 
ATOM     10  C   UNL     1       0.998   3.015  20.346  0.00  0.00    +0.000 C 
ATOM     11  C   UNL     1       1.915   2.081  19.556  0.00  0.00    +0.000 C 
ATOM     12  C   UNL     1       2.593   2.796  18.401  0.00  0.00    +0.000 C 
ATOM     13  O   UNL     1       2.303   2.577  17.231  0.00  0.00    +0.000 OA
ATOM     14  N   UNL     1       3.550   3.727  18.799  0.00  0.00    +0.000 N 
ATOM     15  H   UNL     1       3.999   3.378  19.639  0.00  0.00    +0.000 HD
ENDBRANCH   1   3
BRANCH   1  16
ATOM     16  S   UNL     1       1.218   9.852  18.294  0.00  0.00    +0.000 S 
ATOM     17  O   UNL     1       1.254   8.974  17.142  0.00  0.00    +0.000 OA
ATOM     18  O   UNL     1       2.116  10.992  18.373  0.00  0.00    +0.000 OA
BRANCH  16  27
ATOM     19  C   UNL     1      -0.411  13.970  21.189  0.00  0.00    +0.000 C 
ATOM     20  C   UNL     1      -1.000  12.560  21.310  0.00  0.00    +0.000 C 
ATOM     21  C   UNL     1      -0.966  12.093  22.765  0.00  0.00    +0.000 C 
ATOM     22  C   UNL     1      -2.432  12.499  20.739  0.00  0.00    +0.000 C 
ATOM     23  C   UNL     1      -2.190  11.712  19.506  0.00  0.00    +0.000 A 
ATOM     24  C   UNL     1      -3.097  11.386  18.512  0.00  0.00    +0.000 A 
ATOM     25  C   UNL     1      -2.662  10.599  17.447  0.00  0.00    +0.000 A 
ATOM     26  C   UNL     1      -1.339  10.145  17.402  0.00  0.00    +0.000 A 
ATOM     27  C   UNL     1      -0.437  10.466  18.423  0.00  0.00    +0.000 A 
ATOM     28  C   UNL     1      -0.872  11.266  19.467  0.00  0.00    +0.000 A 
ATOM     29  O   UNL     1      -0.140  11.652  20.552  0.00  0.00    +0.000 OA
ENDBRANCH  16  27
ENDBRANCH   1  16
TORSDOF 3
ENDMDL
