MODEL 1
REMARK VINA RESULT:      -8.9      0.000      0.000
REMARK  Name = 
REMARK  7 active torsions:
REMARK  status: ('A' for Active; 'I' for Inactive)
REMARK    1  A    between atoms: C_2  and  N_3
REMARK    2  A    between atoms: C_2  and  C_10
REMARK    3  A    between atoms: N_8  and  C_9
REMARK    4  A    between atoms: C_14  and  N_15
REMARK    5  A    between atoms: C_20  and  C_21
REMARK    6  A    between atoms: C_21  and  C_22
REMARK    7  A    between atoms: C_24  and  C_25
REMARK                            x       y       z     vdW  Elec       q    Type
REMARK                         _______ _______ _______ _____ _____    ______ ____
ROOT
ATOM      1  C   UNL     1       2.040   7.869  19.449  0.00  0.00    +0.000 A 
ATOM      2  C   UNL     1       2.652   8.525  18.362  0.00  0.00    +0.000 A 
ATOM      3  C   UNL     1       3.187   7.809  17.295  0.00  0.00    +0.000 A 
ATOM      4  C   UNL     1       3.269   6.429  17.373  0.00  0.00    +0.000 A 
ATOM      5  C   UNL     1       2.988   5.801  18.595  0.00  0.00    +0.000 A 
ATOM      6  C   UNL     1       2.203   6.477  19.538  0.00  0.00    +0.000 A 
ENDROOT
BRANCH   5   7
ATOM      7  N   UNL     1       3.912   4.780  19.087  0.00  0.00    +0.000 N 
ATOM      8  C   UNL     1       5.268   5.363  19.268  0.00  0.00    +0.000 C 
ATOM      9  C   UNL     1       5.893   5.131  17.923  0.00  0.00    +0.000 A 
ATOM     10  C   UNL     1       5.274   4.007  17.370  0.00  0.00    +0.000 A 
ATOM     11  C   UNL     1       5.479   3.598  16.063  0.00  0.00    +0.000 A 
ATOM     12  C   UNL     1       6.342   4.362  15.268  0.00  0.00    +0.000 A 
ATOM     13  C   UNL     1       6.961   5.509  15.819  0.00  0.00    +0.000 A 
ATOM     14  C   UNL     1       6.750   5.914  17.157  0.00  0.00    +0.000 A 
ATOM     15  C   UNL     1       4.102   3.674  18.216  0.00  0.00    +0.000 C 
ATOM     16  O   UNL     1       3.354   2.736  18.010  0.00  0.00    +0.000 OA
BRANCH  14  17
ATOM     17  C   UNL     1       7.361   7.205  17.638  0.00  0.00    +0.000 C 
ATOM     18  F   UNL     1       8.072   7.090  18.793  0.00  0.00    +0.000 F 
ATOM     19  F   UNL     1       8.221   7.738  16.728  0.00  0.00    +0.000 F 
ATOM     20  F   UNL     1       6.423   8.165  17.872  0.00  0.00    +0.000 F 
ENDBRANCH  14  17
BRANCH  12  21
ATOM     21  C   UNL     1       6.542   4.011  13.813  0.00  0.00    +0.000 C 
ATOM     22  C   UNL     1       5.242   3.689  13.093  0.00  0.00    +0.000 C 
ENDBRANCH  12  21
ENDBRANCH   5   7
BRANCH   1  24
ATOM     23  C   UNL     1       1.196   8.231  21.728  0.00  0.00    +0.000 C 
ATOM     24  C   UNL     1       1.260   8.656  20.451  0.00  0.00    +0.000 C 
BRANCH  24  25
ATOM     25  N   UNL     1       0.621   9.771  19.937  0.00  0.00    +0.000 N 
ATOM     26  C   UNL     1       0.581  11.039  20.405  0.00  0.00    +0.000 A 
ATOM     27  N   UNL     1       1.251  11.634  21.369  0.00  0.00    +0.000 NA
ATOM     28  N   UNL     1       0.811  12.932  21.472  0.00  0.00    +0.000 NA
ATOM     29  C   UNL     1      -0.123  13.107  20.568  0.00  0.00    +0.000 A 
ATOM     30  N   UNL     1      -0.297  11.953  19.875  0.00  0.00    +0.000 N 
ATOM     31  C   UNL     1      -1.253  11.744  18.819  0.00  0.00    +0.000 C 
ATOM     32  H   UNL     1      -0.020   9.528  19.191  0.00  0.00    +0.000 HD
ENDBRANCH  24  25
ENDBRANCH   1  24
TORSDOF 5
ENDMDL
MODEL 2
REMARK VINA RESULT:      -8.8      3.668      8.148
REMARK  Name = 
REMARK  7 active torsions:
REMARK  status: ('A' for Active; 'I' for Inactive)
REMARK    1  A    between atoms: C_2  and  N_3
REMARK    2  A    between atoms: C_2  and  C_10
REMARK    3  A    between atoms: N_8  and  C_9
REMARK    4  A    between atoms: C_14  and  N_15
REMARK    5  A    between atoms: C_20  and  C_21
REMARK    6  A    between atoms: C_21  and  C_22
REMARK    7  A    between atoms: C_24  and  C_25
REMARK                            x       y       z     vdW  Elec       q    Type
REMARK                         _______ _______ _______ _____ _____    ______ ____
ROOT
ATOM      1  C   UNL     1       2.581   4.329  18.778  0.00  0.00    +0.000 A 
ATOM      2  C   UNL     1       2.410   3.994  20.136  0.00  0.00    +0.000 A 
ATOM      3  C   UNL     1       1.779   4.864  21.020  0.00  0.00    +0.000 A 
ATOM      4  C   UNL     1       1.459   6.146  20.603  0.00  0.00    +0.000 A 
ATOM      5  C   UNL     1       1.945   6.599  19.369  0.00  0.00    +0.000 A 
ATOM      6  C   UNL     1       2.317   5.655  18.401  0.00  0.00    +0.000 A 
ENDROOT
BRANCH   5   7
ATOM      7  N   UNL     1       2.565   7.921  19.302  0.00  0.00    +0.000 N 
ATOM      8  C   UNL     1       2.198   8.718  20.502  0.00  0.00    +0.000 C 
ATOM      9  C   UNL     1       0.940   9.402  20.053  0.00  0.00    +0.000 A 
ATOM     10  C   UNL     1       1.012   9.527  18.663  0.00  0.00    +0.000 A 
ATOM     11  C   UNL     1      -0.051   9.958  17.887  0.00  0.00    +0.000 A 
ATOM     12  C   UNL     1      -1.249  10.272  18.539  0.00  0.00    +0.000 A 
ATOM     13  C   UNL     1      -1.333  10.134  19.946  0.00  0.00    +0.000 A 
ATOM     14  C   UNL     1      -0.239   9.698  20.729  0.00  0.00    +0.000 A 
ATOM     15  C   UNL     1       2.163   8.716  18.195  0.00  0.00    +0.000 C 
ATOM     16  O   UNL     1       2.505   8.622  17.031  0.00  0.00    +0.000 OA
BRANCH  14  17
ATOM     17  C   UNL     1      -0.438   9.476  22.206  0.00  0.00    +0.000 C 
ATOM     18  F   UNL     1       0.703   9.563  22.942  0.00  0.00    +0.000 F 
ATOM     19  F   UNL     1      -1.297  10.379  22.752  0.00  0.00    +0.000 F 
ATOM     20  F   UNL     1      -0.964   8.248  22.478  0.00  0.00    +0.000 F 
ENDBRANCH  14  17
BRANCH  12  21
ATOM     21  C   UNL     1      -2.466  10.671  17.738  0.00  0.00    +0.000 C 
ATOM     22  C   UNL     1      -2.445  10.136  16.315  0.00  0.00    +0.000 C 
ENDBRANCH  12  21
ENDBRANCH   5   7
BRANCH   1  24
ATOM     23  C   UNL     1       2.370   2.117  17.727  0.00  0.00    +0.000 C 
ATOM     24  C   UNL     1       3.031   3.289  17.804  0.00  0.00    +0.000 C 
BRANCH  24  25
ATOM     25  N   UNL     1       4.155   3.633  17.072  0.00  0.00    +0.000 N 
ATOM     26  C   UNL     1       5.371   4.048  17.494  0.00  0.00    +0.000 A 
ATOM     27  N   UNL     1       5.909   4.091  18.694  0.00  0.00    +0.000 NA
ATOM     28  N   UNL     1       7.167   4.635  18.592  0.00  0.00    +0.000 NA
ATOM     29  C   UNL     1       7.375   4.916  17.328  0.00  0.00    +0.000 A 
ATOM     30  N   UNL     1       6.283   4.561  16.604  0.00  0.00    +0.000 N 
ATOM     31  C   UNL     1       6.122   4.739  15.184  0.00  0.00    +0.000 C 
ATOM     32  H   UNL     1       3.948   3.721  16.085  0.00  0.00    +0.000 HD
ENDBRANCH  24  25
ENDBRANCH   1  24
TORSDOF 5
ENDMDL
MODEL 3
REMARK VINA RESULT:      -8.8      0.840      1.437
REMARK  Name = 
REMARK  7 active torsions:
REMARK  status: ('A' for Active; 'I' for Inactive)
REMARK    1  A    between atoms: C_2  and  N_3
REMARK    2  A    between atoms: C_2  and  C_10
REMARK    3  A    between atoms: N_8  and  C_9
REMARK    4  A    between atoms: C_14  and  N_15
REMARK    5  A    between atoms: C_20  and  C_21
REMARK    6  A    between atoms: C_21  and  C_22
REMARK    7  A    between atoms: C_24  and  C_25
REMARK                            x       y       z     vdW  Elec       q    Type
REMARK                         _______ _______ _______ _____ _____    ______ ____
ROOT
ATOM      1  C   UNL     1       2.054   7.928  19.401  0.00  0.00    +0.000 A 
ATOM      2  C   UNL     1       2.637   8.515  18.259  0.00  0.00    +0.000 A 
ATOM      3  C   UNL     1       3.134   7.735  17.221  0.00  0.00    +0.000 A 
ATOM      4  C   UNL     1       3.211   6.361  17.376  0.00  0.00    +0.000 A 
ATOM      5  C   UNL     1       2.964   5.806  18.639  0.00  0.00    +0.000 A 
ATOM      6  C   UNL     1       2.212   6.542  19.565  0.00  0.00    +0.000 A 
ENDROOT
BRANCH   5   7
ATOM      7  N   UNL     1       3.897   4.809  19.162  0.00  0.00    +0.000 N 
ATOM      8  C   UNL     1       5.248   5.408  19.321  0.00  0.00    +0.000 C 
ATOM      9  C   UNL     1       5.872   5.137  17.983  0.00  0.00    +0.000 A 
ATOM     10  C   UNL     1       5.260   3.991  17.467  0.00  0.00    +0.000 A 
ATOM     11  C   UNL     1       5.465   3.543  16.173  0.00  0.00    +0.000 A 
ATOM     12  C   UNL     1       6.321   4.287  15.352  0.00  0.00    +0.000 A 
ATOM     13  C   UNL     1       6.933   5.456  15.865  0.00  0.00    +0.000 A 
ATOM     14  C   UNL     1       6.721   5.901  17.190  0.00  0.00    +0.000 A 
ATOM     15  C   UNL     1       4.093   3.677  18.326  0.00  0.00    +0.000 C 
ATOM     16  O   UNL     1       3.352   2.727  18.152  0.00  0.00    +0.000 OA
BRANCH  14  17
ATOM     17  C   UNL     1       7.324   7.212  17.628  0.00  0.00    +0.000 C 
ATOM     18  F   UNL     1       6.413   8.194  17.866  0.00  0.00    +0.000 F 
ATOM     19  F   UNL     1       8.041   7.089  18.779  0.00  0.00    +0.000 F 
ATOM     20  F   UNL     1       8.187   7.719  16.703  0.00  0.00    +0.000 F 
ENDBRANCH  14  17
BRANCH  12  21
ATOM     21  C   UNL     1       6.521   3.891  13.909  0.00  0.00    +0.000 C 
ATOM     22  C   UNL     1       5.219   3.804  13.128  0.00  0.00    +0.000 C 
ENDBRANCH  12  21
ENDBRANCH   5   7
BRANCH   1  24
ATOM     23  C   UNL     1       0.875   8.237  21.534  0.00  0.00    +0.000 C 
ATOM     24  C   UNL     1       1.309   8.776  20.379  0.00  0.00    +0.000 C 
BRANCH  24  25
ATOM     25  N   UNL     1       1.098  10.081  19.966  0.00  0.00    +0.000 N 
ATOM     26  C   UNL     1       0.011  10.642  19.388  0.00  0.00    +0.000 A 
ATOM     27  N   UNL     1      -1.208  10.185  19.198  0.00  0.00    +0.000 NA
ATOM     28  N   UNL     1      -1.933  11.140  18.526  0.00  0.00    +0.000 NA
ATOM     29  C   UNL     1      -1.142  12.164  18.317  0.00  0.00    +0.000 A 
ATOM     30  N   UNL     1       0.081  11.901  18.843  0.00  0.00    +0.000 N 
ATOM     31  C   UNL     1       1.225  12.774  18.788  0.00  0.00    +0.000 C 
ATOM     32  H   UNL     1       1.955  10.621  19.974  0.00  0.00    +0.000 HD
ENDBRANCH  24  25
ENDBRANCH   1  24
TORSDOF 5
ENDMDL
MODEL 4
REMARK VINA RESULT:      -8.6      6.717      9.436
REMARK  Name = 
REMARK  7 active torsions:
REMARK  status: ('A' for Active; 'I' for Inactive)
REMARK    1  A    between atoms: C_2  and  N_3
REMARK    2  A    between atoms: C_2  and  C_10
REMARK    3  A    between atoms: N_8  and  C_9
REMARK    4  A    between atoms: C_14  and  N_15
REMARK    5  A    between atoms: C_20  and  C_21
REMARK    6  A    between atoms: C_21  and  C_22
REMARK    7  A    between atoms: C_24  and  C_25
REMARK                            x       y       z     vdW  Elec       q    Type
REMARK                         _______ _______ _______ _____ _____    ______ ____
ROOT
ATOM      1  C   UNL     1      -3.763  11.433  17.744  0.00  0.00    +0.000 A 
ATOM      2  C   UNL     1      -3.630  10.762  16.511  0.00  0.00    +0.000 A 
ATOM      3  C   UNL     1      -2.570   9.895  16.272  0.00  0.00    +0.000 A 
ATOM      4  C   UNL     1      -1.537   9.809  17.191  0.00  0.00    +0.000 A 
ATOM      5  C   UNL     1      -1.490  10.733  18.245  0.00  0.00    +0.000 A 
ATOM      6  C   UNL     1      -2.670  11.387  18.624  0.00  0.00    +0.000 A 
ENDROOT
BRANCH   5   7
ATOM      7  N   UNL     1      -0.221  11.397  18.539  0.00  0.00    +0.000 N 
ATOM      8  C   UNL     1       0.516  10.648  19.591  0.00  0.00    +0.000 C 
ATOM      9  C   UNL     1       0.009  11.291  20.849  0.00  0.00    +0.000 A 
ATOM     10  C   UNL     1      -0.362  12.599  20.523  0.00  0.00    +0.000 A 
ATOM     11  C   UNL     1      -1.032  13.435  21.399  0.00  0.00    +0.000 A 
ATOM     12  C   UNL     1      -1.355  12.930  22.665  0.00  0.00    +0.000 A 
ATOM     13  C   UNL     1      -0.994  11.602  22.996  0.00  0.00    +0.000 A 
ATOM     14  C   UNL     1      -0.305  10.759  22.095  0.00  0.00    +0.000 A 
ATOM     15  C   UNL     1      -0.340  12.719  19.044  0.00  0.00    +0.000 C 
ATOM     16  O   UNL     1      -0.604  13.741  18.438  0.00  0.00    +0.000 OA
BRANCH  14  17
ATOM     17  C   UNL     1      -0.050   9.324  22.481  0.00  0.00    +0.000 C 
ATOM     18  F   UNL     1      -0.864   8.426  21.862  0.00  0.00    +0.000 F 
ATOM     19  F   UNL     1       1.220   8.931  22.191  0.00  0.00    +0.000 F 
ATOM     20  F   UNL     1      -0.210   9.113  23.818  0.00  0.00    +0.000 F 
ENDBRANCH  14  17
BRANCH  12  21
ATOM     21  C   UNL     1      -2.154  13.768  23.634  0.00  0.00    +0.000 C 
ATOM     22  C   UNL     1      -3.348  13.030  24.218  0.00  0.00    +0.000 C 
ENDBRANCH  12  21
ENDBRANCH   5   7
BRANCH   1  24
ATOM     23  C   UNL     1      -6.052  12.134  17.191  0.00  0.00    +0.000 C 
ATOM     24  C   UNL     1      -5.029  12.157  18.067  0.00  0.00    +0.000 C 
BRANCH  24  25
ATOM     25  N   UNL     1      -5.010  12.840  19.271  0.00  0.00    +0.000 N 
ATOM     26  C   UNL     1      -5.683  12.593  20.418  0.00  0.00    +0.000 A 
ATOM     27  N   UNL     1      -6.412  11.565  20.797  0.00  0.00    +0.000 NA
ATOM     28  N   UNL     1      -6.912  11.820  22.051  0.00  0.00    +0.000 NA
ATOM     29  C   UNL     1      -6.479  13.003  22.416  0.00  0.00    +0.000 A 
ATOM     30  N   UNL     1      -5.704  13.521  21.430  0.00  0.00    +0.000 N 
ATOM     31  C   UNL     1      -5.071  14.814  21.451  0.00  0.00    +0.000 C 
ATOM     32  H   UNL     1      -4.533  13.730  19.192  0.00  0.00    +0.000 HD
ENDBRANCH  24  25
ENDBRANCH   1  24
TORSDOF 5
ENDMDL
MODEL 5
REMARK VINA RESULT:      -8.4      3.571      8.474
REMARK  Name = 
REMARK  7 active torsions:
REMARK  status: ('A' for Active; 'I' for Inactive)
REMARK    1  A    between atoms: C_2  and  N_3
REMARK    2  A    between atoms: C_2  and  C_10
REMARK    3  A    between atoms: N_8  and  C_9
REMARK    4  A    between atoms: C_14  and  N_15
REMARK    5  A    between atoms: C_20  and  C_21
REMARK    6  A    between atoms: C_21  and  C_22
REMARK    7  A    between atoms: C_24  and  C_25
REMARK                            x       y       z     vdW  Elec       q    Type
REMARK                         _______ _______ _______ _____ _____    ______ ____
ROOT
ATOM      1  C   UNL     1       2.533   5.931  19.114  0.00  0.00    +0.000 A 
ATOM      2  C   UNL     1       2.285   6.601  17.899  0.00  0.00    +0.000 A 
ATOM      3  C   UNL     1       2.057   7.973  17.864  0.00  0.00    +0.000 A 
ATOM      4  C   UNL     1       1.906   8.670  19.052  0.00  0.00    +0.000 A 
ATOM      5  C   UNL     1       1.798   7.951  20.250  0.00  0.00    +0.000 A 
ATOM      6  C   UNL     1       2.301   6.643  20.302  0.00  0.00    +0.000 A 
ENDROOT
BRANCH   5   7
ATOM      7  N   UNL     1       0.735   8.308  21.189  0.00  0.00    +0.000 N 
ATOM      8  C   UNL     1      -0.523   8.592  20.450  0.00  0.00    +0.000 C 
ATOM      9  C   UNL     1      -0.408  10.065  20.185  0.00  0.00    +0.000 A 
ATOM     10  C   UNL     1       0.386  10.605  21.200  0.00  0.00    +0.000 A 
ATOM     11  C   UNL     1       0.846  11.911  21.185  0.00  0.00    +0.000 A 
ATOM     12  C   UNL     1       0.500  12.712  20.091  0.00  0.00    +0.000 A 
ATOM     13  C   UNL     1      -0.292  12.166  19.052  0.00  0.00    +0.000 A 
ATOM     14  C   UNL     1      -0.762  10.833  19.081  0.00  0.00    +0.000 A 
ATOM     15  C   UNL     1       0.982   9.477  21.957  0.00  0.00    +0.000 C 
ATOM     16  O   UNL     1       1.718   9.611  22.917  0.00  0.00    +0.000 OA
BRANCH  14  17
ATOM     17  C   UNL     1      -1.509  10.293  17.888  0.00  0.00    +0.000 C 
ATOM     18  F   UNL     1      -2.646   9.615  18.202  0.00  0.00    +0.000 F 
ATOM     19  F   UNL     1      -1.893  11.279  17.033  0.00  0.00    +0.000 F 
ATOM     20  F   UNL     1      -0.753   9.432  17.151  0.00  0.00    +0.000 F 
ENDBRANCH  14  17
BRANCH  12  21
ATOM     21  C   UNL     1       1.038  14.119  19.981  0.00  0.00    +0.000 C 
ATOM     22  C   UNL     1       1.772  14.377  18.675  0.00  0.00    +0.000 C 
ENDBRANCH  12  21
ENDBRANCH   5   7
BRANCH   1  24
ATOM     23  C   UNL     1       2.416   3.601  19.885  0.00  0.00    +0.000 C 
ATOM     24  C   UNL     1       3.017   4.519  19.103  0.00  0.00    +0.000 C 
BRANCH  24  25
ATOM     25  N   UNL     1       4.108   4.291  18.281  0.00  0.00    +0.000 N 
ATOM     26  C   UNL     1       5.416   4.572  18.478  0.00  0.00    +0.000 A 
ATOM     27  N   UNL     1       6.068   4.980  19.545  0.00  0.00    +0.000 NA
ATOM     28  N   UNL     1       7.389   5.155  19.211  0.00  0.00    +0.000 NA
ATOM     29  C   UNL     1       7.521   4.851  17.943  0.00  0.00    +0.000 A 
ATOM     30  N   UNL     1       6.316   4.476  17.444  0.00  0.00    +0.000 N 
ATOM     31  C   UNL     1       6.052   4.095  16.081  0.00  0.00    +0.000 C 
ATOM     32  H   UNL     1       3.825   4.015  17.348  0.00  0.00    +0.000 HD
ENDBRANCH  24  25
ENDBRANCH   1  24
TORSDOF 5
ENDMDL
MODEL 6
REMARK VINA RESULT:      -8.4      6.981      9.882
REMARK  Name = 
REMARK  7 active torsions:
REMARK  status: ('A' for Active; 'I' for Inactive)
REMARK    1  A    between atoms: C_2  and  N_3
REMARK    2  A    between atoms: C_2  and  C_10
REMARK    3  A    between atoms: N_8  and  C_9
REMARK    4  A    between atoms: C_14  and  N_15
REMARK    5  A    between atoms: C_20  and  C_21
REMARK    6  A    between atoms: C_21  and  C_22
REMARK    7  A    between atoms: C_24  and  C_25
REMARK                            x       y       z     vdW  Elec       q    Type
REMARK                         _______ _______ _______ _____ _____    ______ ____
ROOT
ATOM      1  C   UNL     1      -3.873  11.054  17.582  0.00  0.00    +0.000 A 
ATOM      2  C   UNL     1      -3.399  10.418  16.417  0.00  0.00    +0.000 A 
ATOM      3  C   UNL     1      -2.154   9.798  16.388  0.00  0.00    +0.000 A 
ATOM      4  C   UNL     1      -1.293   9.945  17.464  0.00  0.00    +0.000 A 
ATOM      5  C   UNL     1      -1.618  10.865  18.470  0.00  0.00    +0.000 A 
ATOM      6  C   UNL     1      -2.956  11.252  18.628  0.00  0.00    +0.000 A 
ENDROOT
BRANCH   5   7
ATOM      7  N   UNL     1      -0.585  11.790  18.934  0.00  0.00    +0.000 N 
ATOM      8  C   UNL     1       0.262  11.134  19.965  0.00  0.00    +0.000 C 
ATOM      9  C   UNL     1      -0.464  11.476  21.233  0.00  0.00    +0.000 A 
ATOM     10  C   UNL     1      -1.145  12.676  21.008  0.00  0.00    +0.000 A 
ATOM     11  C   UNL     1      -2.058  13.206  21.904  0.00  0.00    +0.000 A 
ATOM     12  C   UNL     1      -2.307  12.492  23.081  0.00  0.00    +0.000 A 
ATOM     13  C   UNL     1      -1.631  11.269  23.309  0.00  0.00    +0.000 A 
ATOM     14  C   UNL     1      -0.696  10.739  22.390  0.00  0.00    +0.000 A 
ATOM     15  C   UNL     1      -1.073  12.971  19.556  0.00  0.00    +0.000 C 
ATOM     16  O   UNL     1      -1.560  13.956  19.033  0.00  0.00    +0.000 OA
BRANCH  14  17
ATOM     17  C   UNL     1      -0.098   9.381  22.653  0.00  0.00    +0.000 C 
ATOM     18  F   UNL     1      -0.719   8.361  22.000  0.00  0.00    +0.000 F 
ATOM     19  F   UNL     1       1.209   9.314  22.280  0.00  0.00    +0.000 F 
ATOM     20  F   UNL     1      -0.127   9.051  23.975  0.00  0.00    +0.000 F 
ENDBRANCH  14  17
BRANCH  12  21
ATOM     21  C   UNL     1      -3.350  12.980  24.058  0.00  0.00    +0.000 C 
ATOM     22  C   UNL     1      -3.133  14.421  24.492  0.00  0.00    +0.000 C 
ENDBRANCH  12  21
ENDBRANCH   5   7
BRANCH   1  24
ATOM     23  C   UNL     1      -5.693  12.609  17.028  0.00  0.00    +0.000 C 
ATOM     24  C   UNL     1      -5.299  11.490  17.667  0.00  0.00    +0.000 C 
BRANCH  24  25
ATOM     25  N   UNL     1      -6.101  10.686  18.459  0.00  0.00    +0.000 N 
ATOM     26  C   UNL     1      -6.783  10.986  19.588  0.00  0.00    +0.000 A 
ATOM     27  N   UNL     1      -7.031  12.136  20.176  0.00  0.00    +0.000 NA
ATOM     28  N   UNL     1      -7.743  11.895  21.327  0.00  0.00    +0.000 NA
ATOM     29  C   UNL     1      -7.916  10.599  21.422  0.00  0.00    +0.000 A 
ATOM     30  N   UNL     1      -7.338   9.991  20.355  0.00  0.00    +0.000 N 
ATOM     31  C   UNL     1      -7.294   8.571  20.119  0.00  0.00    +0.000 C 
ATOM     32  H   UNL     1      -6.014   9.708  18.211  0.00  0.00    +0.000 HD
ENDBRANCH  24  25
ENDBRANCH   1  24
TORSDOF 5
ENDMDL
MODEL 7
REMARK VINA RESULT:      -8.4      6.738      9.565
REMARK  Name = 
REMARK  7 active torsions:
REMARK  status: ('A' for Active; 'I' for Inactive)
REMARK    1  A    between atoms: C_2  and  N_3
REMARK    2  A    between atoms: C_2  and  C_10
REMARK    3  A    between atoms: N_8  and  C_9
REMARK    4  A    between atoms: C_14  and  N_15
REMARK    5  A    between atoms: C_20  and  C_21
REMARK    6  A    between atoms: C_21  and  C_22
REMARK    7  A    between atoms: C_24  and  C_25
REMARK                            x       y       z     vdW  Elec       q    Type
REMARK                         _______ _______ _______ _____ _____    ______ ____
ROOT
ATOM      1  C   UNL     1      -3.993  11.480  17.759  0.00  0.00    +0.000 A 
ATOM      2  C   UNL     1      -3.916  10.788  16.534  0.00  0.00    +0.000 A 
ATOM      3  C   UNL     1      -2.883   9.894  16.273  0.00  0.00    +0.000 A 
ATOM      4  C   UNL     1      -1.821   9.802  17.158  0.00  0.00    +0.000 A 
ATOM      5  C   UNL     1      -1.718  10.741  18.194  0.00  0.00    +0.000 A 
ATOM      6  C   UNL     1      -2.871  11.426  18.602  0.00  0.00    +0.000 A 
ENDROOT
BRANCH   5   7
ATOM      7  N   UNL     1      -0.427  11.383  18.433  0.00  0.00    +0.000 N 
ATOM      8  C   UNL     1       0.359  10.597  19.420  0.00  0.00    +0.000 C 
ATOM      9  C   UNL     1      -0.068  11.210  20.722  0.00  0.00    +0.000 A 
ATOM     10  C   UNL     1      -0.440  12.530  20.454  0.00  0.00    +0.000 A 
ATOM     11  C   UNL     1      -1.049  13.348  21.390  0.00  0.00    +0.000 A 
ATOM     12  C   UNL     1      -1.305  12.811  22.658  0.00  0.00    +0.000 A 
ATOM     13  C   UNL     1      -0.943  11.470  22.931  0.00  0.00    +0.000 A 
ATOM     14  C   UNL     1      -0.316  10.645  21.969  0.00  0.00    +0.000 A 
ATOM     15  C   UNL     1      -0.501  12.692  18.981  0.00  0.00    +0.000 C 
ATOM     16  O   UNL     1      -0.786  13.733  18.419  0.00  0.00    +0.000 OA
BRANCH  14  17
ATOM     17  C   UNL     1      -0.058   9.197  22.300  0.00  0.00    +0.000 C 
ATOM     18  F   UNL     1      -0.167   8.899  23.623  0.00  0.00    +0.000 F 
ATOM     19  F   UNL     1      -0.922   8.362  21.662  0.00  0.00    +0.000 F 
ATOM     20  F   UNL     1       1.191   8.797  21.929  0.00  0.00    +0.000 F 
ENDBRANCH  14  17
BRANCH  12  21
ATOM     21  C   UNL     1      -2.038  13.630  23.694  0.00  0.00    +0.000 C 
ATOM     22  C   UNL     1      -1.577  15.078  23.745  0.00  0.00    +0.000 C 
ENDBRANCH  12  21
ENDBRANCH   5   7
BRANCH   1  24
ATOM     23  C   UNL     1      -6.073  12.631  17.138  0.00  0.00    +0.000 C 
ATOM     24  C   UNL     1      -5.232  12.236  18.113  0.00  0.00    +0.000 C 
BRANCH  24  25
ATOM     25  N   UNL     1      -5.379  12.500  19.464  0.00  0.00    +0.000 N 
ATOM     26  C   UNL     1      -6.273  12.005  20.350  0.00  0.00    +0.000 A 
ATOM     27  N   UNL     1      -7.145  11.024  20.254  0.00  0.00    +0.000 NA
ATOM     28  N   UNL     1      -7.846  10.943  21.433  0.00  0.00    +0.000 NA
ATOM     29  C   UNL     1      -7.389  11.879  22.231  0.00  0.00    +0.000 A 
ATOM     30  N   UNL     1      -6.402  12.564  21.599  0.00  0.00    +0.000 N 
ATOM     31  C   UNL     1      -5.676  13.683  22.141  0.00  0.00    +0.000 C 
ATOM     32  H   UNL     1      -4.821  13.293  19.756  0.00  0.00    +0.000 HD
ENDBRANCH  24  25
ENDBRANCH   1  24
TORSDOF 5
ENDMDL
MODEL 8
REMARK VINA RESULT:      -8.3      3.667      8.799
REMARK  Name = 
REMARK  7 active torsions:
REMARK  status: ('A' for Active; 'I' for Inactive)
REMARK    1  A    between atoms: C_2  and  N_3
REMARK    2  A    between atoms: C_2  and  C_10
REMARK    3  A    between atoms: N_8  and  C_9
REMARK    4  A    between atoms: C_14  and  N_15
REMARK    5  A    between atoms: C_20  and  C_21
REMARK    6  A    between atoms: C_21  and  C_22
REMARK    7  A    between atoms: C_24  and  C_25
REMARK                            x       y       z     vdW  Elec       q    Type
REMARK                         _______ _______ _______ _____ _____    ______ ____
ROOT
ATOM      1  C   UNL     1       2.347   6.752  19.423  0.00  0.00    +0.000 A 
ATOM      2  C   UNL     1       2.242   7.288  18.123  0.00  0.00    +0.000 A 
ATOM      3  C   UNL     1       1.915   8.624  17.917  0.00  0.00    +0.000 A 
ATOM      4  C   UNL     1       1.525   9.404  18.993  0.00  0.00    +0.000 A 
ATOM      5  C   UNL     1       1.287   8.786  20.228  0.00  0.00    +0.000 A 
ATOM      6  C   UNL     1       1.876   7.540  20.486  0.00  0.00    +0.000 A 
ENDROOT
BRANCH   5   7
ATOM      7  N   UNL     1       0.065   9.122  20.957  0.00  0.00    +0.000 N 
ATOM      8  C   UNL     1      -1.103   9.091  20.037  0.00  0.00    +0.000 C 
ATOM      9  C   UNL     1      -1.142  10.503  19.530  0.00  0.00    +0.000 A 
ATOM     10  C   UNL     1      -0.577  11.312  20.519  0.00  0.00    +0.000 A 
ATOM     11  C   UNL     1      -0.292  12.653  20.326  0.00  0.00    +0.000 A 
ATOM     12  C   UNL     1      -0.581  13.208  19.073  0.00  0.00    +0.000 A 
ATOM     13  C   UNL     1      -1.141  12.390  18.063  0.00  0.00    +0.000 A 
ATOM     14  C   UNL     1      -1.434  11.022  18.273  0.00  0.00    +0.000 A 
ATOM     15  C   UNL     1       0.047  10.423  21.529  0.00  0.00    +0.000 C 
ATOM     16  O   UNL     1       0.617  10.818  22.529  0.00  0.00    +0.000 OA
BRANCH  14  17
ATOM     17  C   UNL     1      -1.929  10.192  17.117  0.00  0.00    +0.000 C 
ATOM     18  F   UNL     1      -1.050   9.244  16.692  0.00  0.00    +0.000 F 
ATOM     19  F   UNL     1      -3.075   9.523  17.418  0.00  0.00    +0.000 F 
ATOM     20  F   UNL     1      -2.218  10.951  16.022  0.00  0.00    +0.000 F 
ENDBRANCH  14  17
BRANCH  12  21
ATOM     21  C   UNL     1      -0.220  14.645  18.779  0.00  0.00    +0.000 C 
ATOM     22  C   UNL     1      -0.751  15.619  19.818  0.00  0.00    +0.000 C 
ENDBRANCH  12  21
ENDBRANCH   5   7
BRANCH   1  24
ATOM     23  C   UNL     1       2.603   4.679  20.717  0.00  0.00    +0.000 C 
ATOM     24  C   UNL     1       2.937   5.395  19.626  0.00  0.00    +0.000 C 
BRANCH  24  25
ATOM     25  N   UNL     1       3.836   5.006  18.647  0.00  0.00    +0.000 N 
ATOM     26  C   UNL     1       5.189   5.004  18.665  0.00  0.00    +0.000 A 
ATOM     27  N   UNL     1       6.048   5.201  19.641  0.00  0.00    +0.000 NA
ATOM     28  N   UNL     1       7.320   5.127  19.127  0.00  0.00    +0.000 NA
ATOM     29  C   UNL     1       7.215   4.886  17.843  0.00  0.00    +0.000 A 
ATOM     30  N   UNL     1       5.903   4.796  17.510  0.00  0.00    +0.000 N 
ATOM     31  C   UNL     1       5.386   4.567  16.185  0.00  0.00    +0.000 C 
ATOM     32  H   UNL     1       3.380   4.855  17.756  0.00  0.00    +0.000 HD
ENDBRANCH  24  25
ENDBRANCH   1  24
TORSDOF 5
ENDMDL
MODEL 9
REMARK VINA RESULT:      -8.2      5.414     10.714
REMARK  Name = 
REMARK  7 active torsions:
REMARK  status: ('A' for Active; 'I' for Inactive)
REMARK    1  A    between atoms: C_2  and  N_3
REMARK    2  A    between atoms: C_2  and  C_10
REMARK    3  A    between atoms: N_8  and  C_9
REMARK    4  A    between atoms: C_14  and  N_15
REMARK    5  A    between atoms: C_20  and  C_21
REMARK    6  A    between atoms: C_21  and  C_22
REMARK    7  A    between atoms: C_24  and  C_25
REMARK                            x       y       z     vdW  Elec       q    Type
REMARK                         _______ _______ _______ _____ _____    ______ ____
ROOT
ATOM      1  C   UNL     1       0.873   9.166  20.700  0.00  0.00    +0.000 A 
ATOM      2  C   UNL     1       1.065   8.975  22.083  0.00  0.00    +0.000 A 
ATOM      3  C   UNL     1       0.218   9.563  23.017  0.00  0.00    +0.000 A 
ATOM      4  C   UNL     1      -0.728  10.483  22.597  0.00  0.00    +0.000 A 
ATOM      5  C   UNL     1      -0.687  10.941  21.272  0.00  0.00    +0.000 A 
ATOM      6  C   UNL     1      -0.041  10.157  20.306  0.00  0.00    +0.000 A 
ENDROOT
BRANCH   5   7
ATOM      7  N   UNL     1      -0.789  12.378  21.023  0.00  0.00    +0.000 N 
ATOM      8  C   UNL     1      -1.472  13.046  22.162  0.00  0.00    +0.000 C 
ATOM      9  C   UNL     1      -2.913  12.978  21.749  0.00  0.00    +0.000 A 
ATOM     10  C   UNL     1      -2.940  12.945  20.352  0.00  0.00    +0.000 A 
ATOM     11  C   UNL     1      -4.095  12.711  19.625  0.00  0.00    +0.000 A 
ATOM     12  C   UNL     1      -5.281  12.490  20.335  0.00  0.00    +0.000 A 
ATOM     13  C   UNL     1      -5.257  12.509  21.751  0.00  0.00    +0.000 A 
ATOM     14  C   UNL     1      -4.073  12.755  22.484  0.00  0.00    +0.000 A 
ATOM     15  C   UNL     1      -1.551  12.734  19.878  0.00  0.00    +0.000 C 
ATOM     16  O   UNL     1      -1.231  12.669  18.706  0.00  0.00    +0.000 OA
BRANCH  14  17
ATOM     17  C   UNL     1      -4.107  12.654  23.987  0.00  0.00    +0.000 C 
ATOM     18  F   UNL     1      -3.556  13.718  24.631  0.00  0.00    +0.000 F 
ATOM     19  F   UNL     1      -5.376  12.550  24.467  0.00  0.00    +0.000 F 
ATOM     20  F   UNL     1      -3.443  11.555  24.446  0.00  0.00    +0.000 F 
ENDBRANCH  14  17
BRANCH  12  21
ATOM     21  C   UNL     1      -6.554  12.151  19.598  0.00  0.00    +0.000 C 
ATOM     22  C   UNL     1      -7.477  11.238  20.389  0.00  0.00    +0.000 C 
ENDBRANCH  12  21
ENDBRANCH   5   7
BRANCH   1  24
ATOM     23  C   UNL     1       1.850   8.802  18.475  0.00  0.00    +0.000 C 
ATOM     24  C   UNL     1       1.632   8.333  19.719  0.00  0.00    +0.000 C 
BRANCH  24  25
ATOM     25  N   UNL     1       2.021   7.093  20.196  0.00  0.00    +0.000 N 
ATOM     26  C   UNL     1       2.855   6.178  19.652  0.00  0.00    +0.000 A 
ATOM     27  N   UNL     1       3.666   6.244  18.618  0.00  0.00    +0.000 NA
ATOM     28  N   UNL     1       4.271   5.021  18.457  0.00  0.00    +0.000 NA
ATOM     29  C   UNL     1       3.817   4.227  19.397  0.00  0.00    +0.000 A 
ATOM     30  N   UNL     1       2.934   4.908  20.171  0.00  0.00    +0.000 N 
ATOM     31  C   UNL     1       2.205   4.368  21.288  0.00  0.00    +0.000 C 
ATOM     32  H   UNL     1       1.462   6.803  20.989  0.00  0.00    +0.000 HD
ENDBRANCH  24  25
ENDBRANCH   1  24
TORSDOF 5
ENDMDL
