MODEL 1
REMARK VINA RESULT:      -8.5      0.000      0.000
REMARK  Name = 
REMARK  7 active torsions:
REMARK  status: ('A' for Active; 'I' for Inactive)
REMARK    1  A    between atoms: C_1  and  C_2
REMARK    2  A    between atoms: N_4  and  C_5
REMARK    3  A    between atoms: C_9  and  C_10
REMARK    4  A    between atoms: C_10  and  C_11
REMARK    5  A    between atoms: C_10  and  N_12
REMARK    6  A    between atoms: C_13  and  C_15
REMARK    7  A    between atoms: C_19  and  C_20
REMARK                            x       y       z     vdW  Elec       q    Type
REMARK                         _______ _______ _______ _____ _____    ______ ____
ROOT
ATOM      1  N   UNL     1       5.337   4.358  16.783  0.00  0.00    +0.000 N 
ATOM      2  C   UNL     1       5.117   3.879  18.059  0.00  0.00    +0.000 C 
ATOM      3  O   UNL     1       5.959   3.943  18.947  0.00  0.00    +0.000 OA
ATOM      4  H   UNL     1       4.607   4.276  16.092  0.00  0.00    +0.000 HD
ENDROOT
BRANCH   2   5
ATOM      5  C   UNL     1       3.800   3.293  18.265  0.00  0.00    +0.000 A 
ATOM      6  C   UNL     1       3.448   1.973  18.040  0.00  0.00    +0.000 A 
ATOM      7  N   UNL     1       2.116   1.886  18.292  0.00  0.00    +0.000 N 
ATOM      8  N   UNL     1       1.564   3.041  18.672  0.00  0.00    +0.000 NA
ATOM      9  C   UNL     1       2.578   3.928  18.670  0.00  0.00    +0.000 A 
ATOM     10  H   UNL     1       1.513   1.072  18.212  0.00  0.00    +0.000 HD
BRANCH   9  11
ATOM     11  C   UNL     1       2.322   5.325  19.035  0.00  0.00    +0.000 A 
ATOM     12  C   UNL     1       2.461   6.337  18.069  0.00  0.00    +0.000 A 
ATOM     13  C   UNL     1       2.255   7.681  18.398  0.00  0.00    +0.000 A 
ATOM     14  C   UNL     1       1.912   8.035  19.702  0.00  0.00    +0.000 A 
ATOM     15  C   UNL     1       1.741   7.040  20.663  0.00  0.00    +0.000 A 
ATOM     16  C   UNL     1       1.922   5.699  20.322  0.00  0.00    +0.000 A 
ATOM     17  F   UNL     1       1.659   4.777  21.261  0.00  0.00    +0.000 F 
ENDBRANCH   9  11
ENDBRANCH   2   5
BRANCH   1  18
ATOM     18  C   UNL     1       6.618   4.926  16.397  0.00  0.00    +0.000 C 
ATOM     19  C   UNL     1       6.721   6.386  16.848  0.00  0.00    +0.000 C 
BRANCH  18  24
ATOM     20  C   UNL     1       6.512   3.527  12.814  0.00  0.00    +0.000 A 
ATOM     21  C   UNL     1       7.298   4.465  12.145  0.00  0.00    +0.000 A 
ATOM     22  C   UNL     1       7.861   5.542  12.828  0.00  0.00    +0.000 A 
ATOM     23  C   UNL     1       7.646   5.694  14.196  0.00  0.00    +0.000 A 
ATOM     24  C   UNL     1       6.842   4.782  14.902  0.00  0.00    +0.000 A 
ATOM     25  C   UNL     1       6.262   3.711  14.185  0.00  0.00    +0.000 A 
BRANCH  20  29
ATOM     26  C   UNL     1       5.734   0.444  10.769  0.00  0.00    +0.000 C 
ATOM     27  C   UNL     1       6.623   1.532  11.314  0.00  0.00    +0.000 C 
ATOM     28  O   UNL     1       7.806   1.582  10.992  0.00  0.00    +0.000 OA
ATOM     29  N   UNL     1       5.960   2.392  12.176  0.00  0.00    +0.000 N 
ATOM     30  H   UNL     1       5.021   2.131  12.452  0.00  0.00    +0.000 HD
ENDBRANCH  20  29
ENDBRANCH  18  24
ENDBRANCH   1  18
TORSDOF 5
ENDMDL
MODEL 2
REMARK VINA RESULT:      -8.3      1.901      2.579
REMARK  Name = 
REMARK  7 active torsions:
REMARK  status: ('A' for Active; 'I' for Inactive)
REMARK    1  A    between atoms: C_1  and  C_2
REMARK    2  A    between atoms: N_4  and  C_5
REMARK    3  A    between atoms: C_9  and  C_10
REMARK    4  A    between atoms: C_10  and  C_11
REMARK    5  A    between atoms: C_10  and  N_12
REMARK    6  A    between atoms: C_13  and  C_15
REMARK    7  A    between atoms: C_19  and  C_20
REMARK                            x       y       z     vdW  Elec       q    Type
REMARK                         _______ _______ _______ _____ _____    ______ ____
ROOT
ATOM      1  N   UNL     1       5.470   4.445  19.369  0.00  0.00    +0.000 N 
ATOM      2  C   UNL     1       4.533   3.438  19.250  0.00  0.00    +0.000 C 
ATOM      3  O   UNL     1       4.617   2.547  18.413  0.00  0.00    +0.000 OA
ATOM      4  H   UNL     1       5.347   5.153  20.077  0.00  0.00    +0.000 HD
ENDROOT
BRANCH   2   5
ATOM      5  C   UNL     1       3.435   3.520  20.203  0.00  0.00    +0.000 A 
ATOM      6  C   UNL     1       3.082   2.554  21.129  0.00  0.00    +0.000 A 
ATOM      7  N   UNL     1       1.966   3.014  21.753  0.00  0.00    +0.000 N 
ATOM      8  N   UNL     1       1.560   4.209  21.317  0.00  0.00    +0.000 NA
ATOM      9  C   UNL     1       2.448   4.551  20.363  0.00  0.00    +0.000 A 
ATOM     10  H   UNL     1       1.419   2.559  22.478  0.00  0.00    +0.000 HD
BRANCH   9  11
ATOM     11  C   UNL     1       2.296   5.825  19.652  0.00  0.00    +0.000 A 
ATOM     12  C   UNL     1       2.118   7.014  20.380  0.00  0.00    +0.000 A 
ATOM     13  C   UNL     1       1.938   8.238  19.728  0.00  0.00    +0.000 A 
ATOM     14  C   UNL     1       1.928   8.291  18.335  0.00  0.00    +0.000 A 
ATOM     15  C   UNL     1       2.133   7.125  17.600  0.00  0.00    +0.000 A 
ATOM     16  C   UNL     1       2.338   5.911  18.258  0.00  0.00    +0.000 A 
ATOM     17  F   UNL     1       2.619   4.835  17.505  0.00  0.00    +0.000 F 
ENDBRANCH   9  11
ENDBRANCH   2   5
BRANCH   1  18
ATOM     18  C   UNL     1       6.600   4.540  18.460  0.00  0.00    +0.000 C 
ATOM     19  C   UNL     1       7.656   5.505  19.009  0.00  0.00    +0.000 C 
BRANCH  18  24
ATOM     20  C   UNL     1       5.889   4.416  14.681  0.00  0.00    +0.000 A 
ATOM     21  C   UNL     1       5.353   5.687  14.475  0.00  0.00    +0.000 A 
ATOM     22  C   UNL     1       5.215   6.584  15.533  0.00  0.00    +0.000 A 
ATOM     23  C   UNL     1       5.615   6.220  16.817  0.00  0.00    +0.000 A 
ATOM     24  C   UNL     1       6.141   4.941  17.069  0.00  0.00    +0.000 A 
ATOM     25  C   UNL     1       6.250   4.039  15.986  0.00  0.00    +0.000 A 
BRANCH  20  29
ATOM     26  C   UNL     1       6.815   2.528  11.539  0.00  0.00    +0.000 C 
ATOM     27  C   UNL     1       6.831   3.707  12.478  0.00  0.00    +0.000 C 
ATOM     28  O   UNL     1       7.462   4.718  12.188  0.00  0.00    +0.000 OA
ATOM     29  N   UNL     1       6.094   3.489  13.632  0.00  0.00    +0.000 N 
ATOM     30  H   UNL     1       5.751   2.549  13.787  0.00  0.00    +0.000 HD
ENDBRANCH  20  29
ENDBRANCH  18  24
ENDBRANCH   1  18
TORSDOF 5
ENDMDL
MODEL 3
REMARK VINA RESULT:      -8.3      1.355      1.361
REMARK  Name = 
REMARK  7 active torsions:
REMARK  status: ('A' for Active; 'I' for Inactive)
REMARK    1  A    between atoms: C_1  and  C_2
REMARK    2  A    between atoms: N_4  and  C_5
REMARK    3  A    between atoms: C_9  and  C_10
REMARK    4  A    between atoms: C_10  and  C_11
REMARK    5  A    between atoms: C_10  and  N_12
REMARK    6  A    between atoms: C_13  and  C_15
REMARK    7  A    between atoms: C_19  and  C_20
REMARK                            x       y       z     vdW  Elec       q    Type
REMARK                         _______ _______ _______ _____ _____    ______ ____
ROOT
ATOM      1  N   UNL     1       5.202   4.171  16.599  0.00  0.00    +0.000 N 
ATOM      2  C   UNL     1       4.994   3.774  17.905  0.00  0.00    +0.000 C 
ATOM      3  O   UNL     1       5.846   3.890  18.779  0.00  0.00    +0.000 OA
ATOM      4  H   UNL     1       4.464   4.048  15.922  0.00  0.00    +0.000 HD
ENDROOT
BRANCH   2   5
ATOM      5  C   UNL     1       3.678   3.206  18.161  0.00  0.00    +0.000 A 
ATOM      6  C   UNL     1       3.293   1.897  17.932  0.00  0.00    +0.000 A 
ATOM      7  N   UNL     1       1.972   1.827  18.243  0.00  0.00    +0.000 N 
ATOM      8  N   UNL     1       1.458   2.985  18.666  0.00  0.00    +0.000 NA
ATOM      9  C   UNL     1       2.487   3.855  18.632  0.00  0.00    +0.000 A 
ATOM     10  H   UNL     1       1.352   1.026  18.177  0.00  0.00    +0.000 HD
BRANCH   9  11
ATOM     11  C   UNL     1       2.272   5.250  19.031  0.00  0.00    +0.000 A 
ATOM     12  C   UNL     1       2.485   6.283  18.102  0.00  0.00    +0.000 A 
ATOM     13  C   UNL     1       2.320   7.624  18.466  0.00  0.00    +0.000 A 
ATOM     14  C   UNL     1       1.944   7.952  19.767  0.00  0.00    +0.000 A 
ATOM     15  C   UNL     1       1.699   6.937  20.690  0.00  0.00    +0.000 A 
ATOM     16  C   UNL     1       1.840   5.601  20.314  0.00  0.00    +0.000 A 
ATOM     17  F   UNL     1       1.508   4.662  21.214  0.00  0.00    +0.000 F 
ENDBRANCH   9  11
ENDBRANCH   2   5
BRANCH   1  18
ATOM     18  C   UNL     1       6.480   4.708  16.165  0.00  0.00    +0.000 C 
ATOM     19  C   UNL     1       6.646   6.158  16.634  0.00  0.00    +0.000 C 
BRANCH  18  24
ATOM     20  C   UNL     1       5.861   3.666  12.513  0.00  0.00    +0.000 A 
ATOM     21  C   UNL     1       6.935   4.293  11.878  0.00  0.00    +0.000 A 
ATOM     22  C   UNL     1       7.853   5.046  12.606  0.00  0.00    +0.000 A 
ATOM     23  C   UNL     1       7.712   5.182  13.985  0.00  0.00    +0.000 A 
ATOM     24  C   UNL     1       6.633   4.584  14.658  0.00  0.00    +0.000 A 
ATOM     25  C   UNL     1       5.699   3.845  13.897  0.00  0.00    +0.000 A 
BRANCH  20  29
ATOM     26  C   UNL     1       3.072   2.169  10.447  0.00  0.00    +0.000 C 
ATOM     27  C   UNL     1       3.918   3.293  10.988  0.00  0.00    +0.000 C 
ATOM     28  O   UNL     1       3.681   4.453  10.667  0.00  0.00    +0.000 OA
ATOM     29  N   UNL     1       4.931   2.852  11.826  0.00  0.00    +0.000 N 
ATOM     30  H   UNL     1       5.083   1.852  11.875  0.00  0.00    +0.000 HD
ENDBRANCH  20  29
ENDBRANCH  18  24
ENDBRANCH   1  18
TORSDOF 5
ENDMDL
MODEL 4
REMARK VINA RESULT:      -8.2      3.799      8.798
REMARK  Name = 
REMARK  7 active torsions:
REMARK  status: ('A' for Active; 'I' for Inactive)
REMARK    1  A    between atoms: C_1  and  C_2
REMARK    2  A    between atoms: N_4  and  C_5
REMARK    3  A    between atoms: C_9  and  C_10
REMARK    4  A    between atoms: C_10  and  C_11
REMARK    5  A    between atoms: C_10  and  N_12
REMARK    6  A    between atoms: C_13  and  C_15
REMARK    7  A    between atoms: C_19  and  C_20
REMARK                            x       y       z     vdW  Elec       q    Type
REMARK                         _______ _______ _______ _____ _____    ______ ____
ROOT
ATOM      1  N   UNL     1       2.647   6.477  19.051  0.00  0.00    +0.000 N 
ATOM      2  C   UNL     1       2.283   5.210  18.642  0.00  0.00    +0.000 C 
ATOM      3  O   UNL     1       1.406   5.007  17.810  0.00  0.00    +0.000 OA
ATOM      4  H   UNL     1       3.375   6.583  19.741  0.00  0.00    +0.000 HD
ENDROOT
BRANCH   2   5
ATOM      5  C   UNL     1       3.027   4.133  19.279  0.00  0.00    +0.000 A 
ATOM      6  C   UNL     1       2.619   3.392  20.374  0.00  0.00    +0.000 A 
ATOM      7  N   UNL     1       3.645   2.553  20.672  0.00  0.00    +0.000 N 
ATOM      8  N   UNL     1       4.694   2.676  19.855  0.00  0.00    +0.000 NA
ATOM      9  C   UNL     1       4.343   3.640  18.981  0.00  0.00    +0.000 A 
ATOM     10  H   UNL     1       3.705   1.877  21.428  0.00  0.00    +0.000 HD
BRANCH   9  11
ATOM     11  C   UNL     1       5.282   4.045  17.930  0.00  0.00    +0.000 A 
ATOM     12  C   UNL     1       5.017   3.710  16.590  0.00  0.00    +0.000 A 
ATOM     13  C   UNL     1       5.912   4.054  15.571  0.00  0.00    +0.000 A 
ATOM     14  C   UNL     1       7.089   4.735  15.878  0.00  0.00    +0.000 A 
ATOM     15  C   UNL     1       7.350   5.101  17.197  0.00  0.00    +0.000 A 
ATOM     16  C   UNL     1       6.440   4.777  18.205  0.00  0.00    +0.000 A 
ATOM     17  F   UNL     1       6.696   5.229  19.443  0.00  0.00    +0.000 F 
ENDBRANCH   9  11
ENDBRANCH   2   5
BRANCH   1  18
ATOM     18  C   UNL     1       1.967   7.660  18.553  0.00  0.00    +0.000 C 
ATOM     19  C   UNL     1       2.884   8.462  17.623  0.00  0.00    +0.000 C 
BRANCH  18  24
ATOM     20  C   UNL     1       0.627  10.666  20.547  0.00  0.00    +0.000 A 
ATOM     21  C   UNL     1       0.548  10.114  21.827  0.00  0.00    +0.000 A 
ATOM     22  C   UNL     1       0.918   8.791  22.058  0.00  0.00    +0.000 A 
ATOM     23  C   UNL     1       1.375   7.997  21.008  0.00  0.00    +0.000 A 
ATOM     24  C   UNL     1       1.449   8.509  19.702  0.00  0.00    +0.000 A 
ATOM     25  C   UNL     1       1.047   9.846  19.485  0.00  0.00    +0.000 A 
BRANCH  20  29
ATOM     26  C   UNL     1       0.415  14.427  20.234  0.00  0.00    +0.000 C 
ATOM     27  C   UNL     1       1.054  13.126  20.646  0.00  0.00    +0.000 C 
ATOM     28  O   UNL     1       2.126  13.125  21.240  0.00  0.00    +0.000 OA
ATOM     29  N   UNL     1       0.311  12.016  20.272  0.00  0.00    +0.000 N 
ATOM     30  H   UNL     1      -0.481  12.178  19.661  0.00  0.00    +0.000 HD
ENDBRANCH  20  29
ENDBRANCH  18  24
ENDBRANCH   1  18
TORSDOF 5
ENDMDL
MODEL 5
REMARK VINA RESULT:      -8.2      4.099      8.758
REMARK  Name = 
REMARK  7 active torsions:
REMARK  status: ('A' for Active; 'I' for Inactive)
REMARK    1  A    between atoms: C_1  and  C_2
REMARK    2  A    between atoms: N_4  and  C_5
REMARK    3  A    between atoms: C_9  and  C_10
REMARK    4  A    between atoms: C_10  and  C_11
REMARK    5  A    between atoms: C_10  and  N_12
REMARK    6  A    between atoms: C_13  and  C_15
REMARK    7  A    between atoms: C_19  and  C_20
REMARK                            x       y       z     vdW  Elec       q    Type
REMARK                         _______ _______ _______ _____ _____    ______ ____
ROOT
ATOM      1  N   UNL     1       2.710   6.501  18.967  0.00  0.00    +0.000 N 
ATOM      2  C   UNL     1       2.407   5.222  18.543  0.00  0.00    +0.000 C 
ATOM      3  O   UNL     1       1.518   4.984  17.734  0.00  0.00    +0.000 OA
ATOM      4  H   UNL     1       3.451   6.636  19.637  0.00  0.00    +0.000 HD
ENDROOT
BRANCH   2   5
ATOM      5  C   UNL     1       3.232   4.179  19.135  0.00  0.00    +0.000 A 
ATOM      6  C   UNL     1       2.781   3.104  19.882  0.00  0.00    +0.000 A 
ATOM      7  N   UNL     1       3.889   2.432  20.291  0.00  0.00    +0.000 N 
ATOM      8  N   UNL     1       5.033   2.974  19.866  0.00  0.00    +0.000 NA
ATOM      9  C   UNL     1       4.662   4.051  19.147  0.00  0.00    +0.000 A 
ATOM     10  H   UNL     1       3.941   1.602  20.873  0.00  0.00    +0.000 HD
BRANCH   9  11
ATOM     11  C   UNL     1       5.686   4.900  18.530  0.00  0.00    +0.000 A 
ATOM     12  C   UNL     1       6.735   5.412  19.314  0.00  0.00    +0.000 A 
ATOM     13  C   UNL     1       7.707   6.251  18.758  0.00  0.00    +0.000 A 
ATOM     14  C   UNL     1       7.641   6.596  17.410  0.00  0.00    +0.000 A 
ATOM     15  C   UNL     1       6.625   6.072  16.613  0.00  0.00    +0.000 A 
ATOM     16  C   UNL     1       5.674   5.215  17.167  0.00  0.00    +0.000 A 
ATOM     17  F   UNL     1       4.769   4.669  16.339  0.00  0.00    +0.000 F 
ENDBRANCH   9  11
ENDBRANCH   2   5
BRANCH   1  18
ATOM     18  C   UNL     1       1.946   7.651  18.514  0.00  0.00    +0.000 C 
ATOM     19  C   UNL     1       2.779   8.511  17.557  0.00  0.00    +0.000 C 
BRANCH  18  24
ATOM     20  C   UNL     1       0.594  10.577  20.615  0.00  0.00    +0.000 A 
ATOM     21  C   UNL     1       0.542   9.987  21.879  0.00  0.00    +0.000 A 
ATOM     22  C   UNL     1       0.935   8.663  22.066  0.00  0.00    +0.000 A 
ATOM     23  C   UNL     1       1.387   7.907  20.987  0.00  0.00    +0.000 A 
ATOM     24  C   UNL     1       1.434   8.458  19.694  0.00  0.00    +0.000 A 
ATOM     25  C   UNL     1       1.010   9.795  19.523  0.00  0.00    +0.000 A 
BRANCH  20  29
ATOM     26  C   UNL     1       0.355  14.341  20.362  0.00  0.00    +0.000 C 
ATOM     27  C   UNL     1       1.028  13.036  20.700  0.00  0.00    +0.000 C 
ATOM     28  O   UNL     1       2.151  13.030  21.193  0.00  0.00    +0.000 OA
ATOM     29  N   UNL     1       0.254  11.929  20.384  0.00  0.00    +0.000 N 
ATOM     30  H   UNL     1      -0.591  12.098  19.851  0.00  0.00    +0.000 HD
ENDBRANCH  20  29
ENDBRANCH  18  24
ENDBRANCH   1  18
TORSDOF 5
ENDMDL
MODEL 6
REMARK VINA RESULT:      -8.1      3.885      8.754
REMARK  Name = 
REMARK  7 active torsions:
REMARK  status: ('A' for Active; 'I' for Inactive)
REMARK    1  A    between atoms: C_1  and  C_2
REMARK    2  A    between atoms: N_4  and  C_5
REMARK    3  A    between atoms: C_9  and  C_10
REMARK    4  A    between atoms: C_10  and  C_11
REMARK    5  A    between atoms: C_10  and  N_12
REMARK    6  A    between atoms: C_13  and  C_15
REMARK    7  A    between atoms: C_19  and  C_20
REMARK                            x       y       z     vdW  Elec       q    Type
REMARK                         _______ _______ _______ _____ _____    ______ ____
ROOT
ATOM      1  N   UNL     1       2.676   6.463  19.033  0.00  0.00    +0.000 N 
ATOM      2  C   UNL     1       2.297   5.196  18.636  0.00  0.00    +0.000 C 
ATOM      3  O   UNL     1       1.412   4.994  17.814  0.00  0.00    +0.000 OA
ATOM      4  H   UNL     1       3.411   6.568  19.715  0.00  0.00    +0.000 HD
ENDROOT
BRANCH   2   5
ATOM      5  C   UNL     1       3.038   4.117  19.274  0.00  0.00    +0.000 A 
ATOM      6  C   UNL     1       2.627   3.378  20.370  0.00  0.00    +0.000 A 
ATOM      7  N   UNL     1       3.651   2.537  20.669  0.00  0.00    +0.000 N 
ATOM      8  N   UNL     1       4.701   2.658  19.852  0.00  0.00    +0.000 NA
ATOM      9  C   UNL     1       4.353   3.622  18.978  0.00  0.00    +0.000 A 
ATOM     10  H   UNL     1       3.710   1.861  21.425  0.00  0.00    +0.000 HD
BRANCH   9  11
ATOM     11  C   UNL     1       5.294   4.024  17.927  0.00  0.00    +0.000 A 
ATOM     12  C   UNL     1       5.030   3.689  16.587  0.00  0.00    +0.000 A 
ATOM     13  C   UNL     1       5.926   4.031  15.569  0.00  0.00    +0.000 A 
ATOM     14  C   UNL     1       7.104   4.709  15.876  0.00  0.00    +0.000 A 
ATOM     15  C   UNL     1       7.365   5.074  17.196  0.00  0.00    +0.000 A 
ATOM     16  C   UNL     1       6.455   4.753  18.203  0.00  0.00    +0.000 A 
ATOM     17  F   UNL     1       6.711   5.204  19.441  0.00  0.00    +0.000 F 
ENDBRANCH   9  11
ENDBRANCH   2   5
BRANCH   1  18
ATOM     18  C   UNL     1       2.000   7.648  18.532  0.00  0.00    +0.000 C 
ATOM     19  C   UNL     1       2.924   8.448  17.608  0.00  0.00    +0.000 C 
BRANCH  18  24
ATOM     20  C   UNL     1       0.670  10.658  20.525  0.00  0.00    +0.000 A 
ATOM     21  C   UNL     1       0.569  10.101  21.801  0.00  0.00    +0.000 A 
ATOM     22  C   UNL     1       0.920   8.772  22.029  0.00  0.00    +0.000 A 
ATOM     23  C   UNL     1       1.382   7.979  20.981  0.00  0.00    +0.000 A 
ATOM     24  C   UNL     1       1.478   8.497  19.678  0.00  0.00    +0.000 A 
ATOM     25  C   UNL     1       1.094   9.840  19.464  0.00  0.00    +0.000 A 
BRANCH  20  29
ATOM     26  C   UNL     1      -0.798  13.996  19.529  0.00  0.00    +0.000 C 
ATOM     27  C   UNL     1      -0.822  12.505  19.746  0.00  0.00    +0.000 C 
ATOM     28  O   UNL     1      -1.832  11.859  19.489  0.00  0.00    +0.000 OA
ATOM     29  N   UNL     1       0.372  12.013  20.253  0.00  0.00    +0.000 N 
ATOM     30  H   UNL     1       1.061  12.695  20.547  0.00  0.00    +0.000 HD
ENDBRANCH  20  29
ENDBRANCH  18  24
ENDBRANCH   1  18
TORSDOF 5
ENDMDL
MODEL 7
REMARK VINA RESULT:      -8.1      1.596      1.848
REMARK  Name = 
REMARK  7 active torsions:
REMARK  status: ('A' for Active; 'I' for Inactive)
REMARK    1  A    between atoms: C_1  and  C_2
REMARK    2  A    between atoms: N_4  and  C_5
REMARK    3  A    between atoms: C_9  and  C_10
REMARK    4  A    between atoms: C_10  and  C_11
REMARK    5  A    between atoms: C_10  and  N_12
REMARK    6  A    between atoms: C_13  and  C_15
REMARK    7  A    between atoms: C_19  and  C_20
REMARK                            x       y       z     vdW  Elec       q    Type
REMARK                         _______ _______ _______ _____ _____    ______ ____
ROOT
ATOM      1  N   UNL     1       5.255   4.125  16.670  0.00  0.00    +0.000 N 
ATOM      2  C   UNL     1       5.007   3.811  17.991  0.00  0.00    +0.000 C 
ATOM      3  O   UNL     1       5.824   4.002  18.884  0.00  0.00    +0.000 OA
ATOM      4  H   UNL     1       4.545   3.944  15.977  0.00  0.00    +0.000 HD
ENDROOT
BRANCH   2   5
ATOM      5  C   UNL     1       3.693   3.236  18.238  0.00  0.00    +0.000 A 
ATOM      6  C   UNL     1       3.302   1.938  17.960  0.00  0.00    +0.000 A 
ATOM      7  N   UNL     1       1.985   1.858  18.282  0.00  0.00    +0.000 N 
ATOM      8  N   UNL     1       1.478   2.999  18.757  0.00  0.00    +0.000 NA
ATOM      9  C   UNL     1       2.508   3.868  18.747  0.00  0.00    +0.000 A 
ATOM     10  H   UNL     1       1.362   1.061  18.191  0.00  0.00    +0.000 HD
BRANCH   9  11
ATOM     11  C   UNL     1       2.300   5.246  19.204  0.00  0.00    +0.000 A 
ATOM     12  C   UNL     1       1.815   5.486  20.501  0.00  0.00    +0.000 A 
ATOM     13  C   UNL     1       1.576   6.789  20.951  0.00  0.00    +0.000 A 
ATOM     14  C   UNL     1       1.815   7.873  20.108  0.00  0.00    +0.000 A 
ATOM     15  C   UNL     1       2.325   7.652  18.830  0.00  0.00    +0.000 A 
ATOM     16  C   UNL     1       2.585   6.351  18.396  0.00  0.00    +0.000 A 
ATOM     17  F   UNL     1       3.158   6.199  17.191  0.00  0.00    +0.000 F 
ENDBRANCH   9  11
ENDBRANCH   2   5
BRANCH   1  18
ATOM     18  C   UNL     1       6.539   4.657  16.245  0.00  0.00    +0.000 C 
ATOM     19  C   UNL     1       6.722   6.094  16.745  0.00  0.00    +0.000 C 
BRANCH  18  24
ATOM     20  C   UNL     1       5.928   3.672  12.576  0.00  0.00    +0.000 A 
ATOM     21  C   UNL     1       6.987   4.330  11.950  0.00  0.00    +0.000 A 
ATOM     22  C   UNL     1       7.894   5.087  12.690  0.00  0.00    +0.000 A 
ATOM     23  C   UNL     1       7.755   5.195  14.071  0.00  0.00    +0.000 A 
ATOM     24  C   UNL     1       6.689   4.564  14.736  0.00  0.00    +0.000 A 
ATOM     25  C   UNL     1       5.767   3.821  13.965  0.00  0.00    +0.000 A 
BRANCH  20  29
ATOM     26  C   UNL     1       3.162   2.161  10.489  0.00  0.00    +0.000 C 
ATOM     27  C   UNL     1       3.990   3.290  11.047  0.00  0.00    +0.000 C 
ATOM     28  O   UNL     1       3.734   4.451  10.745  0.00  0.00    +0.000 OA
ATOM     29  N   UNL     1       5.011   2.853  11.877  0.00  0.00    +0.000 N 
ATOM     30  H   UNL     1       5.180   1.855  11.911  0.00  0.00    +0.000 HD
ENDBRANCH  20  29
ENDBRANCH  18  24
ENDBRANCH   1  18
TORSDOF 5
ENDMDL
MODEL 8
REMARK VINA RESULT:      -8.1      1.854      2.369
REMARK  Name = 
REMARK  7 active torsions:
REMARK  status: ('A' for Active; 'I' for Inactive)
REMARK    1  A    between atoms: C_1  and  C_2
REMARK    2  A    between atoms: N_4  and  C_5
REMARK    3  A    between atoms: C_9  and  C_10
REMARK    4  A    between atoms: C_10  and  C_11
REMARK    5  A    between atoms: C_10  and  N_12
REMARK    6  A    between atoms: C_13  and  C_15
REMARK    7  A    between atoms: C_19  and  C_20
REMARK                            x       y       z     vdW  Elec       q    Type
REMARK                         _______ _______ _______ _____ _____    ______ ____
ROOT
ATOM      1  N   UNL     1       5.450   4.508  19.319  0.00  0.00    +0.000 N 
ATOM      2  C   UNL     1       4.439   3.603  19.066  0.00  0.00    +0.000 C 
ATOM      3  O   UNL     1       4.480   2.803  18.137  0.00  0.00    +0.000 OA
ATOM      4  H   UNL     1       5.360   5.143  20.097  0.00  0.00    +0.000 HD
ENDROOT
BRANCH   2   5
ATOM      5  C   UNL     1       3.319   3.673  19.994  0.00  0.00    +0.000 A 
ATOM      6  C   UNL     1       2.934   2.689  20.887  0.00  0.00    +0.000 A 
ATOM      7  N   UNL     1       1.808   3.145  21.495  0.00  0.00    +0.000 N 
ATOM      8  N   UNL     1       1.425   4.355  21.078  0.00  0.00    +0.000 NA
ATOM      9  C   UNL     1       2.339   4.710  20.155  0.00  0.00    +0.000 A 
ATOM     10  H   UNL     1       1.238   2.679  22.194  0.00  0.00    +0.000 HD
BRANCH   9  11
ATOM     11  C   UNL     1       2.218   6.003  19.473  0.00  0.00    +0.000 A 
ATOM     12  C   UNL     1       2.364   6.072  18.076  0.00  0.00    +0.000 A 
ATOM     13  C   UNL     1       2.286   7.296  17.403  0.00  0.00    +0.000 A 
ATOM     14  C   UNL     1       2.067   8.471  18.118  0.00  0.00    +0.000 A 
ATOM     15  C   UNL     1       1.890   8.415  19.499  0.00  0.00    +0.000 A 
ATOM     16  C   UNL     1       1.943   7.188  20.161  0.00  0.00    +0.000 A 
ATOM     17  F   UNL     1       1.679   7.179  21.477  0.00  0.00    +0.000 F 
ENDBRANCH   9  11
ENDBRANCH   2   5
BRANCH   1  18
ATOM     18  C   UNL     1       6.614   4.605  18.456  0.00  0.00    +0.000 C 
ATOM     19  C   UNL     1       7.638   5.588  19.036  0.00  0.00    +0.000 C 
BRANCH  18  24
ATOM     20  C   UNL     1       6.165   4.486  14.636  0.00  0.00    +0.000 A 
ATOM     21  C   UNL     1       5.518   5.702  14.412  0.00  0.00    +0.000 A 
ATOM     22  C   UNL     1       5.223   6.559  15.471  0.00  0.00    +0.000 A 
ATOM     23  C   UNL     1       5.574   6.211  16.773  0.00  0.00    +0.000 A 
ATOM     24  C   UNL     1       6.208   4.986  17.042  0.00  0.00    +0.000 A 
ATOM     25  C   UNL     1       6.477   4.121  15.958  0.00  0.00    +0.000 A 
BRANCH  20  29
ATOM     26  C   UNL     1       6.408   2.245  11.601  0.00  0.00    +0.000 C 
ATOM     27  C   UNL     1       5.736   3.237  12.515  0.00  0.00    +0.000 C 
ATOM     28  O   UNL     1       4.606   3.641  12.263  0.00  0.00    +0.000 OA
ATOM     29  N   UNL     1       6.529   3.606  13.591  0.00  0.00    +0.000 N 
ATOM     30  H   UNL     1       7.493   3.293  13.579  0.00  0.00    +0.000 HD
ENDBRANCH  20  29
ENDBRANCH  18  24
ENDBRANCH   1  18
TORSDOF 5
ENDMDL
MODEL 9
REMARK VINA RESULT:      -8.1      4.027      8.703
REMARK  Name = 
REMARK  7 active torsions:
REMARK  status: ('A' for Active; 'I' for Inactive)
REMARK    1  A    between atoms: C_1  and  C_2
REMARK    2  A    between atoms: N_4  and  C_5
REMARK    3  A    between atoms: C_9  and  C_10
REMARK    4  A    between atoms: C_10  and  C_11
REMARK    5  A    between atoms: C_10  and  N_12
REMARK    6  A    between atoms: C_13  and  C_15
REMARK    7  A    between atoms: C_19  and  C_20
REMARK                            x       y       z     vdW  Elec       q    Type
REMARK                         _______ _______ _______ _____ _____    ______ ____
ROOT
ATOM      1  N   UNL     1       2.773   6.440  18.949  0.00  0.00    +0.000 N 
ATOM      2  C   UNL     1       2.443   5.161  18.551  0.00  0.00    +0.000 C 
ATOM      3  O   UNL     1       1.541   4.923  17.756  0.00  0.00    +0.000 OA
ATOM      4  H   UNL     1       3.525   6.575  19.607  0.00  0.00    +0.000 HD
ENDROOT
BRANCH   2   5
ATOM      5  C   UNL     1       3.257   4.113  19.151  0.00  0.00    +0.000 A 
ATOM      6  C   UNL     1       2.797   3.063  19.926  0.00  0.00    +0.000 A 
ATOM      7  N   UNL     1       3.898   2.377  20.332  0.00  0.00    +0.000 N 
ATOM      8  N   UNL     1       5.046   2.888  19.879  0.00  0.00    +0.000 NA
ATOM      9  C   UNL     1       4.685   3.958  19.143  0.00  0.00    +0.000 A 
ATOM     10  H   UNL     1       3.944   1.558  20.930  0.00  0.00    +0.000 HD
BRANCH   9  11
ATOM     11  C   UNL     1       5.715   4.774  18.493  0.00  0.00    +0.000 A 
ATOM     12  C   UNL     1       6.663   5.456  19.276  0.00  0.00    +0.000 A 
ATOM     13  C   UNL     1       7.636   6.268  18.684  0.00  0.00    +0.000 A 
ATOM     14  C   UNL     1       7.673   6.415  17.299  0.00  0.00    +0.000 A 
ATOM     15  C   UNL     1       6.759   5.721  16.508  0.00  0.00    +0.000 A 
ATOM     16  C   UNL     1       5.807   4.892  17.103  0.00  0.00    +0.000 A 
ATOM     17  F   UNL     1       5.008   4.180  16.293  0.00  0.00    +0.000 F 
ENDBRANCH   9  11
ENDBRANCH   2   5
BRANCH   1  18
ATOM     18  C   UNL     1       2.024   7.596  18.484  0.00  0.00    +0.000 C 
ATOM     19  C   UNL     1       2.872   8.442  17.528  0.00  0.00    +0.000 C 
BRANCH  18  24
ATOM     20  C   UNL     1       0.668  10.540  20.557  0.00  0.00    +0.000 A 
ATOM     21  C   UNL     1       0.621   9.965  21.827  0.00  0.00    +0.000 A 
ATOM     22  C   UNL     1       1.019   8.644  22.027  0.00  0.00    +0.000 A 
ATOM     23  C   UNL     1       1.471   7.878  20.955  0.00  0.00    +0.000 A 
ATOM     24  C   UNL     1       1.513   8.415  19.657  0.00  0.00    +0.000 A 
ATOM     25  C   UNL     1       1.084   9.748  19.472  0.00  0.00    +0.000 A 
BRANCH  20  29
ATOM     26  C   UNL     1      -0.919  13.844  19.631  0.00  0.00    +0.000 C 
ATOM     27  C   UNL     1      -0.890  12.349  19.820  0.00  0.00    +0.000 C 
ATOM     28  O   UNL     1      -1.879  11.674  19.556  0.00  0.00    +0.000 OA
ATOM     29  N   UNL     1       0.323  11.889  20.312  0.00  0.00    +0.000 N 
ATOM     30  H   UNL     1       0.990  12.588  20.615  0.00  0.00    +0.000 HD
ENDBRANCH  20  29
ENDBRANCH  18  24
ENDBRANCH   1  18
TORSDOF 5
ENDMDL
